# generated using pymatgen
data_Gd19Ta56(WO20)8
_symmetry_space_group_name_H-M   'P 1'
_cell_length_a   15.56418950
_cell_length_b   15.49854193
_cell_length_c   15.28786550
_cell_angle_alpha   90.04211438
_cell_angle_beta   90.21592272
_cell_angle_gamma   89.91983560
_symmetry_Int_Tables_number   1
_chemical_formula_structural   Gd19Ta56(WO20)8
_chemical_formula_sum   'Gd19 Ta56 W8 O160'
_cell_volume   3687.74243507
_cell_formula_units_Z   1
loop_
 _symmetry_equiv_pos_site_id
 _symmetry_equiv_pos_as_xyz
  1  'x, y, z'
loop_
 _atom_type_symbol
 _atom_type_oxidation_number
  Gd3+  3.0
  Ta5+  5.0
  W6+  6.0
  O2-  -2.0
loop_
 _atom_site_type_symbol
 _atom_site_label
 _atom_site_symmetry_multiplicity
 _atom_site_fract_x
 _atom_site_fract_y
 _atom_site_fract_z
 _atom_site_occupancy
  Gd3+  Gd0  1  0.04181713  0.75496087  0.74876413  1
  Gd3+  Gd1  1  0.23165935  0.25222807  0.48679288  1
  Gd3+  Gd2  1  -0.00877441  0.74342071  0.23710079  1
  Gd3+  Gd3  1  0.73595417  0.24485881  0.49451263  1
  Gd3+  Gd4  1  0.73273711  0.76114992  0.78727720  1
  Gd3+  Gd5  1  0.00329091  0.24167485  0.73967637  1
  Gd3+  Gd6  1  0.00057836  0.24846968  0.48810081  1
  Gd3+  Gd7  1  0.25672992  0.26348378  0.23637574  1
  Gd3+  Gd8  1  0.74269784  0.74937187  0.21844581  1
  Gd3+  Gd9  1  0.50593316  0.75874897  0.27257824  1
  Gd3+  Gd10  1  0.29108844  0.75024509  0.76115630  1
  Gd3+  Gd11  1  0.49068551  0.25658531  0.00222065  1
  Gd3+  Gd12  1  -0.01790396  0.73443646  0.50360587  1
  Gd3+  Gd13  1  0.48704253  0.24049804  0.50010855  1
  Gd3+  Gd14  1  0.76253999  0.25093581  0.23845371  1
  Gd3+  Gd15  1  0.01749458  0.23370779  -0.01548517  1
  Gd3+  Gd16  1  0.49216436  0.24829990  0.74292033  1
  Gd3+  Gd17  1  0.46953916  0.74950190  0.00674588  1
  Gd3+  Gd18  1  0.50894224  0.25444603  0.24132063  1
  Ta5+  Ta19  1  0.36637942  0.62519581  0.36796988  1
  Ta5+  Ta20  1  0.33817768  0.12657806  0.88086172  1
  Ta5+  Ta21  1  0.14502027  0.10210714  0.66883142  1
  Ta5+  Ta22  1  0.63028493  0.12560086  0.86836502  1
  Ta5+  Ta23  1  0.57929799  0.62486332  0.87103529  1
  Ta5+  Ta24  1  0.60183945  0.62094876  0.12194136  1
  Ta5+  Ta25  1  0.66601834  0.64158261  0.37923991  1
  Ta5+  Ta26  1  0.63018112  0.11544280  0.61917222  1
  Ta5+  Ta27  1  0.64912413  0.38381125  0.11588822  1
  Ta5+  Ta28  1  0.13467289  0.62321530  0.35613660  1
  Ta5+  Ta29  1  0.86626968  0.86942581  0.10671945  1
  Ta5+  Ta30  1  0.83355773  0.64713580  0.37923602  1
  Ta5+  Ta31  1  0.09155179  0.09010162  0.35332673  1
  Ta5+  Ta32  1  0.33533627  0.41555299  0.61929378  1
  Ta5+  Ta33  1  0.15467058  0.86238180  0.36564098  1
  Ta5+  Ta34  1  0.36992670  0.12633257  0.12809287  1
  Ta5+  Ta35  1  0.85323159  0.38053844  0.63115637  1
  Ta5+  Ta36  1  0.39853597  0.38253529  0.38461833  1
  Ta5+  Ta37  1  0.37112067  0.87625350  0.14465638  1
  Ta5+  Ta38  1  0.87020811  0.11205386  0.62030921  1
  Ta5+  Ta39  1  0.32320897  0.86841125  0.34951849  1
  Ta5+  Ta40  1  0.66741005  0.86432856  0.37966914  1
  Ta5+  Ta41  1  0.63158543  0.38189416  0.86669904  1
  Ta5+  Ta42  1  0.38390948  0.87084754  0.60185286  1
  Ta5+  Ta43  1  0.62459590  0.12154748  0.12061172  1
  Ta5+  Ta44  1  0.12239513  0.87909569  0.91815497  1
  Ta5+  Ta45  1  0.10647974  0.62797557  0.07664279  1
  Ta5+  Ta46  1  0.13543514  0.62412489  0.87708522  1
  Ta5+  Ta47  1  0.13832677  0.37610210  0.87003270  1
  Ta5+  Ta48  1  0.12698178  0.41939148  0.63624431  1
  Ta5+  Ta49  1  0.87746153  0.37714029  0.87810746  1
  Ta5+  Ta50  1  0.85363466  0.61875131  0.11095974  1
  Ta5+  Ta51  1  0.60254441  0.10634907  0.37149608  1
  Ta5+  Ta52  1  0.34854104  0.10449999  0.66253843  1
  Ta5+  Ta53  1  0.60600430  0.39518649  0.37416384  1
  Ta5+  Ta54  1  0.91862164  0.88081240  0.87886486  1
  Ta5+  Ta55  1  0.87235642  0.11651156  0.12706562  1
  Ta5+  Ta56  1  0.42005722  0.63625793  0.61329199  1
  Ta5+  Ta57  1  0.36509154  0.37641763  0.86170730  1
  Ta5+  Ta58  1  0.85509424  0.39803941  0.37439475  1
  Ta5+  Ta59  1  0.08533634  0.38478202  0.11200058  1
  Ta5+  Ta60  1  0.88786899  0.07156667  0.37021570  1
  Ta5+  Ta61  1  0.66627839  0.62826724  0.62853776  1
  Ta5+  Ta62  1  0.61845758  0.87825947  0.11655258  1
  Ta5+  Ta63  1  0.91523740  0.62583945  0.87487071  1
  Ta5+  Ta64  1  0.08288888  0.38933123  0.31875972  1
  Ta5+  Ta65  1  0.63160396  0.38481805  0.61740474  1
  Ta5+  Ta66  1  0.16020568  0.61686928  0.61171455  1
  Ta5+  Ta67  1  0.39256185  0.10332002  0.36607202  1
  Ta5+  Ta68  1  0.56296331  0.88463848  0.86976137  1
  Ta5+  Ta69  1  0.12573554  0.86643563  0.60525517  1
  Ta5+  Ta70  1  0.62442520  0.86969770  0.62165584  1
  Ta5+  Ta71  1  0.87352829  0.86215097  0.63257317  1
  Ta5+  Ta72  1  0.13218930  0.12195331  0.12339878  1
  Ta5+  Ta73  1  0.83297187  0.84075860  0.37940126  1
  Ta5+  Ta74  1  0.90263404  0.37596659  0.13018819  1
  W6+  W75  1  0.17469731  0.11609979  0.87844602  1
  W6+  W76  1  0.41760747  0.61070716  0.86552980  1
  W6+  W77  1  0.88483030  0.12037061  0.87391875  1
  W6+  W78  1  0.14057729  0.86955027  0.14128834  1
  W6+  W79  1  0.33907318  0.45004483  0.07968572  1
  W6+  W80  1  0.43346361  0.60310481  0.14060718  1
  W6+  W81  1  0.83832219  0.63292239  0.63980586  1
  W6+  W82  1  0.39973295  0.88503594  0.87373563  1
  O2-  O83  1  0.13983462  0.00547606  0.14607034  1
  O2-  O84  1  0.16340386  -0.00886292  0.35479040  1
  O2-  O85  1  0.12132022  -0.00391541  0.61883630  1
  O2-  O86  1  0.17488842  -0.02277018  0.87680570  1
  O2-  O87  1  0.08985668  0.51001117  0.10858441  1
  O2-  O88  1  0.10781162  0.49611376  0.36681478  1
  O2-  O89  1  0.07126749  0.53228379  0.63249143  1
  O2-  O90  1  0.14691954  0.50285855  0.86727223  1
  O2-  O91  1  0.36433418  0.00680026  0.13394055  1
  O2-  O92  1  0.35652779  -0.00965347  0.36531203  1
  O2-  O93  1  0.37784063  0.00246227  0.60618704  1
  O2-  O94  1  0.36602905  0.01407505  0.89554955  1
  O2-  O95  1  0.30021050  0.54070063  0.14582903  1
  O2-  O96  1  0.36201609  0.49798806  0.38809375  1
  O2-  O97  1  0.40973561  0.50899893  0.59809754  1
  O2-  O98  1  0.42738200  0.47487882  0.84806667  1
  O2-  O99  1  0.61616807  0.00403601  0.13899610  1
  O2-  O100  1  0.63791506  -0.00593544  0.35686765  1
  O2-  O101  1  0.60872475  -0.00057227  0.63300160  1
  O2-  O102  1  0.59296831  0.01168227  0.85825848  1
  O2-  O103  1  0.63572856  0.49945054  0.14259768  1
  O2-  O104  1  0.63562431  0.50924192  0.36514364  1
  O2-  O105  1  0.62899717  0.50200758  0.63191591  1
  O2-  O106  1  0.61567072  0.49846086  0.85582586  1
  O2-  O107  1  0.88532546  -0.00846457  0.12126495  1
  O2-  O108  1  0.82051291  -0.02729746  0.38643103  1
  O2-  O109  1  0.87358741  -0.00887800  0.62177904  1
  O2-  O110  1  0.87188485  -0.01034036  0.87016810  1
  O2-  O111  1  0.88800465  0.50237903  0.11860101  1
  O2-  O112  1  0.83555111  0.51499111  0.38455390  1
  O2-  O113  1  0.82971637  0.49448846  0.63808621  1
  O2-  O114  1  0.91124691  0.49138332  0.87263856  1
  O2-  O115  1  0.08976863  0.25058426  0.11766311  1
  O2-  O116  1  0.12466088  0.30099115  0.38981728  1
  O2-  O117  1  0.07443176  0.18796754  0.61614542  1
  O2-  O118  1  0.11383866  0.24980661  0.86573799  1
  O2-  O119  1  0.09038727  0.74414831  0.11498072  1
  O2-  O120  1  0.09961286  0.73770979  0.38701716  1
  O2-  O121  1  0.10335796  0.73237056  0.60063728  1
  O2-  O122  1  0.13870169  0.75833306  0.87198510  1
  O2-  O123  1  0.38523506  0.25881033  0.16040255  1
  O2-  O124  1  0.42983174  0.25158748  0.36389765  1
  O2-  O125  1  0.42148693  0.19295036  0.62066074  1
  O2-  O126  1  0.40024506  0.25254644  0.86013927  1
  O2-  O127  1  0.40855372  0.74981068  0.14795150  1
  O2-  O128  1  0.37314903  0.75249421  0.34575262  1
  O2-  O129  1  0.35089729  0.74735526  0.61987129  1
  O2-  O130  1  0.38576937  0.74628053  0.87563945  1
  O2-  O131  1  0.60062372  0.26281567  0.11580502  1
  O2-  O132  1  0.60878485  0.24600112  0.39379022  1
  O2-  O133  1  0.60055127  0.24781287  0.59584446  1
  O2-  O134  1  0.57780172  0.25286231  0.87706475  1
  O2-  O135  1  0.59298955  0.75304323  0.10624311  1
  O2-  O136  1  0.60297141  0.75385349  0.39393270  1
  O2-  O137  1  0.68103434  0.75862968  0.63578375  1
  O2-  O138  1  0.57629467  0.75495230  0.88235269  1
  O2-  O139  1  0.89090151  0.24265776  0.15288148  1
  O2-  O140  1  0.79855083  0.28041586  0.37319302  1
  O2-  O141  1  0.90732707  0.24319655  0.60994739  1
  O2-  O142  1  0.92341708  0.25571814  0.86805140  1
  O2-  O143  1  0.90243972  0.74242702  0.11070741  1
  O2-  O144  1  0.92656914  0.74467933  0.36942180  1
  O2-  O145  1  0.92725602  0.74783914  0.64947909  1
  O2-  O146  1  0.93824535  0.74945605  0.86780345  1
  O2-  O147  1  0.10352520  0.11623478  0.00149141  1
  O2-  O148  1  0.14011156  0.15396665  0.25764288  1
  O2-  O149  1  0.12785254  0.14470667  0.45548180  1
  O2-  O150  1  0.07886759  0.10996223  0.77108109  1
  O2-  O151  1  0.19599783  0.63264825  -0.00629171  1
  O2-  O152  1  0.08739118  0.62819821  0.23913108  1
  O2-  O153  1  0.16818246  0.61024623  0.48913940  1
  O2-  O154  1  0.18065106  0.64603583  0.74220311  1
  O2-  O155  1  0.37761865  0.15812124  0.00129080  1
  O2-  O156  1  0.33133758  0.13383384  0.25867455  1
  O2-  O157  1  0.32889224  0.15442225  0.45634716  1
  O2-  O158  1  0.41497675  0.11821318  0.76850008  1
  O2-  O159  1  0.41457906  0.61723534  0.00310096  1
  O2-  O160  1  0.45414231  0.61492547  0.28562455  1
  O2-  O161  1  0.38910204  0.64406147  0.48751419  1
  O2-  O162  1  0.37823372  0.62587548  0.72959687  1
  O2-  O163  1  0.60485716  0.13467681  -0.00561077  1
  O2-  O164  1  0.64742452  0.15438130  0.24904658  1
  O2-  O165  1  0.66325943  0.11564291  0.49112012  1
  O2-  O166  1  0.60345055  0.14870009  0.74110874  1
  O2-  O167  1  0.60331832  0.61620197  -0.00632930  1
  O2-  O168  1  0.62785487  0.65557391  0.24905182  1
  O2-  O169  1  0.66695111  0.62871482  0.50555788  1
  O2-  O170  1  0.64178010  0.64584544  0.76069250  1
  O2-  O171  1  0.90752764  0.13370565  0.01019772  1
  O2-  O172  1  0.84040576  0.11282577  0.26217905  1
  O2-  O173  1  0.86279125  0.12727647  0.48526693  1
  O2-  O174  1  0.90360472  0.12854467  0.73714216  1
  O2-  O175  1  0.85645417  0.62356651  -0.01801030  1
  O2-  O176  1  0.85632328  0.64201779  0.24341526  1
  O2-  O177  1  0.86456254  0.64798989  0.50401900  1
  O2-  O178  1  0.82981081  0.63945647  0.78804551  1
  O2-  O179  1  0.08889015  0.37369841  -0.01454703  1
  O2-  O180  1  0.16542183  0.37932570  0.22297944  1
  O2-  O181  1  0.06196066  0.36659682  0.55140056  1
  O2-  O182  1  0.08647326  0.37378442  0.74280042  1
  O2-  O183  1  0.19193638  0.86034459  0.01583883  1
  O2-  O184  1  0.07839500  0.85722039  0.26130299  1
  O2-  O185  1  0.16377607  0.86436019  0.49017473  1
  O2-  O186  1  0.18208201  0.83794648  0.71002772  1
  O2-  O187  1  0.38125005  0.36164520  -0.01220165  1
  O2-  O188  1  0.28702029  0.33466904  0.36072255  1
  O2-  O189  1  0.36140655  0.34768754  0.51596525  1
  O2-  O190  1  0.38828670  0.36228458  0.71554358  1
  O2-  O191  1  0.39903289  0.87400720  0.02174435  1
  O2-  O192  1  0.43377372  0.88757309  0.25287531  1
  O2-  O193  1  0.34709437  0.86623848  0.48472488  1
  O2-  O194  1  0.36940535  0.87580102  0.73041704  1
  O2-  O195  1  0.60482561  0.37896940  -0.00568655  1
  O2-  O196  1  0.64793072  0.35261964  0.25249205  1
  O2-  O197  1  0.67202136  0.37972514  0.49029283  1
  O2-  O198  1  0.59976597  0.35755200  0.74300506  1
  O2-  O199  1  0.58938131  0.89055899  -0.00661357  1
  O2-  O200  1  0.62781896  0.85061826  0.24844888  1
  O2-  O201  1  0.66455809  0.88296088  0.50695278  1
  O2-  O202  1  0.62432919  0.86439994  0.75527335  1
  O2-  O203  1  0.90416342  0.35712192  0.00004221  1
  O2-  O204  1  0.84055774  0.38613349  0.25079507  1
  O2-  O205  1  0.86216352  0.36729059  0.50537739  1
  O2-  O206  1  0.90498531  0.36291955  0.74578129  1
  O2-  O207  1  0.85039611  0.85541431  -0.01665861  1
  O2-  O208  1  0.86062287  0.84685632  0.24125352  1
  O2-  O209  1  0.85798065  0.84189926  0.51122018  1
  O2-  O210  1  0.84663786  0.85553859  0.76237226  1
  O2-  O211  1  0.01449230  -0.10383628  -0.02525102  1
  O2-  O212  1  -0.01807454  0.16868356  0.36408134  1
  O2-  O213  1  -0.00906431  0.00907263  0.35218102  1
  O2-  O214  1  0.02756520  -0.11388290  0.81022854  1
  O2-  O215  1  0.03451452  0.62588222  -0.02725254  1
  O2-  O216  1  0.00257041  0.37938855  0.21556617  1
  O2-  O217  1  -0.02680670  0.36648905  0.38159737  1
  O2-  O218  1  0.02610293  0.61845796  0.80594371  1
  O2-  O219  1  0.24702589  0.15889781  0.11152327  1
  O2-  O220  1  0.26852351  -0.13623794  0.21763152  1
  O2-  O221  1  0.24527791  0.15303043  0.60567802  1
  O2-  O222  1  0.25285324  0.10186194  0.75583421  1
  O2-  O223  1  0.25102571  0.36435530  -0.17997794  1
  O2-  O224  1  0.25119311  0.62689656  0.32493236  1
  O2-  O225  1  0.23586289  0.50049269  0.62930829  1
  O2-  O226  1  0.22602241  0.34024703  0.61325066  1
  O2-  O227  1  0.49650913  0.13944110  0.12465916  1
  O2-  O228  1  0.50063116  0.11019934  0.29262744  1
  O2-  O229  1  0.50011986  0.10085812  0.45238703  1
  O2-  O230  1  0.50388498  -0.14698507  0.59870002  1
  O2-  O231  1  0.45487792  0.46355126  0.11707569  1
  O2-  O232  1  0.49420883  0.39457186  0.29980152  1
  O2-  O233  1  0.50887597  0.38637688  0.46164737  1
  O2-  O234  1  0.53397540  0.65787690  0.61958059  1
  O2-  O235  1  0.74953007  0.13679152  0.10866521  1
  O2-  O236  1  0.74159807  -0.13137443  0.11316564  1
  O2-  O237  1  0.75181431  0.13669342  0.63605756  1
  O2-  O238  1  0.74530327  0.13712009  0.86639855  1
  O2-  O239  1  0.76363069  0.35989267  0.10166107  1
  O2-  O240  1  0.73571460  0.64257218  0.11195692  1
  O2-  O241  1  0.74507405  0.32608362  0.64427891  1
  O2-  O242  1  0.75374625  0.36992067  0.87140785  1
