# generated using pymatgen
data_Gd19Ta56(WO20)8
_symmetry_space_group_name_H-M   'P 1'
_cell_length_a   15.53999042
_cell_length_b   15.56925976
_cell_length_c   14.98088054
_cell_angle_alpha   89.95833931
_cell_angle_beta   90.22013698
_cell_angle_gamma   89.93901448
_symmetry_Int_Tables_number   1
_chemical_formula_structural   Gd19Ta56(WO20)8
_chemical_formula_sum   'Gd19 Ta56 W8 O160'
_cell_volume   3624.53655961
_cell_formula_units_Z   1
loop_
 _symmetry_equiv_pos_site_id
 _symmetry_equiv_pos_as_xyz
  1  'x, y, z'
loop_
 _atom_type_symbol
 _atom_type_oxidation_number
  Gd3+  3.0
  Ta5+  5.0
  W6+  6.0
  O2-  -2.0
loop_
 _atom_site_type_symbol
 _atom_site_label
 _atom_site_symmetry_multiplicity
 _atom_site_fract_x
 _atom_site_fract_y
 _atom_site_fract_z
 _atom_site_occupancy
  Gd3+  Gd0  1  -0.03351250  0.74225064  0.26495708  1
  Gd3+  Gd1  1  0.27001175  0.75902884  0.27717397  1
  Gd3+  Gd2  1  0.01663824  0.25680371  0.48243704  1
  Gd3+  Gd3  1  0.00552738  0.75468031  0.01990372  1
  Gd3+  Gd4  1  0.71893190  0.73125195  0.24407108  1
  Gd3+  Gd5  1  0.01948026  0.24069321  0.00668805  1
  Gd3+  Gd6  1  -0.02201217  0.74082652  0.50273793  1
  Gd3+  Gd7  1  0.76652317  0.25343775  -0.00821883  1
  Gd3+  Gd8  1  0.49652215  0.74341244  0.75199222  1
  Gd3+  Gd9  1  0.76863789  0.71640997  -0.01349296  1
  Gd3+  Gd10  1  0.25745749  0.24625842  0.25480340  1
  Gd3+  Gd11  1  0.51769876  0.24737220  -0.00551564  1
  Gd3+  Gd12  1  0.72402689  0.76521082  0.48799418  1
  Gd3+  Gd13  1  0.00138282  0.76784668  0.76822837  1
  Gd3+  Gd14  1  0.45856348  0.24590764  0.47263361  1
  Gd3+  Gd15  1  0.70204839  0.24693150  0.45876240  1
  Gd3+  Gd16  1  0.25426123  0.25518915  0.71783762  1
  Gd3+  Gd17  1  0.26807013  0.24755479  -0.00076961  1
  Gd3+  Gd18  1  0.74731052  0.24498941  0.71215584  1
  Ta5+  Ta19  1  0.36912422  0.62454977  0.88325678  1
  Ta5+  Ta20  1  0.92213242  0.38169718  0.12782570  1
  Ta5+  Ta21  1  0.36146894  0.87316265  0.89120990  1
  Ta5+  Ta22  1  0.36323105  0.61802857  0.62956175  1
  Ta5+  Ta23  1  0.63002682  0.61694667  0.60962401  1
  Ta5+  Ta24  1  0.58561529  0.37510535  0.60047900  1
  Ta5+  Ta25  1  0.86689056  0.37515609  0.37807948  1
  Ta5+  Ta26  1  0.89957185  0.37190174  0.63361982  1
  Ta5+  Ta27  1  0.16446075  0.38027848  0.39969024  1
  Ta5+  Ta28  1  0.13628236  0.12233145  0.86166012  1
  Ta5+  Ta29  1  0.63913261  0.37423483  0.85267745  1
  Ta5+  Ta30  1  0.35928102  0.87928622  0.12753810  1
  Ta5+  Ta31  1  0.57969914  0.38246061  0.33601549  1
  Ta5+  Ta32  1  0.33662122  0.38743664  0.39078193  1
  Ta5+  Ta33  1  0.11733980  0.62173586  0.63515497  1
  Ta5+  Ta34  1  0.83859663  0.88343019  0.62844482  1
  Ta5+  Ta35  1  0.66385670  0.88148489  0.09863291  1
  Ta5+  Ta36  1  0.13591187  0.87368136  0.62832353  1
  Ta5+  Ta37  1  0.33321235  0.10552891  0.39251382  1
  Ta5+  Ta38  1  0.87350444  0.89668707  0.37792016  1
  Ta5+  Ta39  1  0.57783628  0.11819095  0.33938895  1
  Ta5+  Ta40  1  0.57841762  0.87157789  0.35003924  1
  Ta5+  Ta41  1  0.59322572  0.62751992  0.09299763  1
  Ta5+  Ta42  1  0.39946568  0.38696305  0.88775602  1
  Ta5+  Ta43  1  0.83824415  0.61321113  0.63093506  1
  Ta5+  Ta44  1  0.66185960  0.61761071  0.83726603  1
  Ta5+  Ta45  1  0.14066051  0.62569188  0.88699365  1
  Ta5+  Ta46  1  0.10484000  0.57771306  0.13630305  1
  Ta5+  Ta47  1  0.07753101  0.11856492  0.63596078  1
  Ta5+  Ta48  1  0.39867686  0.10905667  0.88572967  1
  Ta5+  Ta49  1  0.41195887  0.11599652  0.13637322  1
  Ta5+  Ta50  1  0.36076453  0.62800036  0.11837561  1
  Ta5+  Ta51  1  0.41993174  0.37690736  0.63504762  1
  Ta5+  Ta52  1  0.63533866  0.12137830  0.85662162  1
  Ta5+  Ta53  1  0.41001263  0.12295635  0.63862246  1
  Ta5+  Ta54  1  0.57534552  0.13050897  0.60716813  1
  Ta5+  Ta55  1  0.64172658  0.87503128  0.86173554  1
  Ta5+  Ta56  1  0.88692582  0.56165716  0.38803216  1
  Ta5+  Ta57  1  0.86834961  0.12451756  0.12889616  1
  Ta5+  Ta58  1  0.89694849  0.12007598  0.62420568  1
  Ta5+  Ta59  1  0.60578798  0.38399643  0.12485293  1
  Ta5+  Ta60  1  0.55890094  0.62679387  0.36215000  1
  Ta5+  Ta61  1  0.37904025  0.87961505  0.63512621  1
  Ta5+  Ta62  1  0.38853441  0.38173395  0.13393508  1
  Ta5+  Ta63  1  0.12050565  0.62302232  0.37598901  1
  Ta5+  Ta64  1  0.12267266  0.89947835  0.14671015  1
  Ta5+  Ta65  1  0.08664037  0.88679594  0.38538567  1
  Ta5+  Ta66  1  0.90752708  0.37121519  0.84831156  1
  Ta5+  Ta67  1  0.15872100  0.12404137  0.39575699  1
  Ta5+  Ta68  1  0.13787351  0.38102200  0.13608085  1
  Ta5+  Ta69  1  0.07117264  0.37748294  0.64221079  1
  Ta5+  Ta70  1  0.16240182  0.88255096  0.89034149  1
  Ta5+  Ta71  1  0.87859433  0.14239441  0.36733232  1
  Ta5+  Ta72  1  0.62701361  0.12376380  0.12911841  1
  Ta5+  Ta73  1  0.86797699  0.60190490  0.13532837  1
  Ta5+  Ta74  1  0.86698975  0.89104341  0.90246728  1
  W6+  W75  1  0.42051510  0.87332436  0.39198643  1
  W6+  W76  1  0.13640746  0.12425879  0.13396196  1
  W6+  W77  1  0.82856643  0.87752493  0.13312702  1
  W6+  W78  1  0.14536379  0.37745727  0.86724121  1
  W6+  W79  1  0.39745600  0.62611838  0.37812515  1
  W6+  W80  1  0.91182635  0.61992572  0.86791125  1
  W6+  W81  1  0.90175010  0.12176144  0.84779568  1
  W6+  W82  1  0.58920149  0.88175496  0.60583934  1
  O2-  O83  1  0.06571040  -0.00030913  0.15195215  1
  O2-  O84  1  0.12577261  -0.00071857  0.39024552  1
  O2-  O85  1  0.10141146  -0.01360715  0.62963069  1
  O2-  O86  1  0.12066350  0.00219777  0.86440145  1
  O2-  O87  1  0.03330927  0.47117801  0.12708449  1
  O2-  O88  1  0.14908248  0.50847944  0.38629975  1
  O2-  O89  1  0.07998063  0.51136347  0.64537867  1
  O2-  O90  1  0.11685423  0.51067803  0.89374944  1
  O2-  O91  1  0.40490233  -0.00665347  0.13119108  1
  O2-  O92  1  0.35941949  -0.01104535  0.39269193  1
  O2-  O93  1  0.38327837  -0.00195175  0.65157700  1
  O2-  O94  1  0.41917577  -0.00881601  0.88150703  1
  O2-  O95  1  0.37830543  0.50380840  0.12664247  1
  O2-  O96  1  0.35645613  0.50342884  0.38169715  1
  O2-  O97  1  0.39679169  0.50151295  0.64457229  1
  O2-  O98  1  0.41936503  0.51167092  0.89629520  1
  O2-  O99  1  0.64902303  0.00070462  0.10564414  1
  O2-  O100  1  0.57487107  -0.00815327  0.34132250  1
  O2-  O101  1  0.56902329  0.01271032  0.61128388  1
  O2-  O102  1  0.63052734  0.00390420  0.86596305  1
  O2-  O103  1  0.61683982  0.50896451  0.10279586  1
  O2-  O104  1  0.57490092  0.50610112  0.34235419  1
  O2-  O105  1  0.60539166  0.49722345  0.61029960  1
  O2-  O106  1  0.65737088  0.49206559  0.84398805  1
  O2-  O107  1  0.85232007  0.01007378  0.13774329  1
  O2-  O108  1  0.86904063  0.01882380  0.36849672  1
  O2-  O109  1  0.88104851  -0.00560174  0.60519851  1
  O2-  O110  1  0.92382331  -0.01074592  0.87288773  1
  O2-  O111  1  0.84860897  0.48509238  0.10807657  1
  O2-  O112  1  0.95858581  0.46460740  0.39778849  1
  O2-  O113  1  0.86570552  0.49793488  0.63221546  1
  O2-  O114  1  0.90936451  0.48885166  0.85680029  1
  O2-  O115  1  0.25669810  0.32965305  0.12727912  1
  O2-  O116  1  0.15102406  0.25255824  0.40853799  1
  O2-  O117  1  0.07928883  0.24670676  0.63684546  1
  O2-  O118  1  0.20286243  0.24334179  0.85856080  1
  O2-  O119  1  0.05232217  0.79809825  0.15279262  1
  O2-  O120  1  0.07742821  0.75449848  0.37133067  1
  O2-  O121  1  0.06874393  0.75594077  0.63140122  1
  O2-  O122  1  0.08956076  0.74865357  0.89586970  1
  O2-  O123  1  0.40311844  0.24654456  0.11014148  1
  O2-  O124  1  0.33313623  0.24519555  0.38717330  1
  O2-  O125  1  0.39495610  0.25038970  0.65033704  1
  O2-  O126  1  0.39009872  0.25353748  0.91039242  1
  O2-  O127  1  0.31369758  0.75185924  0.12815404  1
  O2-  O128  1  0.36514027  0.75433306  0.39094651  1
  O2-  O129  1  0.39542264  0.74422434  0.64043133  1
  O2-  O130  1  0.42724941  0.73283318  0.88988464  1
  O2-  O131  1  0.60984916  0.25479639  0.11869585  1
  O2-  O132  1  0.60000083  0.25037749  0.34492543  1
  O2-  O133  1  0.64133511  0.25065705  0.59569178  1
  O2-  O134  1  0.68402803  0.25237878  0.85349009  1
  O2-  O135  1  0.66250851  0.73537728  0.09195118  1
  O2-  O136  1  0.63244185  0.74281955  0.36501613  1
  O2-  O137  1  0.61469889  0.74289264  0.61104340  1
  O2-  O138  1  0.66257045  0.74865953  0.85253816  1
  O2-  O139  1  0.86186807  0.27715749  0.11007651  1
  O2-  O140  1  0.81844358  0.25637131  0.35896095  1
  O2-  O141  1  0.88475148  0.24549751  0.64476582  1
  O2-  O142  1  0.85776000  0.25126565  0.86764571  1
  O2-  O143  1  0.83505697  0.73173995  0.13921543  1
  O2-  O144  1  0.87627596  0.75935419  0.38932676  1
  O2-  O145  1  0.85328282  0.75658303  0.59403911  1
  O2-  O146  1  0.89606837  0.76394826  0.88859625  1
  O2-  O147  1  0.15490728  0.13842937  -0.01082661  1
  O2-  O148  1  0.14441289  0.13972070  0.27294754  1
  O2-  O149  1  0.08827258  0.12550194  0.50929724  1
  O2-  O150  1  0.17014347  0.12832695  0.73519614  1
  O2-  O151  1  0.11863038  0.63962402  0.02609660  1
  O2-  O152  1  0.14903518  0.63632525  0.24115874  1
  O2-  O153  1  0.09685666  0.63848760  0.50797868  1
  O2-  O154  1  0.09883259  0.64554968  0.76376237  1
  O2-  O155  1  0.34770120  0.11552716  0.00616024  1
  O2-  O156  1  0.34202448  0.12387570  0.24388259  1
  O2-  O157  1  0.36161490  0.12649371  0.52064337  1
  O2-  O158  1  0.35248225  0.13471469  0.77241347  1
  O2-  O159  1  0.47452023  0.65344825  0.08112999  1
  O2-  O160  1  0.34763125  0.63570781  0.24521565  1
  O2-  O161  1  0.40209278  0.61959203  0.51488300  1
  O2-  O162  1  0.39996125  0.62643366  0.75765171  1
  O2-  O163  1  0.65753392  0.15100026  -0.01736248  1
  O2-  O164  1  0.67189520  0.11428058  0.25052156  1
  O2-  O165  1  0.60855900  0.13083179  0.47119425  1
  O2-  O166  1  0.63202051  0.14247707  0.72991100  1
  O2-  O167  1  0.61557222  0.62332198  -0.04011309  1
  O2-  O168  1  0.59327678  0.64538938  0.22429042  1
  O2-  O169  1  0.58128420  0.62324425  0.48635219  1
  O2-  O170  1  0.57723138  0.62327016  0.73903975  1
  O2-  O171  1  0.90752559  0.13871724  0.00679669  1
  O2-  O172  1  0.91754813  0.15429030  0.24192538  1
  O2-  O173  1  0.90235086  0.15043910  0.49396522  1
  O2-  O174  1  0.81970179  0.11517461  0.73902951  1
  O2-  O175  1  0.90001603  0.63533770  0.01166075  1
  O2-  O176  1  0.84278025  0.60954103  0.26893669  1
  O2-  O177  1  0.90252357  0.61279805  0.50611461  1
  O2-  O178  1  0.91647653  0.65045852  0.72319754  1
  O2-  O179  1  0.13351814  0.34217866  0.00752317  1
  O2-  O180  1  0.15055067  0.36921436  0.26377992  1
  O2-  O181  1  0.11368530  0.38149016  0.52129622  1
  O2-  O182  1  0.17191488  0.37574182  0.72808607  1
  O2-  O183  1  0.11482194  0.87344405  0.00902495  1
  O2-  O184  1  0.16180870  0.86990031  0.27059500  1
  O2-  O185  1  0.13928120  0.85379671  0.50110067  1
  O2-  O186  1  0.11973813  0.85977466  0.76487559  1
  O2-  O187  1  0.33133555  0.38725575  -0.00589275  1
  O2-  O188  1  0.34721250  0.36805705  0.25498435  1
  O2-  O189  1  0.37079289  0.36812326  0.51836073  1
  O2-  O190  1  0.35902632  0.37151045  0.77059602  1
  O2-  O191  1  0.40374408  0.85602201  0.01009193  1
  O2-  O192  1  0.37872983  0.85754105  0.25129119  1
  O2-  O193  1  0.46078780  0.87622202  0.54094936  1
  O2-  O194  1  0.39493685  0.85951071  0.76628642  1
  O2-  O195  1  0.66204101  0.36115524  -0.00866648  1
  O2-  O196  1  0.66859907  0.38465869  0.23488712  1
  O2-  O197  1  0.62182388  0.37393572  0.46435679  1
  O2-  O198  1  0.62564229  0.35492027  0.72747521  1
  O2-  O199  1  0.59789622  0.86732508  -0.01961894  1
  O2-  O200  1  0.62347699  0.85045090  0.21863502  1
  O2-  O201  1  0.62534138  0.87254178  0.46942467  1
  O2-  O202  1  0.57339474  0.87026052  0.75613267  1
  O2-  O203  1  0.93872240  0.36227668  -0.01794248  1
  O2-  O204  1  0.89658458  0.38423507  0.25004666  1
  O2-  O205  1  0.88674661  0.34693614  0.50536447  1
  O2-  O206  1  0.81804028  0.37252487  0.75008357  1
  O2-  O207  1  0.92225476  0.87367650  0.01901388  1
  O2-  O208  1  0.80184745  0.86576708  0.27700074  1
  O2-  O209  1  0.80913620  0.88623230  0.48728769  1
  O2-  O210  1  0.89674316  0.86565164  0.73969124  1
  O2-  O211  1  0.02714010  0.17315117  -0.12926882  1
  O2-  O212  1  -0.01671187  -0.11212837  0.29994619  1
  O2-  O213  1  -0.01953067  -0.11550374  0.46487208  1
  O2-  O214  1  -0.01673606  0.10218152  0.72343364  1
  O2-  O215  1  0.02998021  0.30969528  0.14374241  1
  O2-  O216  1  -0.01124745  0.63269495  0.16026936  1
  O2-  O217  1  -0.00268726  0.61776731  0.34718202  1
  O2-  O218  1  -0.01282148  0.35735550  0.75191427  1
  O2-  O219  1  0.26538053  -0.05059080  -0.08165014  1
  O2-  O220  1  0.24414381  -0.08378368  0.11901255  1
  O2-  O221  1  0.25533143  -0.13120224  0.63787712  1
  O2-  O222  1  0.25868969  -0.20054976  0.87588763  1
  O2-  O223  1  0.30959317  0.62245385  0.00136715  1
  O2-  O224  1  0.19446253  0.49647742  0.12419383  1
  O2-  O225  1  0.23889649  0.62092602  0.63399694  1
  O2-  O226  1  0.25165999  0.62343800  0.83975280  1
  O2-  O227  1  0.51496308  0.11305897  0.05206394  1
  O2-  O228  1  0.51718731  0.12559525  0.21177051  1
  O2-  O229  1  0.46199322  0.13368066  0.37550252  1
  O2-  O230  1  0.51447852  0.14945609  0.86822813  1
  O2-  O231  1  0.49109203  0.38310109  0.04618828  1
  O2-  O232  1  0.50769381  0.38414925  0.20740449  1
  O2-  O233  1  0.46835104  0.35885244  0.37845373  1
  O2-  O234  1  0.52002329  0.35778603  0.87384635  1
  O2-  O235  1  0.76270235  -0.13708667  0.00130436  1
  O2-  O236  1  0.75228972  0.15808869  0.11372341  1
  O2-  O237  1  0.72261115  -0.11326492  0.64594003  1
  O2-  O238  1  0.75924102  -0.10135981  0.83836090  1
  O2-  O239  1  0.77682560  0.61781034  -0.12196347  1
  O2-  O240  1  0.79360131  0.47894500  0.39352964  1
  O2-  O241  1  0.73944834  0.62657670  0.54090999  1
  O2-  O242  1  0.73472468  0.61625783  0.70628248  1
