# generated using pymatgen
data_Gd19Ta56(WO20)8
_symmetry_space_group_name_H-M   'P 1'
_cell_length_a   15.52730570
_cell_length_b   15.53927335
_cell_length_c   15.30126287
_cell_angle_alpha   90.10571113
_cell_angle_beta   90.01342003
_cell_angle_gamma   89.83579028
_symmetry_Int_Tables_number   1
_chemical_formula_structural   Gd19Ta56(WO20)8
_chemical_formula_sum   'Gd19 Ta56 W8 O160'
_cell_volume   3691.91379533
_cell_formula_units_Z   1
loop_
 _symmetry_equiv_pos_site_id
 _symmetry_equiv_pos_as_xyz
  1  'x, y, z'
loop_
 _atom_type_symbol
 _atom_type_oxidation_number
  Gd3+  3.0
  Ta5+  5.0
  W6+  6.0
  O2-  -2.0
loop_
 _atom_site_type_symbol
 _atom_site_label
 _atom_site_symmetry_multiplicity
 _atom_site_fract_x
 _atom_site_fract_y
 _atom_site_fract_z
 _atom_site_occupancy
  Gd3+  Gd0  1  0.51605175  0.24456900  0.50327420  1
  Gd3+  Gd1  1  0.25673048  0.25993226  0.25512286  1
  Gd3+  Gd2  1  0.73486579  0.24932552  0.74773389  1
  Gd3+  Gd3  1  0.25749410  0.25243379  0.00851845  1
  Gd3+  Gd4  1  0.74844453  0.24322148  0.24981501  1
  Gd3+  Gd5  1  0.49485917  0.25135468  0.01398905  1
  Gd3+  Gd6  1  -0.00303279  0.74600298  0.74703011  1
  Gd3+  Gd7  1  0.74333100  0.77133519  0.23037050  1
  Gd3+  Gd8  1  0.49359413  0.75096196  0.75505755  1
  Gd3+  Gd9  1  0.74541534  0.24217099  0.49766441  1
  Gd3+  Gd10  1  -0.00592877  0.75209079  -0.00772829  1
  Gd3+  Gd11  1  0.78627056  0.72789371  0.46872446  1
  Gd3+  Gd12  1  0.27635389  0.25067101  0.74357912  1
  Gd3+  Gd13  1  0.27069283  0.75171491  0.46418975  1
  Gd3+  Gd14  1  0.51483620  0.24523942  0.25707610  1
  Gd3+  Gd15  1  0.01528794  0.22086142  0.75923160  1
  Gd3+  Gd16  1  0.01116298  0.74507543  0.50574225  1
  Gd3+  Gd17  1  0.74095599  0.25654445  0.00395597  1
  Gd3+  Gd18  1  0.50075460  0.75755438  0.51499395  1
  Ta5+  Ta19  1  0.41330456  0.87308518  0.12462333  1
  Ta5+  Ta20  1  0.86673266  0.61406869  0.87559582  1
  Ta5+  Ta21  1  0.62336061  0.62077895  0.87102823  1
  Ta5+  Ta22  1  0.58414745  0.37522917  0.86624241  1
  Ta5+  Ta23  1  0.88164019  0.12613139  0.12370184  1
  Ta5+  Ta24  1  0.11701540  0.37161954  0.87751667  1
  Ta5+  Ta25  1  0.44760699  0.63986983  0.13023002  1
  Ta5+  Ta26  1  0.59208296  0.11542446  0.64367266  1
  Ta5+  Ta27  1  0.06768660  0.61998116  0.13863400  1
  Ta5+  Ta28  1  0.62750678  0.89015264  0.38228148  1
  Ta5+  Ta29  1  0.41550293  0.38049605  0.86551194  1
  Ta5+  Ta30  1  0.38385725  0.63705592  0.34344577  1
  Ta5+  Ta31  1  0.15044213  0.87368456  0.63487461  1
  Ta5+  Ta32  1  0.37533378  0.12669587  0.38495769  1
  Ta5+  Ta33  1  0.38717732  0.38134698  0.61847663  1
  Ta5+  Ta34  1  0.06361799  0.37174567  0.62519996  1
  Ta5+  Ta35  1  0.12534869  0.88427157  0.88108504  1
  Ta5+  Ta36  1  0.85078941  0.86741770  0.62593918  1
  Ta5+  Ta37  1  0.87496308  0.11244385  0.61452682  1
  Ta5+  Ta38  1  0.12056642  0.12124281  0.61210480  1
  Ta5+  Ta39  1  0.41670732  0.12390108  0.86031805  1
  Ta5+  Ta40  1  0.62358526  0.87924847  0.88130119  1
  Ta5+  Ta41  1  0.37777985  0.11140864  0.12503922  1
  Ta5+  Ta42  1  0.89447899  0.36697250  0.87781652  1
  Ta5+  Ta43  1  0.89613692  0.35984895  0.62707972  1
  Ta5+  Ta44  1  0.58000664  0.87350372  0.12627455  1
  Ta5+  Ta45  1  0.36960234  0.62552638  0.89134866  1
  Ta5+  Ta46  1  0.58325955  0.12461681  0.85960510  1
  Ta5+  Ta47  1  0.87243510  0.38194275  0.12544352  1
  Ta5+  Ta48  1  0.86469761  0.12663569  0.87334704  1
  Ta5+  Ta49  1  0.09981990  0.37208121  0.37682523  1
  Ta5+  Ta50  1  0.13643679  0.60845251  0.38039000  1
  Ta5+  Ta51  1  0.11627203  0.12339680  0.13835643  1
  Ta5+  Ta52  1  0.39324872  0.39275261  0.38123538  1
  Ta5+  Ta53  1  0.36804733  0.88223357  0.87966356  1
  Ta5+  Ta54  1  0.42445608  0.11812750  0.64221917  1
  Ta5+  Ta55  1  0.88774046  0.36761869  0.37448582  1
  Ta5+  Ta56  1  0.91399861  0.12928650  0.37032299  1
  Ta5+  Ta57  1  0.60597679  0.39640048  0.37834744  1
  Ta5+  Ta58  1  0.12031294  0.88892557  0.38449305  1
  Ta5+  Ta59  1  0.89542198  0.55904416  0.36848814  1
  Ta5+  Ta60  1  0.11328514  0.38022115  0.12874494  1
  Ta5+  Ta61  1  0.62759658  0.11276443  0.12075367  1
  Ta5+  Ta62  1  0.14305444  0.60723009  0.63424280  1
  Ta5+  Ta63  1  0.89989102  0.62754433  0.13030638  1
  Ta5+  Ta64  1  0.64658181  0.87973731  0.63931352  1
  Ta5+  Ta65  1  0.38179582  0.39710724  0.12980592  1
  Ta5+  Ta66  1  0.61126181  0.07925372  0.37973038  1
  Ta5+  Ta67  1  0.34745896  0.61522516  0.64438146  1
  Ta5+  Ta68  1  0.63099575  0.39019620  0.62325943  1
  Ta5+  Ta69  1  0.62452583  0.39140779  0.12920581  1
  Ta5+  Ta70  1  0.11277287  0.13580238  0.37880514  1
  Ta5+  Ta71  1  0.36753989  0.89065576  0.35449711  1
  Ta5+  Ta72  1  0.12629682  0.61728456  0.88229624  1
  Ta5+  Ta73  1  0.90285316  0.88121757  0.12819970  1
  Ta5+  Ta74  1  0.65297396  0.63476248  0.62655674  1
  W6+  W75  1  0.61501408  0.64470629  0.36593313  1
  W6+  W76  1  0.87015159  0.87824135  0.86935943  1
  W6+  W77  1  0.06510538  0.87583293  0.14529992  1
  W6+  W78  1  0.85207962  0.60398806  0.64834726  1
  W6+  W79  1  0.60754292  0.63899130  0.11882739  1
  W6+  W80  1  0.15658912  0.12856011  0.87801793  1
  W6+  W81  1  0.87906892  0.88461923  0.36130759  1
  W6+  W82  1  0.35427714  0.88139805  0.62999044  1
  O2-  O83  1  0.09767176  0.00909053  0.14638619  1
  O2-  O84  1  0.12272225  0.01155044  0.38273058  1
  O2-  O85  1  0.13765940  -0.00483482  0.63176752  1
  O2-  O86  1  0.11588215  0.00015724  0.87484247  1
  O2-  O87  1  0.11601608  0.50035713  0.12963801  1
  O2-  O88  1  0.15540954  0.48620051  0.38264001  1
  O2-  O89  1  0.09589619  0.49758877  0.63257572  1
  O2-  O90  1  0.11952386  0.49454986  0.87328872  1
  O2-  O91  1  0.35641886  -0.00308880  0.11336955  1
  O2-  O92  1  0.34122394  0.01138399  0.38648232  1
  O2-  O93  1  0.39664631  0.00389285  0.62180136  1
  O2-  O94  1  0.38876744  0.00217437  0.88131294  1
  O2-  O95  1  0.40424550  0.51294988  0.13337042  1
  O2-  O96  1  0.38145245  0.51055717  0.36959962  1
  O2-  O97  1  0.39914117  0.51473128  0.60435907  1
  O2-  O98  1  0.40136742  0.50718193  0.88195442  1
  O2-  O99  1  0.59830388  -0.00145073  0.13062414  1
  O2-  O100  1  0.70310166  -0.00735993  0.38559017  1
  O2-  O101  1  0.62133732  -0.00320541  0.61963281  1
  O2-  O102  1  0.60272511  0.00264276  0.87141414  1
  O2-  O103  1  0.59384612  0.50429775  0.13405872  1
  O2-  O104  1  0.61023572  0.51215887  0.37319214  1
  O2-  O105  1  0.63447394  0.51057436  0.62740727  1
  O2-  O106  1  0.60179690  0.49850886  0.87172133  1
  O2-  O107  1  0.90406124  0.00864776  0.11392529  1
  O2-  O108  1  0.91068684  0.01244447  0.38002605  1
  O2-  O109  1  0.85963174  -0.00857030  0.60959804  1
  O2-  O110  1  0.85581656  0.01040921  0.87420847  1
  O2-  O111  1  0.88871078  0.49919040  0.11493489  1
  O2-  O112  1  0.81090540  0.47394189  0.38639302  1
  O2-  O113  1  0.86821614  0.47480291  0.64351447  1
  O2-  O114  1  0.87464242  0.48594332  0.87684661  1
  O2-  O115  1  0.16858741  0.25770667  0.13205262  1
  O2-  O116  1  0.16204014  0.26064044  0.37795189  1
  O2-  O117  1  0.08168870  0.24564673  0.62000365  1
  O2-  O118  1  0.19777259  0.26856603  0.87201390  1
  O2-  O119  1  0.07175485  0.74104914  0.13457984  1
  O2-  O120  1  0.12916495  0.74582415  0.40582410  1
  O2-  O121  1  0.10070160  0.74590706  0.62484769  1
  O2-  O122  1  0.09230749  0.74507945  0.87909072  1
  O2-  O123  1  0.35170399  0.25476860  0.12882063  1
  O2-  O124  1  0.37899341  0.26089930  0.36521243  1
  O2-  O125  1  0.38595765  0.25469465  0.63138269  1
  O2-  O126  1  0.38485424  0.25573234  0.85645316  1
  O2-  O127  1  0.40109612  0.75133367  0.14591237  1
  O2-  O128  1  0.36795039  0.76257791  0.33366027  1
  O2-  O129  1  0.39666127  0.73422570  0.62591581  1
  O2-  O130  1  0.39288783  0.74899454  0.87029309  1
  O2-  O131  1  0.64086776  0.25048075  0.13740847  1
  O2-  O132  1  0.61550805  0.25784833  0.38317527  1
  O2-  O133  1  0.63124104  0.24927462  0.61074015  1
  O2-  O134  1  0.63068196  0.25056622  0.86535270  1
  O2-  O135  1  0.64403307  0.76759195  0.11188097  1
  O2-  O136  1  0.66933368  0.77008339  0.38283559  1
  O2-  O137  1  0.59157257  0.75659757  0.63685981  1
  O2-  O138  1  0.59543210  0.75053203  0.86532369  1
  O2-  O139  1  0.83125477  0.25212538  0.13018938  1
  O2-  O140  1  0.83415027  0.24670527  0.37216290  1
  O2-  O141  1  0.82627553  0.23912998  0.62199643  1
  O2-  O142  1  0.81437778  0.25411178  0.87269080  1
  O2-  O143  1  0.86951059  0.75160747  0.14059175  1
  O2-  O144  1  0.84182589  0.76171345  0.34032050  1
  O2-  O145  1  0.90213077  0.74035705  0.62513205  1
  O2-  O146  1  0.90112196  0.74161891  0.86833470  1
  O2-  O147  1  0.17032726  0.12845161  0.02531734  1
  O2-  O148  1  0.17286942  0.13655439  0.25414693  1
  O2-  O149  1  0.17181031  0.12944822  0.50155000  1
  O2-  O150  1  0.15623025  0.14778411  0.73379419  1
  O2-  O151  1  0.08309847  0.62009285  -0.00084984  1
  O2-  O152  1  0.07780072  0.61445735  0.27417517  1
  O2-  O153  1  0.09291318  0.61284539  0.50250091  1
  O2-  O154  1  0.10299597  0.63424590  0.75368786  1
  O2-  O155  1  0.38644320  0.14634248  -0.00374057  1
  O2-  O156  1  0.35633656  0.13189008  0.25037124  1
  O2-  O157  1  0.41064299  0.14169850  0.50562616  1
  O2-  O158  1  0.34576701  0.12581813  0.74927618  1
  O2-  O159  1  0.40135455  0.63528420  0.00848467  1
  O2-  O160  1  0.47402731  0.62506224  0.26086075  1
  O2-  O161  1  0.39994458  0.65924721  0.46535697  1
  O2-  O162  1  0.39761305  0.62703100  0.75875098  1
  O2-  O163  1  0.60727701  0.14547083  -0.00281329  1
  O2-  O164  1  0.64224497  0.12740663  0.26179976  1
  O2-  O165  1  0.61562661  0.12492175  0.49739371  1
  O2-  O166  1  0.66659694  0.12455072  0.74894798  1
  O2-  O167  1  0.58471635  0.62737317  -0.01320240  1
  O2-  O168  1  0.66442455  0.64885474  0.24018245  1
  O2-  O169  1  0.59662416  0.64857667  0.50932446  1
  O2-  O170  1  0.58560071  0.62589113  0.74761496  1
  O2-  O171  1  0.86892750  0.15178958  -0.00124650  1
  O2-  O172  1  0.85327890  0.13323714  0.25121388  1
  O2-  O173  1  0.84463360  0.12998127  0.49162570  1
  O2-  O174  1  0.87326187  0.13931278  0.74456893  1
  O2-  O175  1  0.89613568  0.63007508  -0.00442320  1
  O2-  O176  1  0.87970217  0.60398179  0.25898221  1
  O2-  O177  1  0.91329436  0.64155986  0.45597250  1
  O2-  O178  1  0.92696913  0.61188470  0.76634844  1
  O2-  O179  1  0.15601432  0.36942210  0.00724157  1
  O2-  O180  1  0.14808439  0.37319296  0.24995789  1
  O2-  O181  1  0.07900669  0.37277978  0.49617496  1
  O2-  O182  1  0.09329695  0.35670022  0.75438684  1
  O2-  O183  1  0.08271734  0.87165893  -0.00197725  1
  O2-  O184  1  0.04865289  0.87150593  0.29023153  1
  O2-  O185  1  0.07887326  0.87854305  0.50370224  1
  O2-  O186  1  0.09140479  0.86494517  0.75834935  1
  O2-  O187  1  0.38312689  0.36582064  -0.00076005  1
  O2-  O188  1  0.33817039  0.38580803  0.24921553  1
  O2-  O189  1  0.33935018  0.37938507  0.49836511  1
  O2-  O190  1  0.35507060  0.38935668  0.74163829  1
  O2-  O191  1  0.40352983  0.86747988  -0.00341011  1
  O2-  O192  1  0.42782419  0.91043129  0.25128350  1
  O2-  O193  1  0.39736031  0.85957356  0.47432174  1
  O2-  O194  1  0.41154672  0.87533999  0.76072761  1
  O2-  O195  1  0.60847154  0.35672234  0.00011327  1
  O2-  O196  1  0.65594833  0.37079547  0.25812810  1
  O2-  O197  1  0.66907043  0.37877331  0.49489366  1
  O2-  O198  1  0.64791452  0.37239495  0.74684505  1
  O2-  O199  1  0.57924513  0.87935063  -0.00446224  1
  O2-  O200  1  0.62287986  0.87230004  0.25498200  1
  O2-  O201  1  0.59534119  0.87230590  0.50566962  1
  O2-  O202  1  0.58818330  0.87465360  0.75255691  1
  O2-  O203  1  0.86665570  0.35036245  0.00032537  1
  O2-  O204  1  0.84658727  0.37059533  0.25088159  1
  O2-  O205  1  0.87282382  0.34884170  0.49633016  1
  O2-  O206  1  0.90586387  0.32870043  0.75498312  1
  O2-  O207  1  0.88707565  0.86086197  0.00655787  1
  O2-  O208  1  0.83378735  0.89879288  0.23258856  1
  O2-  O209  1  0.89373625  0.84741956  0.49759857  1
  O2-  O210  1  0.91307202  0.86977143  0.73398766  1
  O2-  O211  1  0.00170988  0.16396394  0.12041553  1
  O2-  O212  1  0.01666002  0.13196447  0.29407102  1
  O2-  O213  1  0.01115275  0.16164498  0.44921157  1
  O2-  O214  1  -0.00415988  0.10545974  0.62523075  1
  O2-  O215  1  -0.00371728  0.35402058  0.13129954  1
  O2-  O216  1  -0.00435566  0.31453121  0.33736141  1
  O2-  O217  1  -0.01895016  0.46986442  0.37059966  1
  O2-  O218  1  0.00900299  0.30741161  0.89926081  1
  O2-  O219  1  0.24607100  -0.12980126  -0.10950714  1
  O2-  O220  1  0.24002091  -0.12712532  0.35631932  1
  O2-  O221  1  0.24120844  -0.13351387  0.54625514  1
  O2-  O222  1  0.24626069  -0.15098147  0.70578104  1
  O2-  O223  1  0.24706342  0.62779204  -0.10889660  1
  O2-  O224  1  0.25341418  0.63318484  0.35717487  1
  O2-  O225  1  0.24778015  0.65052787  0.56582909  1
  O2-  O226  1  0.24588428  0.56889214  0.69989893  1
  O2-  O227  1  0.49997378  0.15473293  0.13738047  1
  O2-  O228  1  0.49688185  0.13691416  0.35437808  1
  O2-  O229  1  0.53688466  -0.01870444  0.37895740  1
  O2-  O230  1  0.50656017  0.16260565  0.74856314  1
  O2-  O231  1  0.49909859  0.34435063  0.13504630  1
  O2-  O232  1  0.49858110  0.38258772  0.30266539  1
  O2-  O233  1  0.50023715  0.38327116  0.45779453  1
  O2-  O234  1  0.50919198  0.37231275  0.62700218  1
  O2-  O235  1  0.73859164  -0.13191709  -0.10655292  1
  O2-  O236  1  0.74892745  0.10968461  0.11021113  1
  O2-  O237  1  0.74273642  -0.17625034  0.56834141  1
  O2-  O238  1  0.75046434  -0.10367061  0.70503825  1
  O2-  O239  1  0.74510061  0.62185928  -0.12102724  1
  O2-  O240  1  0.74330367  0.39446333  0.10156930  1
  O2-  O241  1  0.75493624  0.61018271  0.55110435  1
  O2-  O242  1  0.74537617  0.67225846  0.70040731  1
