# generated using pymatgen
data_Gd19Ta56(WO20)8
_symmetry_space_group_name_H-M   'P 1'
_cell_length_a   15.59858307
_cell_length_b   15.51937617
_cell_length_c   15.18492367
_cell_angle_alpha   90.05051785
_cell_angle_beta   89.86006711
_cell_angle_gamma   89.34317196
_symmetry_Int_Tables_number   1
_chemical_formula_structural   Gd19Ta56(WO20)8
_chemical_formula_sum   'Gd19 Ta56 W8 O160'
_cell_volume   3675.71652089
_cell_formula_units_Z   1
loop_
 _symmetry_equiv_pos_site_id
 _symmetry_equiv_pos_as_xyz
  1  'x, y, z'
loop_
 _atom_type_symbol
 _atom_type_oxidation_number
  Gd3+  3.0
  Ta5+  5.0
  W6+  6.0
  O2-  -2.0
loop_
 _atom_site_type_symbol
 _atom_site_label
 _atom_site_symmetry_multiplicity
 _atom_site_fract_x
 _atom_site_fract_y
 _atom_site_fract_z
 _atom_site_occupancy
  Gd3+  Gd0  1  -0.04071317  0.75986984  0.24760820  1
  Gd3+  Gd1  1  0.26215697  0.23739327  0.22218078  1
  Gd3+  Gd2  1  0.48295616  0.77938132  0.00615600  1
  Gd3+  Gd3  1  0.75159954  0.24288904  -0.00346290  1
  Gd3+  Gd4  1  -0.00273007  0.76238675  -0.00881273  1
  Gd3+  Gd5  1  0.48889519  0.24098449  0.03284926  1
  Gd3+  Gd6  1  0.29658048  0.70615368  0.23963610  1
  Gd3+  Gd7  1  -0.00576419  0.24610566  0.24074014  1
  Gd3+  Gd8  1  0.52751203  0.75056882  0.51950806  1
  Gd3+  Gd9  1  -0.01972950  0.74370993  0.48649904  1
  Gd3+  Gd10  1  0.73733610  0.27032837  0.26806738  1
  Gd3+  Gd11  1  0.27539254  0.72385909  0.48651187  1
  Gd3+  Gd12  1  0.73886508  0.27433800  0.50780356  1
  Gd3+  Gd13  1  0.03963661  0.24269574  0.52859474  1
  Gd3+  Gd14  1  0.71815581  0.74596937  0.25873795  1
  Gd3+  Gd15  1  0.00433244  0.23740413  -0.01766929  1
  Gd3+  Gd16  1  0.49738817  0.23181249  0.74373054  1
  Gd3+  Gd17  1  0.24952084  0.73955843  0.74126159  1
  Gd3+  Gd18  1  0.73934428  0.74946162  -0.01423886  1
  Ta5+  Ta19  1  0.64460169  0.37590729  0.87727740  1
  Ta5+  Ta20  1  0.40298388  0.58554862  0.37776961  1
  Ta5+  Ta21  1  0.36383809  0.40703753  0.12880856  1
  Ta5+  Ta22  1  0.37543676  0.36889508  0.88201716  1
  Ta5+  Ta23  1  0.87425741  0.12971661  0.83653548  1
  Ta5+  Ta24  1  0.69014442  0.87760811  0.60905684  1
  Ta5+  Ta25  1  0.65323877  0.88188871  0.40308963  1
  Ta5+  Ta26  1  0.14471779  0.86882157  0.36869566  1
  Ta5+  Ta27  1  0.10688772  0.37817094  0.37332746  1
  Ta5+  Ta28  1  0.56895253  0.60771009  0.88755773  1
  Ta5+  Ta29  1  0.89393965  0.62119108  0.87737262  1
  Ta5+  Ta30  1  0.61224889  0.38544844  0.13393229  1
  Ta5+  Ta31  1  0.60624856  0.88987832  0.83538607  1
  Ta5+  Ta32  1  0.12540457  0.12380394  0.86294337  1
  Ta5+  Ta33  1  0.85751025  0.12829259  0.60030800  1
  Ta5+  Ta34  1  0.87176963  0.62233191  0.62572679  1
  Ta5+  Ta35  1  0.13593602  0.61426516  0.61207053  1
  Ta5+  Ta36  1  0.40690127  0.08545756  0.15518096  1
  Ta5+  Ta37  1  0.19089695  0.37129638  0.61431376  1
  Ta5+  Ta38  1  0.89659688  0.10344921  0.37292976  1
  Ta5+  Ta39  1  0.37313638  0.88128358  0.86386730  1
  Ta5+  Ta40  1  0.31908995  0.87199400  0.12251767  1
  Ta5+  Ta41  1  0.87473723  0.62102940  0.10843767  1
  Ta5+  Ta42  1  0.08876584  0.61735437  0.11729440  1
  Ta5+  Ta43  1  0.36683295  0.35237920  0.38231088  1
  Ta5+  Ta44  1  0.11888212  0.37142973  0.11849434  1
  Ta5+  Ta45  1  0.87407099  0.88510861  0.86240343  1
  Ta5+  Ta46  1  0.62261797  0.60994817  0.39215688  1
  Ta5+  Ta47  1  0.12337704  0.87876210  0.86956632  1
  Ta5+  Ta48  1  0.34909777  0.12285074  0.63179232  1
  Ta5+  Ta49  1  0.38754337  0.60284135  0.63655978  1
  Ta5+  Ta50  1  0.35799867  0.12466415  0.88792205  1
  Ta5+  Ta51  1  0.14121653  0.37629332  0.86227026  1
  Ta5+  Ta52  1  0.35519828  0.35715960  0.62848385  1
  Ta5+  Ta53  1  0.64006821  0.12583471  0.13827550  1
  Ta5+  Ta54  1  0.10346440  0.11086886  0.37467974  1
  Ta5+  Ta55  1  0.86817396  0.12074842  0.12073493  1
  Ta5+  Ta56  1  0.56772898  0.94529275  0.19087877  1
  Ta5+  Ta57  1  0.11656793  0.87811389  0.61602978  1
  Ta5+  Ta58  1  0.61347341  0.62111828  0.12848696  1
  Ta5+  Ta59  1  0.13060329  0.62200177  0.87269837  1
  Ta5+  Ta60  1  0.81840860  0.87477851  0.38852942  1
  Ta5+  Ta61  1  0.86822351  0.88303783  0.61120099  1
  Ta5+  Ta62  1  0.11086363  0.88711362  0.13067151  1
  Ta5+  Ta63  1  0.87104799  0.42486761  0.42239837  1
  Ta5+  Ta64  1  0.89251359  0.38375388  0.62506219  1
  Ta5+  Ta65  1  0.62329431  0.38246735  0.65217052  1
  Ta5+  Ta66  1  0.87745989  0.38232572  0.10064277  1
  Ta5+  Ta67  1  0.37304834  0.11313183  0.38667368  1
  Ta5+  Ta68  1  0.84804117  0.38398791  0.85434594  1
  Ta5+  Ta69  1  0.61403436  0.13019487  0.39993487  1
  Ta5+  Ta70  1  0.18479020  0.11845295  0.61511119  1
  Ta5+  Ta71  1  0.63178378  0.62699097  0.65039532  1
  Ta5+  Ta72  1  0.59831886  0.40248737  0.39407735  1
  Ta5+  Ta73  1  0.13928010  0.62340991  0.35385961  1
  Ta5+  Ta74  1  0.37927884  0.86809637  0.37673465  1
  W6+  W75  1  0.85782344  0.61722710  0.36736914  1
  W6+  W76  1  0.63816524  0.11736854  0.86657170  1
  W6+  W77  1  0.12635286  0.09585851  0.12692704  1
  W6+  W78  1  0.37222128  0.87501658  0.62763591  1
  W6+  W79  1  0.83615392  0.88500954  0.11754572  1
  W6+  W80  1  0.69891358  0.12857591  0.65373778  1
  W6+  W81  1  0.40449588  0.61952067  0.85801755  1
  W6+  W82  1  0.45154076  0.61438854  0.12146066  1
  O2-  O83  1  0.04238037  -0.01321786  0.11862369  1
  O2-  O84  1  0.13636166  -0.00641759  0.37665329  1
  O2-  O85  1  0.15912819  -0.01151305  0.59676908  1
  O2-  O86  1  0.14303448  -0.00214879  0.87619453  1
  O2-  O87  1  0.11103090  0.49490427  0.11637127  1
  O2-  O88  1  0.12369838  0.50196495  0.35368398  1
  O2-  O89  1  0.16390058  0.49994700  0.60099770  1
  O2-  O90  1  0.11377086  0.49885699  0.88187325  1
  O2-  O91  1  0.36352352  -0.01336849  0.10234214  1
  O2-  O92  1  0.38057685  -0.00731607  0.39543677  1
  O2-  O93  1  0.37356507  0.00594430  0.63307670  1
  O2-  O94  1  0.34638696  0.00522178  0.87955062  1
  O2-  O95  1  0.33921751  0.51908064  0.11048275  1
  O2-  O96  1  0.35366896  0.47526493  0.38166434  1
  O2-  O97  1  0.38518375  0.48184102  0.62821515  1
  O2-  O98  1  0.40637138  0.48092929  0.87749171  1
  O2-  O99  1  0.66952506  0.00323147  0.15489642  1
  O2-  O100  1  0.63189262  0.01206944  0.39636040  1
  O2-  O101  1  0.69141987  -0.00461179  0.62358323  1
  O2-  O102  1  0.65045859  -0.01608351  0.88773518  1
  O2-  O103  1  0.64579654  0.49977193  0.11286448  1
  O2-  O104  1  0.68006162  0.49360308  0.39679008  1
  O2-  O105  1  0.63107795  0.50131202  0.66840671  1
  O2-  O106  1  0.60284446  0.49236543  0.88686588  1
  O2-  O107  1  0.85373477  0.01121253  0.15969073  1
  O2-  O108  1  0.84828616  -0.00279032  0.36509888  1
  O2-  O109  1  0.87467914  0.01068368  0.60224897  1
  O2-  O110  1  0.87716596  0.00682723  0.85190071  1
  O2-  O111  1  0.84972657  0.50001364  0.11230657  1
  O2-  O112  1  0.85442102  0.48777355  0.32175272  1
  O2-  O113  1  0.91421084  0.50430914  0.64125063  1
  O2-  O114  1  0.89599510  0.49667198  0.86612720  1
  O2-  O115  1  0.08878764  0.24006527  0.12722378  1
  O2-  O116  1  0.06345428  0.25082550  0.37561356  1
  O2-  O117  1  0.15977383  0.24704274  0.62258846  1
  O2-  O118  1  0.09868591  0.26046393  0.85788779  1
  O2-  O119  1  0.05581707  0.75339405  0.12835775  1
  O2-  O120  1  0.18359676  0.74979606  0.34049405  1
  O2-  O121  1  0.16510493  0.75037786  0.61523324  1
  O2-  O122  1  0.16336934  0.75391697  0.86934267  1
  O2-  O123  1  0.39409485  0.21240308  0.14959477  1
  O2-  O124  1  0.32116783  0.23637411  0.35722046  1
  O2-  O125  1  0.41292543  0.23862493  0.61991523  1
  O2-  O126  1  0.43566319  0.24817878  0.88746414  1
  O2-  O127  1  0.38862841  0.76422014  0.12358463  1
  O2-  O128  1  0.38033543  0.73694450  0.36903510  1
  O2-  O129  1  0.34542887  0.73397793  0.62234130  1
  O2-  O130  1  0.41401579  0.76121539  0.86344358  1
  O2-  O131  1  0.59917639  0.25052587  0.14357909  1
  O2-  O132  1  0.64607832  0.27273194  0.39111793  1
  O2-  O133  1  0.68776799  0.27454837  0.65318705  1
  O2-  O134  1  0.65466560  0.25196849  0.87490822  1
  O2-  O135  1  0.67236460  0.73603612  0.12154970  1
  O2-  O136  1  0.62861556  0.73787347  0.39781681  1
  O2-  O137  1  0.63559491  0.74933658  0.62023329  1
  O2-  O138  1  0.61148589  0.80693810  0.92593790  1
  O2-  O139  1  0.90723577  0.24802569  0.10642475  1
  O2-  O140  1  0.81820894  0.32092681  0.38061137  1
  O2-  O141  1  0.89679619  0.26212554  0.57657489  1
  O2-  O142  1  0.85957027  0.25381420  0.88255115  1
  O2-  O143  1  0.87336833  0.74985574  0.08526410  1
  O2-  O144  1  0.87364316  0.75283093  0.38428604  1
  O2-  O145  1  0.88884501  0.74659267  0.61057504  1
  O2-  O146  1  0.87427145  0.75321751  0.89722853  1
  O2-  O147  1  0.10496946  0.12864790  -0.00717793  1
  O2-  O148  1  0.16288009  0.14038620  0.26758982  1
  O2-  O149  1  0.15364911  0.14561504  0.48547613  1
  O2-  O150  1  0.15033762  0.11432923  0.74078350  1
  O2-  O151  1  0.14047973  0.64132460  0.00420119  1
  O2-  O152  1  0.02671028  0.67691501  0.34991789  1
  O2-  O153  1  0.13119827  0.64180949  0.48240039  1
  O2-  O154  1  0.14260323  0.62215381  0.74583361  1
  O2-  O155  1  0.40050800  0.12508618  0.00612651  1
  O2-  O156  1  0.33485490  0.10134591  0.26044432  1
  O2-  O157  1  0.32996330  0.13304532  0.49922160  1
  O2-  O158  1  0.38300952  0.14022408  0.76301584  1
  O2-  O159  1  0.47250024  0.63215738  -0.02166783  1
  O2-  O160  1  0.41313854  0.60888559  0.25667499  1
  O2-  O161  1  0.39950243  0.62261026  0.50205786  1
  O2-  O162  1  0.32368986  0.60987673  0.74445715  1
  O2-  O163  1  0.65049529  0.13823063  0.01046200  1
  O2-  O164  1  0.65129184  0.14498785  0.27493324  1
  O2-  O165  1  0.64728829  0.15119266  0.51762104  1
  O2-  O166  1  0.58861372  0.12297890  0.73984412  1
  O2-  O167  1  0.63663794  0.63834712  -0.00798031  1
  O2-  O168  1  0.62760541  0.61976573  0.25766633  1
  O2-  O169  1  0.60313882  0.61176695  0.51878203  1
  O2-  O170  1  0.62184891  0.64650569  0.78293214  1
  O2-  O171  1  0.99809142  0.13197534  -0.13545371  1
  O2-  O172  1  0.85953467  0.17242704  0.26676967  1
  O2-  O173  1  0.82560090  0.15117466  0.46720533  1
  O2-  O174  1  0.90378879  0.15149810  0.71926968  1
  O2-  O175  1  0.81531241  0.61878538  -0.01917691  1
  O2-  O176  1  0.82849880  0.65387689  0.22541286  1
  O2-  O177  1  0.90527910  0.61406365  0.50156241  1
  O2-  O178  1  0.86216550  0.63602352  0.76048028  1
  O2-  O179  1  0.09519252  0.35777415  -0.00366951  1
  O2-  O180  1  0.14245893  0.34666719  0.25337315  1
  O2-  O181  1  0.15445492  0.35707282  0.48455572  1
  O2-  O182  1  0.16730615  0.38560148  0.74343149  1
  O2-  O183  1  0.11038872  0.86216054  0.00229446  1
  O2-  O184  1  0.07488378  0.86670719  0.25943047  1
  O2-  O185  1  0.09730876  0.84483963  0.48238718  1
  O2-  O186  1  0.13954287  0.87112875  0.74331018  1
  O2-  O187  1  0.39178275  0.35113250  0.01628642  1
  O2-  O188  1  0.34374726  0.36506230  0.24731022  1
  O2-  O189  1  0.33177240  0.34591892  0.50005185  1
  O2-  O190  1  0.37304131  0.34436009  0.75957108  1
  O2-  O191  1  0.34174676  0.85914671  -0.01241314  1
  O2-  O192  1  0.34367322  0.87105081  0.25135818  1
  O2-  O193  1  0.41733489  0.84748019  0.49905321  1
  O2-  O194  1  0.31266017  0.87075010  0.75715923  1
  O2-  O195  1  0.59777692  0.35322365  0.00465526  1
  O2-  O196  1  0.62983840  0.38430102  0.26193347  1
  O2-  O197  1  0.60764575  0.38353508  0.52317085  1
  O2-  O198  1  0.56759956  0.36206264  0.76990174  1
  O2-  O199  1  0.53072279  0.88613087  0.09449334  1
  O2-  O200  1  0.61528215  0.86630390  0.27193356  1
  O2-  O201  1  0.59204970  0.88128699  0.52039386  1
  O2-  O202  1  0.67414174  0.85975903  0.74062414  1
  O2-  O203  1  0.91562443  0.37387568  -0.01707393  1
  O2-  O204  1  0.98578386  0.38298237  0.16342758  1
  O2-  O205  1  0.80258295  0.41243727  0.53380469  1
  O2-  O206  1  0.90689880  0.35259584  0.74679572  1
  O2-  O207  1  0.80540568  0.88782472  -0.03002443  1
  O2-  O208  1  0.83130829  0.84688844  0.25294722  1
  O2-  O209  1  0.90947435  0.87668518  0.49021470  1
  O2-  O210  1  0.85276806  0.86634958  0.74375771  1
  O2-  O211  1  -0.00086463  -0.13078124  -0.13119378  1
  O2-  O212  1  0.00177876  0.10168477  0.29184070  1
  O2-  O213  1  -0.00705848  0.11325834  0.45718673  1
  O2-  O214  1  0.00074251  -0.11739369  0.63375476  1
  O2-  O215  1  -0.02559645  0.61677827  0.02248543  1
  O2-  O216  1  -0.01967782  0.61396883  0.18472783  1
  O2-  O217  1  -0.00959693  0.40157919  0.41101632  1
  O2-  O218  1  0.01288990  0.65837493  0.86481694  1
  O2-  O219  1  0.20530388  -0.03692773  0.13985498  1
  O2-  O220  1  0.22033573  -0.19890630  0.14243184  1
  O2-  O221  1  0.26103486  -0.13374250  0.42581277  1
  O2-  O222  1  0.24537738  0.16290357  0.89188879  1
  O2-  O223  1  0.24215905  0.35643356  0.11113507  1
  O2-  O224  1  0.16451070  0.62951362  0.21673477  1
  O2-  O225  1  0.26922293  0.61615630  0.37126690  1
  O2-  O226  1  0.25507827  0.36574770  0.90344556  1
  O2-  O227  1  0.52490329  0.08872815  0.11183302  1
  O2-  O228  1  0.47725887  0.01180352  0.24335035  1
  O2-  O229  1  0.49094297  0.14416375  0.39273555  1
  O2-  O230  1  0.48736912  -0.08652198  0.81875421  1
  O2-  O231  1  0.48997493  0.39776606  0.14634596  1
  O2-  O232  1  0.51881650  0.52097791  0.38326339  1
  O2-  O233  1  0.48479405  0.34365571  0.38208729  1
  O2-  O234  1  0.50093346  0.63976390  0.65348733  1
  O2-  O235  1  0.85710282  0.12360175  -0.00721213  1
  O2-  O236  1  0.75577626  0.17688619  0.13771870  1
  O2-  O237  1  0.74507061  -0.16890029  0.49473262  1
  O2-  O238  1  0.75341007  0.12446689  0.79446530  1
  O2-  O239  1  0.75462001  0.38511254  -0.04975410  1
  O2-  O240  1  0.75823074  0.34761094  0.13093261  1
  O2-  O241  1  0.75327924  0.61444592  0.62140091  1
  O2-  O242  1  0.74091203  0.39845264  0.78909426  1
