# generated using pymatgen
data_Gd19Ta56(WO20)8
_symmetry_space_group_name_H-M   'P 1'
_cell_length_a   15.45458607
_cell_length_b   15.51689611
_cell_length_c   15.19076574
_cell_angle_alpha   89.96808671
_cell_angle_beta   90.35269476
_cell_angle_gamma   89.93569276
_symmetry_Int_Tables_number   1
_chemical_formula_structural   Gd19Ta56(WO20)8
_chemical_formula_sum   'Gd19 Ta56 W8 O160'
_cell_volume   3642.78320361
_cell_formula_units_Z   1
loop_
 _symmetry_equiv_pos_site_id
 _symmetry_equiv_pos_as_xyz
  1  'x, y, z'
loop_
 _atom_type_symbol
 _atom_type_oxidation_number
  Gd3+  3.0
  Ta5+  5.0
  W6+  6.0
  O2-  -2.0
loop_
 _atom_site_type_symbol
 _atom_site_label
 _atom_site_symmetry_multiplicity
 _atom_site_fract_x
 _atom_site_fract_y
 _atom_site_fract_z
 _atom_site_occupancy
  Gd3+  Gd0  1  -0.03751003  0.77115702  0.02132452  1
  Gd3+  Gd1  1  0.47726359  0.22499193  0.71730832  1
  Gd3+  Gd2  1  0.27027980  0.75917946  0.46949731  1
  Gd3+  Gd3  1  0.02104156  0.77455874  0.24344223  1
  Gd3+  Gd4  1  0.73266609  0.27688273  0.75091474  1
  Gd3+  Gd5  1  0.46987556  0.76710831  0.73895504  1
  Gd3+  Gd6  1  0.26350922  0.75209415  0.23441015  1
  Gd3+  Gd7  1  0.48524359  0.24582963  0.44298216  1
  Gd3+  Gd8  1  0.75239922  0.26487068  -0.00882522  1
  Gd3+  Gd9  1  0.02464094  0.22349399  0.51959366  1
  Gd3+  Gd10  1  0.23121294  0.74280419  0.75396069  1
  Gd3+  Gd11  1  0.20355251  0.75203993  -0.00270102  1
  Gd3+  Gd12  1  0.50849615  0.76308840  0.25631742  1
  Gd3+  Gd13  1  0.01070834  0.22766828  0.26618392  1
  Gd3+  Gd14  1  0.79044951  0.26768955  0.51428492  1
  Gd3+  Gd15  1  0.76487341  0.76321451  0.27910290  1
  Gd3+  Gd16  1  0.50896718  0.76135020  0.01041361  1
  Gd3+  Gd17  1  0.00849948  0.22209015  0.01413387  1
  Gd3+  Gd18  1  -0.01338308  0.74653954  0.76606436  1
  Ta5+  Ta19  1  0.63203825  0.62452033  0.12938275  1
  Ta5+  Ta20  1  0.34806614  0.14095122  0.09869294  1
  Ta5+  Ta21  1  0.11158826  0.59416908  0.59194935  1
  Ta5+  Ta22  1  0.86036370  0.61587853  0.88295332  1
  Ta5+  Ta23  1  0.91547745  0.38254872  0.39174453  1
  Ta5+  Ta24  1  0.09436814  0.90303705  0.63085641  1
  Ta5+  Ta25  1  0.86449897  0.11880849  0.39084714  1
  Ta5+  Ta26  1  0.69457928  0.12898328  0.38139625  1
  Ta5+  Ta27  1  0.61884282  0.62027510  0.86831049  1
  Ta5+  Ta28  1  0.15666585  0.13836186  0.89331405  1
  Ta5+  Ta29  1  0.31658826  0.13461790  0.35849787  1
  Ta5+  Ta30  1  0.08321809  0.56326324  0.12731872  1
  Ta5+  Ta31  1  0.86906229  0.11932633  0.13268086  1
  Ta5+  Ta32  1  0.09997733  0.88277749  0.41743294  1
  Ta5+  Ta33  1  0.62637534  0.13302172  0.87163291  1
  Ta5+  Ta34  1  0.86095189  0.61610415  0.14810583  1
  Ta5+  Ta35  1  0.66097399  0.12416997  0.13095759  1
  Ta5+  Ta36  1  0.39633097  0.92233017  0.38516326  1
  Ta5+  Ta37  1  0.34446697  0.60653624  0.87720370  1
  Ta5+  Ta38  1  0.32604933  0.13257167  0.84205653  1
  Ta5+  Ta39  1  0.14262677  0.58710782  0.89720530  1
  Ta5+  Ta40  1  0.14796929  0.34946821  0.64014595  1
  Ta5+  Ta41  1  0.38512549  0.60874241  0.10991038  1
  Ta5+  Ta42  1  0.37934542  0.38019494  0.59621834  1
  Ta5+  Ta43  1  0.64131716  0.12851298  0.60271147  1
  Ta5+  Ta44  1  0.66582262  0.38100614  0.37772221  1
  Ta5+  Ta45  1  0.14259906  0.90826754  0.12422122  1
  Ta5+  Ta46  1  0.13669522  0.61666589  0.36442531  1
  Ta5+  Ta47  1  0.38503273  0.59310700  0.36603940  1
  Ta5+  Ta48  1  0.15332105  0.11130638  0.38951425  1
  Ta5+  Ta49  1  0.35258874  0.90834136  0.10593825  1
  Ta5+  Ta50  1  0.89917342  0.37693456  0.87314520  1
  Ta5+  Ta51  1  0.63818868  0.36884115  0.13022855  1
  Ta5+  Ta52  1  0.84882527  0.88066534  0.86630062  1
  Ta5+  Ta53  1  0.35163266  0.62439715  0.61776400  1
  Ta5+  Ta54  1  0.87168191  0.13033290  0.86176304  1
  Ta5+  Ta55  1  0.82986525  0.92264298  0.11700905  1
  Ta5+  Ta56  1  0.59975756  0.63326531  0.61389952  1
  Ta5+  Ta57  1  0.91003542  0.61953408  0.61903125  1
  Ta5+  Ta58  1  0.90435036  0.63075302  0.40841748  1
  Ta5+  Ta59  1  0.60705831  0.89136678  0.85966672  1
  Ta5+  Ta60  1  0.88927557  0.88066833  0.45267405  1
  Ta5+  Ta61  1  0.58859144  0.60185234  0.38286158  1
  Ta5+  Ta62  1  0.90571434  0.37794052  0.66434900  1
  Ta5+  Ta63  1  0.06682708  0.36020129  0.86544038  1
  Ta5+  Ta64  1  0.88229507  0.12306473  0.65837130  1
  Ta5+  Ta65  1  0.33152581  0.13820164  0.57750043  1
  Ta5+  Ta66  1  0.58926169  0.88817168  0.61681301  1
  Ta5+  Ta67  1  0.58124972  0.38188854  0.87536767  1
  Ta5+  Ta68  1  0.60015851  0.90579073  0.39700050  1
  Ta5+  Ta69  1  0.88736254  0.37749089  0.13491880  1
  Ta5+  Ta70  1  0.11100191  0.37436466  0.12573353  1
  Ta5+  Ta71  1  0.29829478  0.36553636  0.35369771  1
  Ta5+  Ta72  1  0.65002667  0.90313429  0.11150260  1
  Ta5+  Ta73  1  0.18455519  0.14635758  0.14342505  1
  Ta5+  Ta74  1  0.09582897  0.92111046  0.87289500  1
  W6+  W75  1  0.37117477  0.35637135  0.11535921  1
  W6+  W76  1  0.92594568  0.88113485  0.62174105  1
  W6+  W77  1  0.13517504  0.36487301  0.38308091  1
  W6+  W78  1  0.42051979  0.36383854  0.86299482  1
  W6+  W79  1  0.17196184  0.10080396  0.63391416  1
  W6+  W80  1  0.33285428  0.90222699  0.62221738  1
  W6+  W81  1  0.34694841  0.88313092  0.87916322  1
  W6+  W82  1  0.61760804  0.38306434  0.61045251  1
  O2-  O83  1  0.16868878  0.02742796  0.11409478  1
  O2-  O84  1  0.15827383  -0.01955484  0.38232956  1
  O2-  O85  1  0.20527890  -0.03836498  0.62787305  1
  O2-  O86  1  0.11763506  0.02275248  0.93269979  1
  O2-  O87  1  0.17402879  0.48525959  0.10376672  1
  O2-  O88  1  0.13326463  0.50361211  0.38608679  1
  O2-  O89  1  0.13239419  0.48045712  0.61186801  1
  O2-  O90  1  0.07627874  0.49227463  0.87353760  1
  O2-  O91  1  0.38704364  0.02097215  0.12915970  1
  O2-  O92  1  0.34913818  0.01455217  0.32409086  1
  O2-  O93  1  0.36403611  0.02840119  0.60774135  1
  O2-  O94  1  0.35258381  0.01709552  0.84993187  1
  O2-  O95  1  0.36522514  0.49454027  0.11513668  1
  O2-  O96  1  0.32179205  0.49144008  0.34910475  1
  O2-  O97  1  0.35365949  0.50225719  0.61993691  1
  O2-  O98  1  0.38703388  0.49890372  0.86025014  1
  O2-  O99  1  0.59899192  0.01075052  0.12681028  1
  O2-  O100  1  0.66999386  -0.00034175  0.38324862  1
  O2-  O101  1  0.60370846  0.00880036  0.60466996  1
  O2-  O102  1  0.60645037  0.00963226  0.87251442  1
  O2-  O103  1  0.64277108  0.50648558  0.13098615  1
  O2-  O104  1  0.66844452  0.50830319  0.38417459  1
  O2-  O105  1  0.61475033  0.51425450  0.60170408  1
  O2-  O106  1  0.57392611  0.51093869  0.88909551  1
  O2-  O107  1  0.92371385  0.00992399  0.11049677  1
  O2-  O108  1  0.87183714  -0.00694413  0.40892587  1
  O2-  O109  1  0.91741176  0.01250420  0.64628044  1
  O2-  O110  1  0.86083881  0.00006304  0.86499734  1
  O2-  O111  1  0.84204387  0.50011967  0.14239244  1
  O2-  O112  1  0.91593412  0.50975520  0.39405441  1
  O2-  O113  1  0.92188698  0.49651291  0.64311315  1
  O2-  O114  1  0.90080977  0.50397775  0.89675348  1
  O2-  O115  1  0.09942772  0.24873515  0.14233902  1
  O2-  O116  1  0.09985205  0.23139407  0.38926631  1
  O2-  O117  1  0.11649037  0.22933485  0.64582711  1
  O2-  O118  1  0.09032505  0.23503956  0.85865464  1
  O2-  O119  1  0.14077608  0.77337160  0.14401814  1
  O2-  O120  1  0.15166458  0.78944189  0.34639828  1
  O2-  O121  1  0.22364866  0.63509525  0.63815158  1
  O2-  O122  1  0.10267394  0.70081132  0.86357750  1
  O2-  O123  1  0.41395286  0.23612347  0.13199825  1
  O2-  O124  1  0.36141524  0.25374710  0.35681975  1
  O2-  O125  1  0.41768561  0.24907737  0.57698812  1
  O2-  O126  1  0.41437510  0.22528835  0.84907332  1
  O2-  O127  1  0.40586213  0.81040471  0.16065781  1
  O2-  O128  1  0.25852187  0.65517674  0.35060665  1
  O2-  O129  1  0.33317715  0.75578082  0.60734476  1
  O2-  O130  1  0.31640472  0.73986347  0.89327147  1
  O2-  O131  1  0.62404188  0.24470690  0.13000074  1
  O2-  O132  1  0.69083350  0.25543821  0.38529600  1
  O2-  O133  1  0.66984239  0.25850557  0.60760785  1
  O2-  O134  1  0.64026224  0.26289214  0.87684246  1
  O2-  O135  1  0.60502596  0.78278865  0.13808743  1
  O2-  O136  1  0.63957376  0.80465799  0.33440486  1
  O2-  O137  1  0.59556082  0.75695851  0.64744582  1
  O2-  O138  1  0.56268619  0.73424094  0.86690184  1
  O2-  O139  1  0.91747181  0.24442021  0.13927430  1
  O2-  O140  1  0.91282151  0.24741046  0.38727071  1
  O2-  O141  1  0.85031756  0.25789799  0.65624624  1
  O2-  O142  1  0.83588648  0.26082241  0.86336764  1
  O2-  O143  1  0.98178818  0.65250960  0.15406956  1
  O2-  O144  1  0.85698847  0.75872182  0.40113984  1
  O2-  O145  1  0.92930928  0.74076085  0.62296162  1
  O2-  O146  1  0.89015320  0.73984952  0.89180636  1
  O2-  O147  1  0.16299065  0.17528310  0.01490575  1
  O2-  O148  1  0.11494164  0.12054999  0.26320600  1
  O2-  O149  1  0.10120016  0.10017182  0.51137388  1
  O2-  O150  1  0.20562322  0.10869222  0.77873714  1
  O2-  O151  1  0.09143477  0.63001342  0.01895439  1
  O2-  O152  1  0.13660500  0.61476789  0.22899722  1
  O2-  O153  1  0.15464410  0.65713805  0.48472085  1
  O2-  O154  1  0.03910248  0.62517913  0.68659244  1
  O2-  O155  1  0.33524415  0.13895726  -0.02286570  1
  O2-  O156  1  0.28810476  0.15149498  0.22597180  1
  O2-  O157  1  0.40635373  0.12332002  0.46116302  1
  O2-  O158  1  0.34163337  0.16968241  0.70557330  1
  O2-  O159  1  0.42091677  0.63301110  -0.01432682  1
  O2-  O160  1  0.38481373  0.63638286  0.24256610  1
  O2-  O161  1  0.35213825  0.62613968  0.48750339  1
  O2-  O162  1  0.37546391  0.65109089  0.75167699  1
  O2-  O163  1  0.66345883  0.13768624  -0.00313842  1
  O2-  O164  1  0.68559286  0.12548418  0.25417867  1
  O2-  O165  1  0.59973956  0.14645588  0.48427542  1
  O2-  O166  1  0.60676243  0.14599587  0.73640041  1
  O2-  O167  1  0.62384312  0.64974269  0.00644832  1
  O2-  O168  1  0.62392686  0.64336801  0.26704569  1
  O2-  O169  1  0.62845779  0.65466807  0.48977759  1
  O2-  O170  1  0.62488400  0.61798014  0.74471614  1
  O2-  O171  1  0.86222698  0.15275342  -0.00318094  1
  O2-  O172  1  0.87885801  0.11882471  0.25951574  1
  O2-  O173  1  0.88738286  0.14806887  0.52515418  1
  O2-  O174  1  0.94813900  0.14950637  0.76756740  1
  O2-  O175  1  0.87377420  0.63874090  0.02155227  1
  O2-  O176  1  0.85443489  0.63724810  0.28191878  1
  O2-  O177  1  0.83412686  0.62100481  0.51615906  1
  O2-  O178  1  0.87862201  0.63055937  0.75708062  1
  O2-  O179  1  0.08215848  0.35152339  -0.00259928  1
  O2-  O180  1  0.10272032  0.37571010  0.24933525  1
  O2-  O181  1  0.10659317  0.34482261  0.51851198  1
  O2-  O182  1  0.14648302  0.37780329  0.76070540  1
  O2-  O183  1  0.08665828  0.86253359  0.01207864  1
  O2-  O184  1  0.05778437  0.91086545  0.20767617  1
  O2-  O185  1  0.15015584  0.83407986  0.52192151  1
  O2-  O186  1  0.10935749  0.79653823  0.69281239  1
  O2-  O187  1  0.39950995  0.35839782  -0.00205079  1
  O2-  O188  1  0.30910657  0.35742009  0.22866956  1
  O2-  O189  1  0.37679173  0.37819771  0.47007495  1
  O2-  O190  1  0.42816835  0.36300798  0.71492651  1
  O2-  O191  1  0.41935067  0.87986755  0.00282499  1
  O2-  O192  1  0.35550814  0.81130546  0.34334414  1
  O2-  O193  1  0.32093304  0.90049931  0.48208023  1
  O2-  O194  1  0.33520941  0.84648169  0.74812915  1
  O2-  O195  1  0.62998847  0.37515712  0.00131128  1
  O2-  O196  1  0.62606506  0.37752344  0.26060146  1
  O2-  O197  1  0.58375467  0.36368837  0.46958942  1
  O2-  O198  1  0.62291303  0.38206957  0.75431523  1
  O2-  O199  1  0.60824305  0.87073750  -0.00921239  1
  O2-  O200  1  0.74183697  0.88978499  0.20556247  1
  O2-  O201  1  0.63659960  0.85395399  0.50604876  1
  O2-  O202  1  0.63476641  0.89250443  0.73565022  1
  O2-  O203  1  0.88914349  0.35091937  0.00520154  1
  O2-  O204  1  0.91105577  0.37432322  0.26169246  1
  O2-  O205  1  0.91424512  0.35575922  0.52611618  1
  O2-  O206  1  0.81890527  0.39937569  0.75656442  1
  O2-  O207  1  0.86063158  0.87256589  0.00185604  1
  O2-  O208  1  0.89667111  0.80739657  0.15779992  1
  O2-  O209  1  0.80838868  0.87029912  0.54282281  1
  O2-  O210  1  0.86936078  0.84657838  0.74934382  1
  O2-  O211  1  -0.01338801  -0.13739580  -0.12107672  1
  O2-  O212  1  -0.00972969  -0.14610694  0.36474085  1
  O2-  O213  1  0.01386498  -0.07389604  0.51247559  1
  O2-  O214  1  0.08130287  -0.04704164  0.75437744  1
  O2-  O215  1  0.00545029  0.46312872  0.11987155  1
  O2-  O216  1  0.01780765  0.66435668  0.35584542  1
  O2-  O217  1  -0.00265110  0.60777089  0.52068375  1
  O2-  O218  1  -0.02390648  0.34161488  0.76320374  1
  O2-  O219  1  0.25405068  -0.11488566  0.03045273  1
  O2-  O220  1  0.25382340  -0.10519857  0.19540730  1
  O2-  O221  1  0.25012087  0.16621564  0.47441603  1
  O2-  O222  1  0.19998802  -0.14214006  0.86476915  1
  O2-  O223  1  0.25074034  0.58420467  -0.03358139  1
  O2-  O224  1  0.28788748  0.68305329  0.10265344  1
  O2-  O225  1  0.26714987  0.34071575  0.62011109  1
  O2-  O226  1  0.22884738  0.59637847  0.80600349  1
  O2-  O227  1  0.48492403  -0.12505047  -0.15955634  1
  O2-  O228  1  0.50276702  -0.09931705  0.30547646  1
  O2-  O229  1  0.49555897  -0.05854475  0.46297430  1
  O2-  O230  1  0.47032802  -0.12620956  0.63308097  1
  O2-  O231  1  0.50605318  0.64969355  0.13283065  1
  O2-  O232  1  0.48538819  0.68440941  0.37921124  1
  O2-  O233  1  0.49076455  0.52415592  0.38166470  1
  O2-  O234  1  0.47860202  0.63495663  0.61441041  1
  O2-  O235  1  0.73032470  -0.14832045  -0.12688086  1
  O2-  O236  1  0.76536050  0.03894997  0.11016395  1
  O2-  O237  1  0.75739797  0.10968930  0.64225972  1
  O2-  O238  1  0.74599603  0.12685800  0.83950784  1
  O2-  O239  1  0.74877530  0.67578770  0.14971075  1
  O2-  O240  1  0.76319339  0.34757442  0.13077151  1
  O2-  O241  1  0.78913239  0.38354617  0.39985626  1
  O2-  O242  1  0.74045278  0.60978773  0.88408546  1
