# generated using pymatgen
data_Gd19Ta56(WO20)8
_symmetry_space_group_name_H-M   'P 1'
_cell_length_a   15.69430586
_cell_length_b   15.62133520
_cell_length_c   15.20917340
_cell_angle_alpha   90.05850611
_cell_angle_beta   89.95736032
_cell_angle_gamma   89.88339181
_symmetry_Int_Tables_number   1
_chemical_formula_structural   Gd19Ta56(WO20)8
_chemical_formula_sum   'Gd19 Ta56 W8 O160'
_cell_volume   3728.76169282
_cell_formula_units_Z   1
loop_
 _symmetry_equiv_pos_site_id
 _symmetry_equiv_pos_as_xyz
  1  'x, y, z'
loop_
 _atom_type_symbol
 _atom_type_oxidation_number
  Gd3+  3.0
  Ta5+  5.0
  W6+  6.0
  O2-  -2.0
loop_
 _atom_site_type_symbol
 _atom_site_label
 _atom_site_symmetry_multiplicity
 _atom_site_fract_x
 _atom_site_fract_y
 _atom_site_fract_z
 _atom_site_occupancy
  Gd3+  Gd0  1  0.00305064  0.75979309  0.50496359  1
  Gd3+  Gd1  1  0.49515677  0.75112153  0.23666866  1
  Gd3+  Gd2  1  0.24780594  0.25117720  0.23857651  1
  Gd3+  Gd3  1  0.76640133  0.24238082  0.48994354  1
  Gd3+  Gd4  1  0.01365207  0.24935111  -0.01519480  1
  Gd3+  Gd5  1  0.50354137  0.24927684  0.24309130  1
  Gd3+  Gd6  1  0.00073404  0.75291442  0.00571917  1
  Gd3+  Gd7  1  0.24703377  0.25238730  0.74815902  1
  Gd3+  Gd8  1  0.75357439  0.24617573  0.25331831  1
  Gd3+  Gd9  1  0.74578143  0.24656299  0.00692163  1
  Gd3+  Gd10  1  0.49662837  0.75182449  -0.01525735  1
  Gd3+  Gd11  1  -0.00587841  0.75506521  0.74966336  1
  Gd3+  Gd12  1  0.42964510  0.25544009  -0.00187972  1
  Gd3+  Gd13  1  0.78356983  0.73413872  0.50351901  1
  Gd3+  Gd14  1  0.78337763  0.74932654  0.27752753  1
  Gd3+  Gd15  1  0.48104617  0.24624733  0.52711473  1
  Gd3+  Gd16  1  0.48612908  0.76626652  0.54047370  1
  Gd3+  Gd17  1  0.24519406  0.25002903  0.50085204  1
  Gd3+  Gd18  1  0.00848381  0.75655931  0.24955696  1
  Ta5+  Ta19  1  0.83972570  0.88145393  0.62885455  1
  Ta5+  Ta20  1  0.12499272  0.62116802  0.62332308  1
  Ta5+  Ta21  1  0.62437486  0.38481970  0.11517310  1
  Ta5+  Ta22  1  0.85961586  0.87628514  0.87680573  1
  Ta5+  Ta23  1  0.15466412  0.38136677  0.88996373  1
  Ta5+  Ta24  1  0.67289376  0.87433064  0.60838942  1
  Ta5+  Ta25  1  0.31661414  0.87419187  0.63677805  1
  Ta5+  Ta26  1  0.62675178  0.62606667  0.60709672  1
  Ta5+  Ta27  1  0.89396620  0.60406670  0.37445699  1
  Ta5+  Ta28  1  0.11339562  0.37788445  0.62461482  1
  Ta5+  Ta29  1  0.37902436  0.39427434  0.14525338  1
  Ta5+  Ta30  1  0.87255730  0.11170013  0.12883750  1
  Ta5+  Ta31  1  0.13103390  0.88915493  0.37771144  1
  Ta5+  Ta32  1  0.86950557  0.38027635  0.13210572  1
  Ta5+  Ta33  1  0.88800936  0.89577861  0.37832581  1
  Ta5+  Ta34  1  0.09962023  0.12115758  0.14407655  1
  Ta5+  Ta35  1  0.63089824  0.87496349  0.85445494  1
  Ta5+  Ta36  1  0.84086845  0.37304852  0.87703366  1
  Ta5+  Ta37  1  0.36793775  0.10738946  0.63655237  1
  Ta5+  Ta38  1  0.31515617  0.11600181  0.88820746  1
  Ta5+  Ta39  1  0.61683393  0.11929930  0.11444912  1
  Ta5+  Ta40  1  0.61368237  0.11748311  0.37541038  1
  Ta5+  Ta41  1  0.64027311  0.62758287  0.85445794  1
  Ta5+  Ta42  1  0.37698016  0.38770171  0.63403546  1
  Ta5+  Ta43  1  0.64035228  0.62189779  0.38080053  1
  Ta5+  Ta44  1  0.40621468  0.11051880  0.38487436  1
  Ta5+  Ta45  1  0.13499608  0.62383624  0.37245563  1
  Ta5+  Ta46  1  0.35285381  0.87491084  0.87690134  1
  Ta5+  Ta47  1  0.61780545  0.38016548  0.37674599  1
  Ta5+  Ta48  1  0.09919804  0.37796973  0.14630792  1
  Ta5+  Ta49  1  0.64226761  0.88218856  0.10832084  1
  Ta5+  Ta50  1  0.10836851  0.12898093  0.36480535  1
  Ta5+  Ta51  1  0.87824603  0.36206787  0.63075554  1
  Ta5+  Ta52  1  0.61928256  0.38017032  0.61076550  1
  Ta5+  Ta53  1  0.36542075  0.63186847  0.64692336  1
  Ta5+  Ta54  1  0.64001695  0.87625106  0.37736110  1
  Ta5+  Ta55  1  0.14766164  0.88283540  0.12359171  1
  Ta5+  Ta56  1  0.15066650  0.87272294  0.62953497  1
  Ta5+  Ta57  1  0.87914001  0.11995270  0.62640397  1
  Ta5+  Ta58  1  0.84052415  0.12297335  0.87331859  1
  Ta5+  Ta59  1  0.11179883  0.38003554  0.36602179  1
  Ta5+  Ta60  1  0.36753943  0.86942880  0.38362969  1
  Ta5+  Ta61  1  0.41017425  0.38886653  0.38561899  1
  Ta5+  Ta62  1  0.37525139  0.62219462  0.87359452  1
  Ta5+  Ta63  1  0.12733284  0.87945295  0.87813878  1
  Ta5+  Ta64  1  0.85160336  0.62049282  0.11656092  1
  Ta5+  Ta65  1  0.61678812  0.11243070  0.61278987  1
  Ta5+  Ta66  1  0.12182927  0.11569877  0.62425780  1
  Ta5+  Ta67  1  0.34551787  0.87721128  0.12010403  1
  Ta5+  Ta68  1  0.37368360  0.63312460  0.38908087  1
  Ta5+  Ta69  1  0.67277496  0.12196098  0.85787020  1
  Ta5+  Ta70  1  0.84638818  0.88217852  0.11548707  1
  Ta5+  Ta71  1  0.14931780  0.12322190  0.88652053  1
  Ta5+  Ta72  1  0.64823646  0.62435273  0.09864384  1
  Ta5+  Ta73  1  0.14930805  0.60896006  0.12522524  1
  Ta5+  Ta74  1  0.67486929  0.37800808  0.85771313  1
  W6+  W75  1  0.87040646  0.61147417  0.63312396  1
  W6+  W76  1  0.91100788  0.11875494  0.36565621  1
  W6+  W77  1  0.87949619  0.61785899  0.88012492  1
  W6+  W78  1  0.34192380  0.63231975  0.11985488  1
  W6+  W79  1  0.91341397  0.36453861  0.37011163  1
  W6+  W80  1  0.36781669  0.11541180  0.14356296  1
  W6+  W81  1  0.31406796  0.38980589  0.88774080  1
  W6+  W82  1  0.12475959  0.62468943  0.87888155  1
  O2-  O83  1  0.10456977  -0.00211471  0.13500223  1
  O2-  O84  1  0.13905097  0.01000014  0.37816006  1
  O2-  O85  1  0.14176909  -0.00113593  0.62739084  1
  O2-  O86  1  0.13156101  -0.00054621  0.87930279  1
  O2-  O87  1  0.09072806  0.50047207  0.14253818  1
  O2-  O88  1  0.13668980  0.50077645  0.37515712  1
  O2-  O89  1  0.09960793  0.49857767  0.62152071  1
  O2-  O90  1  0.12226333  0.49473756  0.88287295  1
  O2-  O91  1  0.38851110  -0.01632355  0.14409519  1
  O2-  O92  1  0.38637858  -0.00894917  0.39012899  1
  O2-  O93  1  0.32400509  0.00154664  0.60985309  1
  O2-  O94  1  0.33289919  -0.00261341  0.89176044  1
  O2-  O95  1  0.38685376  0.50928112  0.15289404  1
  O2-  O96  1  0.38999166  0.51007975  0.39393933  1
  O2-  O97  1  0.37232025  0.50332186  0.61666450  1
  O2-  O98  1  0.31008175  0.52517737  0.87572155  1
  O2-  O99  1  0.60189623  -0.00699780  0.13422935  1
  O2-  O100  1  0.62593440  -0.00276484  0.37207607  1
  O2-  O101  1  0.62664055  -0.00520011  0.60329404  1
  O2-  O102  1  0.63605454  -0.00481460  0.85872285  1
  O2-  O103  1  0.61102149  0.51377735  0.12929473  1
  O2-  O104  1  0.63190694  0.50073996  0.37916286  1
  O2-  O105  1  0.60909868  0.49919547  0.59564507  1
  O2-  O106  1  0.64586628  0.50661618  0.85812261  1
  O2-  O107  1  0.89900800  -0.00902743  0.13481731  1
  O2-  O108  1  0.95881039  -0.01185499  0.37409423  1
  O2-  O109  1  0.84104468  0.00649042  0.63838149  1
  O2-  O110  1  0.85650253  -0.00417498  0.87708701  1
  O2-  O111  1  0.87703928  0.50415088  0.13967966  1
  O2-  O112  1  0.94136053  0.49932824  0.36587398  1
  O2-  O113  1  0.86139659  0.47828115  0.63603500  1
  O2-  O114  1  0.86737448  0.48831313  0.87781219  1
  O2-  O115  1  0.12323295  0.25038480  0.15116652  1
  O2-  O116  1  0.16386244  0.25425993  0.36776235  1
  O2-  O117  1  0.16014228  0.24945884  0.62293898  1
  O2-  O118  1  0.11828008  0.25540746  0.87808769  1
  O2-  O119  1  0.08980510  0.76872183  0.13182008  1
  O2-  O120  1  0.09286907  0.75395068  0.37579572  1
  O2-  O121  1  0.09849636  0.74863223  0.61725377  1
  O2-  O122  1  0.08078252  0.75440667  0.87514915  1
  O2-  O123  1  0.37128150  0.25561810  0.15273224  1
  O2-  O124  1  0.42577582  0.25309689  0.38051511  1
  O2-  O125  1  0.35183223  0.24836862  0.63227216  1
  O2-  O126  1  0.33734180  0.24885492  0.88094610  1
  O2-  O127  1  0.40331885  0.76225637  0.12025728  1
  O2-  O128  1  0.43560618  0.75474208  0.39334237  1
  O2-  O129  1  0.36561736  0.75393355  0.65013426  1
  O2-  O130  1  0.39083859  0.75001874  0.86955440  1
  O2-  O131  1  0.64386333  0.25315786  0.11983985  1
  O2-  O132  1  0.61858108  0.24894929  0.37209434  1
  O2-  O133  1  0.61312136  0.24864706  0.58929998  1
  O2-  O134  1  0.67071800  0.25114810  0.86397953  1
  O2-  O135  1  0.59620307  0.74483587  0.11581028  1
  O2-  O136  1  0.67889922  0.74928226  0.38879497  1
  O2-  O137  1  0.66325780  0.74482757  0.59191212  1
  O2-  O138  1  0.58390596  0.75278604  0.86137556  1
  O2-  O139  1  0.83684246  0.24647133  0.12987626  1
  O2-  O140  1  0.84991618  0.24204689  0.36532899  1
  O2-  O141  1  0.82548758  0.23772839  0.62388475  1
  O2-  O142  1  0.87889327  0.24625293  0.91574375  1
  O2-  O143  1  0.88169706  0.75268053  0.11817155  1
  O2-  O144  1  0.89407449  0.75311842  0.38730641  1
  O2-  O145  1  0.89106220  0.75285159  0.61852672  1
  O2-  O146  1  0.91010479  0.75531708  0.88044200  1
  O2-  O147  1  0.12802570  0.13611173  0.01822713  1
  O2-  O148  1  0.17936438  0.12210401  0.24355439  1
  O2-  O149  1  0.16714219  0.12856546  0.50336249  1
  O2-  O150  1  0.15010829  0.13359204  0.74747805  1
  O2-  O151  1  0.10512521  0.64702012  0.01522800  1
  O2-  O152  1  0.08262168  0.62789686  0.25902995  1
  O2-  O153  1  0.08759997  0.62962616  0.49086681  1
  O2-  O154  1  0.10000487  0.63504151  0.74340032  1
  O2-  O155  1  0.35490972  0.13442374  0.00907830  1
  O2-  O156  1  0.33794109  0.13631212  0.28645963  1
  O2-  O157  1  0.35664010  0.14493509  0.50008862  1
  O2-  O158  1  0.33605103  0.12011281  0.75531358  1
  O2-  O159  1  0.41582079  0.62516809  -0.00651692  1
  O2-  O160  1  0.39795435  0.64483909  0.26871685  1
  O2-  O161  1  0.39782007  0.64606251  0.51673557  1
  O2-  O162  1  0.42392139  0.61185353  0.75403371  1
  O2-  O163  1  0.64589395  0.12108254  -0.00638713  1
  O2-  O164  1  0.64930768  0.13544189  0.24498644  1
  O2-  O165  1  0.67433504  0.12443164  0.49190883  1
  O2-  O166  1  0.66672290  0.12746599  0.72156183  1
  O2-  O167  1  0.59768256  0.63418687  -0.01752653  1
  O2-  O168  1  0.58660868  0.64188557  0.27436974  1
  O2-  O169  1  0.57143960  0.64276695  0.48274754  1
  O2-  O170  1  0.61942947  0.63223344  0.72911235  1
  O2-  O171  1  0.82329518  0.11371160  0.01502308  1
  O2-  O172  1  0.82761754  0.11254517  0.24530528  1
  O2-  O173  1  0.85560033  0.12158969  0.50041070  1
  O2-  O174  1  0.87256086  0.13698157  0.75598358  1
  O2-  O175  1  0.92224487  0.62409746  0.01511535  1
  O2-  O176  1  0.89694975  0.64571151  0.24738280  1
  O2-  O177  1  0.89838974  0.62643038  0.49993257  1
  O2-  O178  1  0.91400818  0.63234641  0.75304452  1
  O2-  O179  1  0.13094023  0.36663028  0.02014490  1
  O2-  O180  1  0.18322294  0.38324285  0.24159215  1
  O2-  O181  1  0.17568701  0.37800675  0.51351274  1
  O2-  O182  1  0.14871665  0.37064223  0.74645496  1
  O2-  O183  1  0.09046826  0.87330836  0.00293619  1
  O2-  O184  1  0.08850695  0.88138406  0.25969357  1
  O2-  O185  1  0.09479410  0.87641832  0.49833600  1
  O2-  O186  1  0.10718599  0.86940817  0.75085637  1
  O2-  O187  1  0.34246837  0.37429740  0.02803948  1
  O2-  O188  1  0.34803208  0.37286737  0.27475753  1
  O2-  O189  1  0.35803794  0.35758643  0.50376381  1
  O2-  O190  1  0.32614646  0.38119581  0.74415345  1
  O2-  O191  1  0.40425527  0.87130404  -0.00331476  1
  O2-  O192  1  0.39990444  0.86063633  0.26328352  1
  O2-  O193  1  0.37873681  0.86040962  0.51245071  1
  O2-  O194  1  0.35612310  0.89270741  0.75382721  1
  O2-  O195  1  0.64737123  0.38132070  -0.00653398  1
  O2-  O196  1  0.65538927  0.36789153  0.24851676  1
  O2-  O197  1  0.68030215  0.36877515  0.49259643  1
  O2-  O198  1  0.66913151  0.37460157  0.72026140  1
  O2-  O199  1  0.59652903  0.86683080  -0.00675573  1
  O2-  O200  1  0.59645920  0.85722533  0.25972779  1
  O2-  O201  1  0.58568346  0.86232886  0.48927486  1
  O2-  O202  1  0.65189580  0.86363820  0.73243925  1
  O2-  O203  1  0.82305925  0.37785394  0.01633692  1
  O2-  O204  1  0.83245266  0.37348302  0.25138680  1
  O2-  O205  1  0.85781134  0.35555471  0.50333595  1
  O2-  O206  1  0.86167664  0.34353896  0.75455455  1
  O2-  O207  1  0.90431335  0.87309157  0.00295205  1
  O2-  O208  1  0.89241719  0.85861394  0.24785980  1
  O2-  O209  1  0.88849412  0.87805279  0.50512663  1
  O2-  O210  1  0.88605553  0.86795306  0.75340809  1
  O2-  O211  1  -0.01664122  0.15469589  0.09867980  1
  O2-  O212  1  0.02376087  0.12587617  0.26937664  1
  O2-  O213  1  0.01847821  0.15984509  0.43623450  1
  O2-  O214  1  0.00178422  0.12374166  0.62485746  1
  O2-  O215  1  -0.01742353  0.34632054  0.09840188  1
  O2-  O216  1  0.02773693  0.36704611  0.27386385  1
  O2-  O217  1  0.02695852  0.35555885  0.44577947  1
  O2-  O218  1  -0.00061343  0.34199814  0.62921790  1
  O2-  O219  1  0.24613555  -0.09028819  0.04824436  1
  O2-  O220  1  0.24572740  -0.14881264  0.19492648  1
  O2-  O221  1  0.24807860  -0.14298387  0.38145425  1
  O2-  O222  1  0.23895032  -0.16394309  0.88305734  1
  O2-  O223  1  0.24158172  0.55914943  0.06890891  1
  O2-  O224  1  0.23248294  0.66127491  0.19902416  1
  O2-  O225  1  0.25346245  0.64759471  0.39131262  1
  O2-  O226  1  0.24224130  0.62631122  0.61891067  1
  O2-  O227  1  0.50150644  0.15817372  0.11424633  1
  O2-  O228  1  0.50372633  0.11397629  0.30236157  1
  O2-  O229  1  0.51717269  0.11825644  0.46340876  1
  O2-  O230  1  0.49402165  0.12641611  0.63610791  1
  O2-  O231  1  0.49955741  0.36062462  0.12319558  1
  O2-  O232  1  0.50812657  0.38744465  0.30519963  1
  O2-  O233  1  0.51906275  0.37903426  0.46720100  1
  O2-  O234  1  0.49594789  0.36383299  0.64363690  1
  O2-  O235  1  0.74629358  -0.07217752  0.05358882  1
  O2-  O236  1  0.73975019  -0.16282092  0.17679971  1
  O2-  O237  1  0.76228996  -0.11060798  0.36824482  1
  O2-  O238  1  0.74583222  -0.15503585  0.88879452  1
  O2-  O239  1  0.75404897  0.59939894  0.03715597  1
  O2-  O240  1  0.73898707  0.64912203  0.18643856  1
  O2-  O241  1  0.76731094  0.61455105  0.37532651  1
  O2-  O242  1  0.75168686  0.65722727  0.85930868  1
