# generated using pymatgen
data_Gd19Ta56(WO20)8
_symmetry_space_group_name_H-M   'P 1'
_cell_length_a   15.56452836
_cell_length_b   15.43635911
_cell_length_c   15.39504892
_cell_angle_alpha   89.99519205
_cell_angle_beta   89.94474650
_cell_angle_gamma   90.10962772
_symmetry_Int_Tables_number   1
_chemical_formula_structural   Gd19Ta56(WO20)8
_chemical_formula_sum   'Gd19 Ta56 W8 O160'
_cell_volume   3698.80054753
_cell_formula_units_Z   1
loop_
 _symmetry_equiv_pos_site_id
 _symmetry_equiv_pos_as_xyz
  1  'x, y, z'
loop_
 _atom_type_symbol
 _atom_type_oxidation_number
  Gd3+  3.0
  Ta5+  5.0
  W6+  6.0
  O2-  -2.0
loop_
 _atom_site_type_symbol
 _atom_site_label
 _atom_site_symmetry_multiplicity
 _atom_site_fract_x
 _atom_site_fract_y
 _atom_site_fract_z
 _atom_site_occupancy
  Gd3+  Gd0  1  0.76280380  0.73788649  0.01063886  1
  Gd3+  Gd1  1  0.75241047  0.24417811  0.50432714  1
  Gd3+  Gd2  1  0.49760584  0.24617314  -0.00934430  1
  Gd3+  Gd3  1  0.52006695  0.24807482  0.51540361  1
  Gd3+  Gd4  1  0.72832128  0.74836570  0.25965640  1
  Gd3+  Gd5  1  0.75461433  0.23842827  0.76335151  1
  Gd3+  Gd6  1  0.01475442  0.25593013  -0.02683166  1
  Gd3+  Gd7  1  0.26462760  0.23496092  0.50033328  1
  Gd3+  Gd8  1  0.01456221  0.74494446  -0.02995547  1
  Gd3+  Gd9  1  -0.04653665  0.77350734  0.54011585  1
  Gd3+  Gd10  1  0.74905356  0.24369152  0.00153891  1
  Gd3+  Gd11  1  0.48427307  0.74680085  -0.02649228  1
  Gd3+  Gd12  1  0.24787349  0.26393741  -0.01138318  1
  Gd3+  Gd13  1  0.77953980  0.24827092  0.26229985  1
  Gd3+  Gd14  1  0.25548400  0.76182778  0.25901366  1
  Gd3+  Gd15  1  0.02187985  0.23465276  0.52150391  1
  Gd3+  Gd16  1  0.73459888  0.73886070  0.71798254  1
  Gd3+  Gd17  1  0.24835000  0.75134112  0.01080859  1
  Gd3+  Gd18  1  0.26528776  0.26960504  0.25272054  1
  Ta5+  Ta19  1  0.63628074  0.38120167  0.87577436  1
  Ta5+  Ta20  1  0.61176226  0.11165183  0.86115812  1
  Ta5+  Ta21  1  0.91139352  0.62658347  0.13637358  1
  Ta5+  Ta22  1  0.33641115  0.87631659  0.86856714  1
  Ta5+  Ta23  1  0.37669349  0.62535025  0.13057109  1
  Ta5+  Ta24  1  0.40835950  0.86537867  0.63175521  1
  Ta5+  Ta25  1  0.33949055  0.62191568  0.86488737  1
  Ta5+  Ta26  1  0.42339412  0.85651970  0.38134791  1
  Ta5+  Ta27  1  0.63322201  0.11492288  0.37631809  1
  Ta5+  Ta28  1  0.15226515  0.62203445  0.37734870  1
  Ta5+  Ta29  1  0.12892207  0.11881261  0.11728084  1
  Ta5+  Ta30  1  0.41625136  0.39260251  0.37177438  1
  Ta5+  Ta31  1  0.80547018  0.92945428  0.63031988  1
  Ta5+  Ta32  1  0.12534102  0.12514614  0.36951970  1
  Ta5+  Ta33  1  0.56065368  0.63906644  0.62420010  1
  Ta5+  Ta34  1  0.40271376  0.63978641  0.38086116  1
  Ta5+  Ta35  1  0.40882087  0.38222988  0.12831189  1
  Ta5+  Ta36  1  0.87009147  0.87316208  0.12732910  1
  Ta5+  Ta37  1  0.60380789  0.62039102  0.12801143  1
  Ta5+  Ta38  1  0.11512060  0.87031694  0.12822077  1
  Ta5+  Ta39  1  0.84185530  0.05504177  0.88496926  1
  Ta5+  Ta40  1  0.64750792  0.07728917  0.62414957  1
  Ta5+  Ta41  1  0.13003390  0.59849171  0.12305816  1
  Ta5+  Ta42  1  0.37659233  0.12126650  0.13356688  1
  Ta5+  Ta43  1  0.14461131  0.10946673  0.85308472  1
  Ta5+  Ta44  1  0.92626201  0.40163334  0.12848237  1
  Ta5+  Ta45  1  0.36922783  0.12295730  0.87373573  1
  Ta5+  Ta46  1  0.41150814  0.10471295  0.35562905  1
  Ta5+  Ta47  1  0.13168771  0.39373431  0.12998977  1
  Ta5+  Ta48  1  0.39302810  0.87542023  0.12936780  1
  Ta5+  Ta49  1  0.89036935  0.38499536  0.42704072  1
  Ta5+  Ta50  1  0.57591861  0.85294933  0.62283120  1
  Ta5+  Ta51  1  0.85953426  0.60209830  0.63384122  1
  Ta5+  Ta52  1  0.57065465  0.63184133  0.37763200  1
  Ta5+  Ta53  1  0.59223762  0.86477054  0.37920121  1
  Ta5+  Ta54  1  0.62853266  0.62659009  0.86798730  1
  Ta5+  Ta55  1  0.65526795  0.39734159  0.34907002  1
  Ta5+  Ta56  1  0.15307171  0.38287080  0.81820030  1
  Ta5+  Ta57  1  0.39234212  0.64553107  0.62326212  1
  Ta5+  Ta58  1  0.16661895  0.87087882  0.86118721  1
  Ta5+  Ta59  1  0.17163305  0.62284925  0.85951338  1
  Ta5+  Ta60  1  0.15333033  0.11437236  0.65697945  1
  Ta5+  Ta61  1  0.87506520  0.85774781  0.85828911  1
  Ta5+  Ta62  1  0.66691261  0.42787728  0.63615422  1
  Ta5+  Ta63  1  0.14426359  0.63265417  0.61395173  1
  Ta5+  Ta64  1  0.58441602  0.11293994  0.15282468  1
  Ta5+  Ta65  1  0.87874624  0.60408418  0.86865716  1
  Ta5+  Ta66  1  0.38129497  0.39290406  0.61098215  1
  Ta5+  Ta67  1  0.39012964  0.38162650  0.85685361  1
  Ta5+  Ta68  1  0.63437651  0.42797476  0.11892817  1
  Ta5+  Ta69  1  0.14619623  0.38464360  0.62317528  1
  Ta5+  Ta70  1  0.86713337  0.41336683  0.63636860  1
  Ta5+  Ta71  1  0.65273890  0.87333287  0.86593333  1
  Ta5+  Ta72  1  0.90045946  0.62538827  0.38410390  1
  Ta5+  Ta73  1  0.39589815  0.11515678  0.62809851  1
  Ta5+  Ta74  1  0.88476975  0.11176941  0.38759870  1
  W6+  W75  1  0.89779539  0.11849305  0.12305652  1
  W6+  W76  1  0.61907080  0.86895186  0.11937007  1
  W6+  W77  1  0.11543407  0.87507552  0.61879756  1
  W6+  W78  1  0.84748510  0.08992656  0.64025491  1
  W6+  W79  1  0.12663434  0.38691198  0.37477955  1
  W6+  W80  1  0.11448365  0.87391424  0.37521208  1
  W6+  W81  1  0.84638866  0.86414130  0.38686795  1
  W6+  W82  1  0.85951866  0.42794530  0.82372244  1
  O2-  O83  1  0.10602403  0.00003669  0.11320992  1
  O2-  O84  1  0.13892150  0.00727152  0.37316703  1
  O2-  O85  1  0.11746687  0.01099561  0.61085253  1
  O2-  O86  1  0.13330384  -0.00459007  0.89055094  1
  O2-  O87  1  0.20170002  0.49844189  0.10215011  1
  O2-  O88  1  0.09832276  0.51622568  0.39300733  1
  O2-  O89  1  0.13880986  0.50545866  0.60501974  1
  O2-  O90  1  0.14425804  0.49614594  0.86294323  1
  O2-  O91  1  0.37586109  -0.00426745  0.13003661  1
  O2-  O92  1  0.41917752  -0.01268525  0.36462235  1
  O2-  O93  1  0.39132398  -0.00397559  0.61378546  1
  O2-  O94  1  0.34197848  0.00630273  0.89187115  1
  O2-  O95  1  0.38504435  0.50177280  0.11778083  1
  O2-  O96  1  0.39013597  0.50980820  0.37832875  1
  O2-  O97  1  0.38092382  0.51189267  0.61427880  1
  O2-  O98  1  0.37909401  0.50112521  0.88485108  1
  O2-  O99  1  0.62269195  0.00474944  0.12763414  1
  O2-  O100  1  0.60918253  -0.00028110  0.36809448  1
  O2-  O101  1  0.58023450  -0.02023607  0.64802410  1
  O2-  O102  1  0.60692800  -0.01009454  0.85959191  1
  O2-  O103  1  0.54500599  0.50469106  0.15373350  1
  O2-  O104  1  0.61704177  0.50814809  0.37921183  1
  O2-  O105  1  0.57862610  0.50568169  0.64003265  1
  O2-  O106  1  0.63773134  0.50289308  0.86714243  1
  O2-  O107  1  0.88895678  -0.00974581  0.11602917  1
  O2-  O108  1  0.89093665  -0.00466147  0.39117927  1
  O2-  O109  1  0.91844425  -0.02729272  0.64272093  1
  O2-  O110  1  0.76934646  -0.06017006  0.89561648  1
  O2-  O111  1  0.87171946  0.51465023  0.11309929  1
  O2-  O112  1  0.90996830  0.50144271  0.39175669  1
  O2-  O113  1  0.94539947  0.51496876  0.64131264  1
  O2-  O114  1  0.80835085  0.51884025  0.91794443  1
  O2-  O115  1  0.18826015  0.27491222  0.12597776  1
  O2-  O116  1  0.17706961  0.24880392  0.36824187  1
  O2-  O117  1  0.12788139  0.24109888  0.63281822  1
  O2-  O118  1  0.11115677  0.27298397  0.86013348  1
  O2-  O119  1  0.16151680  0.74470871  0.13334351  1
  O2-  O120  1  0.12701501  0.74306788  0.35350795  1
  O2-  O121  1  0.07494946  0.73649798  0.61883769  1
  O2-  O122  1  0.12842525  0.74578677  0.86800204  1
  O2-  O123  1  0.38011555  0.25018716  0.15075809  1
  O2-  O124  1  0.35184870  0.28708494  0.38793648  1
  O2-  O125  1  0.39735542  0.25444346  0.59845285  1
  O2-  O126  1  0.40610113  0.25605542  0.87048716  1
  O2-  O127  1  0.33477692  0.75517011  0.12948010  1
  O2-  O128  1  0.34602985  0.75518169  0.37606617  1
  O2-  O129  1  0.34532317  0.76097383  0.63253387  1
  O2-  O130  1  0.36743757  0.75018965  0.87690419  1
  O2-  O131  1  0.62951499  0.19891205  0.07530974  1
  O2-  O132  1  0.66153869  0.27574336  0.38971801  1
  O2-  O133  1  0.51910671  0.13528045  0.61054520  1
  O2-  O134  1  0.61756433  0.24337056  0.89444846  1
  O2-  O135  1  0.66087513  0.73515425  0.11844775  1
  O2-  O136  1  0.62801543  0.74335560  0.38595009  1
  O2-  O137  1  0.63673276  0.73990543  0.60444119  1
  O2-  O138  1  0.69801469  0.74032964  0.87305960  1
  O2-  O139  1  0.79935938  0.19987513  0.12707765  1
  O2-  O140  1  0.85328299  0.26325509  0.39478524  1
  O2-  O141  1  0.74198201  0.18087468  0.63293196  1
  O2-  O142  1  0.75960301  0.33425935  0.87625896  1
  O2-  O143  1  0.83615572  0.72430412  0.14336909  1
  O2-  O144  1  0.82248897  0.71988796  0.36873773  1
  O2-  O145  1  0.86935487  0.72474857  0.64915479  1
  O2-  O146  1  0.91888920  0.74042585  0.84864147  1
  O2-  O147  1  0.12918533  0.15282283  -0.01578447  1
  O2-  O148  1  0.12754500  0.13982014  0.24108597  1
  O2-  O149  1  0.14396768  0.14511471  0.49436738  1
  O2-  O150  1  0.06736084  0.12904290  0.76004659  1
  O2-  O151  1  0.14919764  0.63579989  -0.00359737  1
  O2-  O152  1  0.15590368  0.60949956  0.24337464  1
  O2-  O153  1  0.18580153  0.64517765  0.49564741  1
  O2-  O154  1  0.17590822  0.63442784  0.73216209  1
  O2-  O155  1  0.35745786  0.16171274  0.00177249  1
  O2-  O156  1  0.32299523  0.13028811  0.27271075  1
  O2-  O157  1  0.37596097  0.12915440  0.47276342  1
  O2-  O158  1  0.39591097  0.12271258  0.75008761  1
  O2-  O159  1  0.35400038  0.64087023  0.00365547  1
  O2-  O160  1  0.35281047  0.63392173  0.25238466  1
  O2-  O161  1  0.37631263  0.64531833  0.49949254  1
  O2-  O162  1  0.36383497  0.62594634  0.74739282  1
  O2-  O163  1  0.72565092  0.11628453  -0.08293242  1
  O2-  O164  1  0.65115044  0.15598108  0.25552778  1
  O2-  O165  1  0.63649038  0.14211894  0.50315702  1
  O2-  O166  1  0.62569623  0.14249907  0.74491008  1
  O2-  O167  1  0.59503616  0.63940247  -0.00902919  1
  O2-  O168  1  0.62073703  0.63751378  0.25077147  1
  O2-  O169  1  0.56062252  0.62385659  0.50041695  1
  O2-  O170  1  0.60195507  0.64700001  0.75084760  1
  O2-  O171  1  0.88845390  0.12499110  -0.02460645  1
  O2-  O172  1  0.88219582  0.13854133  0.26413721  1
  O2-  O173  1  0.88999234  0.14590041  0.51525925  1
  O2-  O174  1  0.85309423  0.12698216  0.78706195  1
  O2-  O175  1  0.88961849  0.65337907  -0.00529099  1
  O2-  O176  1  0.93235889  0.62410384  0.25669791  1
  O2-  O177  1  0.88046341  0.62579169  0.50963110  1
  O2-  O178  1  0.81178806  0.61692245  0.76163169  1
  O2-  O179  1  0.10707844  0.36142575  0.01014212  1
  O2-  O180  1  0.02504438  0.34510087  0.17587846  1
  O2-  O181  1  0.11664667  0.34733491  0.50633991  1
  O2-  O182  1  0.06955553  0.38628202  0.72156611  1
  O2-  O183  1  0.12671084  0.85213607  0.00004237  1
  O2-  O184  1  0.16266217  0.88113572  0.24281829  1
  O2-  O185  1  0.06030840  0.86450651  0.49781464  1
  O2-  O186  1  0.15670682  0.87373494  0.74152349  1
  O2-  O187  1  0.37247490  0.35343898  0.01292156  1
  O2-  O188  1  0.36837818  0.38373871  0.24891182  1
  O2-  O189  1  0.44849645  0.38481792  0.50180775  1
  O2-  O190  1  0.41041537  0.38042621  0.73506563  1
  O2-  O191  1  0.38580723  0.86041786  0.00020132  1
  O2-  O192  1  0.38268048  0.85908403  0.25195035  1
  O2-  O193  1  0.41307379  0.86164005  0.50122856  1
  O2-  O194  1  0.38358192  0.88251662  0.75691908  1
  O2-  O195  1  0.66453599  0.37795235  0.00842713  1
  O2-  O196  1  0.66835758  0.36920341  0.22309941  1
  O2-  O197  1  0.62925590  0.33122630  0.56741074  1
  O2-  O198  1  0.64548774  0.36287658  0.74686679  1
  O2-  O199  1  0.60193955  0.84465756  -0.02222216  1
  O2-  O200  1  0.63589318  0.86002136  0.25480365  1
  O2-  O201  1  0.59783914  0.87594128  0.50159811  1
  O2-  O202  1  0.62012629  0.83878594  0.75280608  1
  O2-  O203  1  0.90054732  0.33472146  0.02997825  1
  O2-  O204  1  0.85103589  0.36105946  0.20871747  1
  O2-  O205  1  0.94371550  0.35793545  0.54554390  1
  O2-  O206  1  0.86638728  0.32416306  0.72023319  1
  O2-  O207  1  0.89192774  0.83465677  -0.00738045  1
  O2-  O208  1  0.84160375  0.86235758  0.24589943  1
  O2-  O209  1  0.83632595  0.86529360  0.52553900  1
  O2-  O210  1  0.81957314  0.86309059  0.74421224  1
  O2-  O211  1  -0.00311684  -0.15663778  0.13378282  1
  O2-  O212  1  0.01370306  0.17597427  0.10157194  1
  O2-  O213  1  0.00818679  0.15063220  0.38891957  1
  O2-  O214  1  -0.06839697  -0.02707327  0.86573705  1
  O2-  O215  1  0.01995248  0.66786413  0.10085441  1
  O2-  O216  1  0.04085013  0.50155277  0.12747519  1
  O2-  O217  1  -0.00272233  0.34374447  0.38399579  1
  O2-  O218  1  -0.03963669  0.52733226  0.82974130  1
  O2-  O219  1  0.25428540  0.17409185  -0.12984766  1
  O2-  O220  1  0.25093835  0.11558070  0.11593232  1
  O2-  O221  1  0.27121111  0.13844282  0.61267707  1
  O2-  O222  1  0.21653534  0.07124383  0.75407723  1
  O2-  O223  1  0.26652871  0.36305643  -0.12048007  1
  O2-  O224  1  0.17884885  0.39404359  0.24977230  1
  O2-  O225  1  0.27086036  0.37182670  0.56198026  1
  O2-  O226  1  0.23183636  0.37905299  0.71858187  1
  O2-  O227  1  0.48828213  0.11877357  0.07183930  1
  O2-  O228  1  0.47880957  0.11202313  0.23067283  1
  O2-  O229  1  0.51763697  0.17097774  0.38453015  1
  O2-  O230  1  0.49653248  0.11780709  0.90063862  1
  O2-  O231  1  0.48942907  0.67707585  0.11745517  1
  O2-  O232  1  0.52481777  0.34769517  0.10901426  1
  O2-  O233  1  0.52648498  0.36609790  0.33509004  1
  O2-  O234  1  0.51436000  0.38164459  0.89978088  1
  O2-  O235  1  0.75504571  -0.13044568  0.08305421  1
  O2-  O236  1  0.75810139  0.12261081  0.38812903  1
  O2-  O237  1  0.74214014  0.02140334  0.55315960  1
  O2-  O238  1  0.73907645  0.02140553  0.70903121  1
  O2-  O239  1  0.69711768  0.53370963  0.10465784  1
  O2-  O240  1  0.77414002  0.40998965  0.36349400  1
  O2-  O241  1  0.79250118  0.38615405  0.52994954  1
  O2-  O242  1  0.76430416  0.50918984  0.62999807  1
