# generated using pymatgen
data_Gd19Ta56(WO20)8
_symmetry_space_group_name_H-M   'P 1'
_cell_length_a   15.54344832
_cell_length_b   15.39708281
_cell_length_c   15.23807204
_cell_angle_alpha   90.13244084
_cell_angle_beta   89.82833640
_cell_angle_gamma   89.89738170
_symmetry_Int_Tables_number   1
_chemical_formula_structural   Gd19Ta56(WO20)8
_chemical_formula_sum   'Gd19 Ta56 W8 O160'
_cell_volume   3646.80070450
_cell_formula_units_Z   1
loop_
 _symmetry_equiv_pos_site_id
 _symmetry_equiv_pos_as_xyz
  1  'x, y, z'
loop_
 _atom_type_symbol
 _atom_type_oxidation_number
  Gd3+  3.0
  Ta5+  5.0
  W6+  6.0
  O2-  -2.0
loop_
 _atom_site_type_symbol
 _atom_site_label
 _atom_site_symmetry_multiplicity
 _atom_site_fract_x
 _atom_site_fract_y
 _atom_site_fract_z
 _atom_site_occupancy
  Gd3+  Gd0  1  0.54796110  0.27924446  -0.02358032  1
  Gd3+  Gd1  1  -0.00940622  0.76809960  -0.02805991  1
  Gd3+  Gd2  1  0.00551873  0.77374417  0.20644077  1
  Gd3+  Gd3  1  0.52092664  0.74484431  0.48536665  1
  Gd3+  Gd4  1  0.25985576  0.23857058  0.49921083  1
  Gd3+  Gd5  1  0.78025114  0.75472953  0.78301960  1
  Gd3+  Gd6  1  0.50498103  0.74494668  0.01661781  1
  Gd3+  Gd7  1  0.23359138  0.24421588  0.24716307  1
  Gd3+  Gd8  1  0.26013084  0.75236203  0.50810165  1
  Gd3+  Gd9  1  0.74939296  0.25878049  0.48960020  1
  Gd3+  Gd10  1  -0.02737546  0.23001821  0.55890561  1
  Gd3+  Gd11  1  0.24830247  0.76840271  0.25685608  1
  Gd3+  Gd12  1  0.49607182  0.25851645  0.73951379  1
  Gd3+  Gd13  1  0.77322733  0.27455415  0.00819509  1
  Gd3+  Gd14  1  0.51219426  0.24700279  0.49885625  1
  Gd3+  Gd15  1  0.25559477  0.74227415  0.75853341  1
  Gd3+  Gd16  1  0.77047591  0.74129016  0.24477706  1
  Gd3+  Gd17  1  0.22920147  0.24094368  0.76582106  1
  Gd3+  Gd18  1  0.22252013  0.76512166  -0.00568068  1
  Ta5+  Ta19  1  0.37349532  0.59925848  0.88753442  1
  Ta5+  Ta20  1  0.65858612  0.38633030  0.82650641  1
  Ta5+  Ta21  1  0.16455310  0.91893324  0.13533671  1
  Ta5+  Ta22  1  0.63632280  0.11921755  0.35955521  1
  Ta5+  Ta23  1  0.84432897  0.36546707  0.65071811  1
  Ta5+  Ta24  1  0.60273875  0.62146900  0.85902336  1
  Ta5+  Ta25  1  0.88289825  0.14596882  0.87365266  1
  Ta5+  Ta26  1  0.42778066  0.90247977  0.85901056  1
  Ta5+  Ta27  1  0.37616625  0.36981041  0.37281604  1
  Ta5+  Ta28  1  0.07943648  0.14771317  0.12271508  1
  Ta5+  Ta29  1  0.32111956  0.61089685  0.12415678  1
  Ta5+  Ta30  1  0.36898753  0.89219432  0.11582370  1
  Ta5+  Ta31  1  0.62513927  0.87360120  0.12310959  1
  Ta5+  Ta32  1  0.83538625  0.58193440  0.43047362  1
  Ta5+  Ta33  1  0.59087747  0.87564842  0.64325766  1
  Ta5+  Ta34  1  0.62213610  0.62178382  0.63142006  1
  Ta5+  Ta35  1  0.91346064  0.15124769  0.12148374  1
  Ta5+  Ta36  1  0.05462783  0.15465359  0.87311291  1
  Ta5+  Ta37  1  0.35099745  0.10685092  0.63607290  1
  Ta5+  Ta38  1  0.88034546  0.86329293  0.61108985  1
  Ta5+  Ta39  1  0.87899210  0.93721861  0.37729853  1
  Ta5+  Ta40  1  0.34074998  0.37991254  0.63073811  1
  Ta5+  Ta41  1  0.63514896  0.60734051  0.36753966  1
  Ta5+  Ta42  1  0.64586355  0.87237348  0.37888936  1
  Ta5+  Ta43  1  0.08550814  0.35695936  0.38585727  1
  Ta5+  Ta44  1  0.10900057  0.95157484  0.84975904  1
  Ta5+  Ta45  1  0.59149549  0.87483832  0.86272026  1
  Ta5+  Ta46  1  0.90249501  0.96198214  0.82735263  1
  Ta5+  Ta47  1  0.92096442  0.38030508  0.13299808  1
  Ta5+  Ta48  1  0.88024229  0.14267276  0.36932368  1
  Ta5+  Ta49  1  0.10105515  0.59796866  0.82208940  1
  Ta5+  Ta50  1  0.89685994  0.58868302  0.88002163  1
  Ta5+  Ta51  1  0.08264147  0.12147426  0.38181715  1
  Ta5+  Ta52  1  0.60379617  0.12237714  0.10609749  1
  Ta5+  Ta53  1  0.42305617  0.86705384  0.64547797  1
  Ta5+  Ta54  1  0.11201477  0.58365355  0.14380181  1
  Ta5+  Ta55  1  0.88912856  0.59781672  0.11855711  1
  Ta5+  Ta56  1  0.65478757  0.37013070  0.16649070  1
  Ta5+  Ta57  1  0.89855332  0.60778021  0.64981901  1
  Ta5+  Ta58  1  0.39387862  0.87247036  0.37593702  1
  Ta5+  Ta59  1  0.08788020  0.36351028  0.87914356  1
  Ta5+  Ta60  1  0.11549210  0.87390272  0.64516645  1
  Ta5+  Ta61  1  0.39478818  0.11179431  0.37169926  1
  Ta5+  Ta62  1  0.39458675  0.61441815  0.63132384  1
  Ta5+  Ta63  1  0.61293569  0.37656969  0.35141046  1
  Ta5+  Ta64  1  0.39348010  0.61819023  0.35991626  1
  Ta5+  Ta65  1  0.64108410  0.38539284  0.62170459  1
  Ta5+  Ta66  1  0.38961182  0.13557248  0.88708957  1
  Ta5+  Ta67  1  0.63886302  0.11762488  0.83973935  1
  Ta5+  Ta68  1  0.13863648  0.11234406  0.63220261  1
  Ta5+  Ta69  1  0.09054262  0.37234408  0.13096695  1
  Ta5+  Ta70  1  0.36838066  0.37361969  0.88370730  1
  Ta5+  Ta71  1  0.92184973  0.34556685  0.87175421  1
  Ta5+  Ta72  1  0.43545408  0.12740630  0.12295114  1
  Ta5+  Ta73  1  0.13365973  0.37589429  0.62892566  1
  Ta5+  Ta74  1  0.11031587  0.61891089  0.61391371  1
  W6+  W75  1  0.12966004  0.60944772  0.37791498  1
  W6+  W76  1  0.62744945  0.12083847  0.62846588  1
  W6+  W77  1  0.65247782  0.61014535  0.11283798  1
  W6+  W78  1  0.92398156  0.36244028  0.38529588  1
  W6+  W79  1  0.81881560  0.10687259  0.64111038  1
  W6+  W80  1  0.37919915  0.36549432  0.13180732  1
  W6+  W81  1  0.85101701  0.92406656  0.04864194  1
  W6+  W82  1  0.14433175  0.88828613  0.39341900  1
  O2-  O83  1  0.09780247  0.01705098  0.11683487  1
  O2-  O84  1  0.15261227  0.02582346  0.38982004  1
  O2-  O85  1  0.10084217  -0.00439494  0.63412927  1
  O2-  O86  1  0.16262987  0.05797314  0.87061618  1
  O2-  O87  1  0.16638215  0.47518824  0.15742707  1
  O2-  O88  1  0.11177543  0.47276989  0.39052897  1
  O2-  O89  1  0.09921133  0.49472363  0.61636300  1
  O2-  O90  1  0.12675653  0.48723087  0.86250334  1
  O2-  O91  1  0.40281488  0.00783785  0.09390342  1
  O2-  O92  1  0.36868119  -0.00764961  0.39569610  1
  O2-  O93  1  0.39040367  -0.00912627  0.63503614  1
  O2-  O94  1  0.41397855  0.01604593  0.90358872  1
  O2-  O95  1  0.34516424  0.49501503  0.11898451  1
  O2-  O96  1  0.37978935  0.49793102  0.37792419  1
  O2-  O97  1  0.34373860  0.50695003  0.61206295  1
  O2-  O98  1  0.31600341  0.49379676  0.89770834  1
  O2-  O99  1  0.61131135  -0.00246223  0.10640893  1
  O2-  O100  1  0.62678056  -0.00308756  0.37869372  1
  O2-  O101  1  0.62417968  -0.01128060  0.63002239  1
  O2-  O102  1  0.62732989  -0.00272105  0.86098122  1
  O2-  O103  1  0.65512247  0.47467933  0.10897576  1
  O2-  O104  1  0.57480054  0.49761109  0.35864885  1
  O2-  O105  1  0.67209251  0.51045117  0.62724684  1
  O2-  O106  1  0.65923145  0.50970215  0.84106409  1
  O2-  O107  1  0.88643626  0.02862286  0.10690270  1
  O2-  O108  1  0.97164194  0.04169222  0.38551654  1
  O2-  O109  1  0.83345785  -0.02625054  0.61170213  1
  O2-  O110  1  0.82565101  0.02671692  0.90297417  1
  O2-  O111  1  0.85007111  0.48978863  0.15954075  1
  O2-  O112  1  0.91304151  0.49851116  0.39267742  1
  O2-  O113  1  0.89623942  0.48674169  0.64960102  1
  O2-  O114  1  0.92910003  0.47230083  0.84989141  1
  O2-  O115  1  0.14892756  0.25629800  0.12252041  1
  O2-  O116  1  0.15737060  0.23261726  0.39443785  1
  O2-  O117  1  0.16400124  0.24365815  0.62235017  1
  O2-  O118  1  0.14488983  0.25166020  0.88482297  1
  O2-  O119  1  0.11972640  0.80291520  0.10138188  1
  O2-  O120  1  0.16794233  0.74680779  0.38423938  1
  O2-  O121  1  0.14915402  0.74492003  0.64191820  1
  O2-  O122  1  0.14897795  0.70234257  0.86780614  1
  O2-  O123  1  0.36630907  0.23663248  0.14887718  1
  O2-  O124  1  0.34262718  0.23171079  0.36673476  1
  O2-  O125  1  0.34435378  0.24779667  0.64484384  1
  O2-  O126  1  0.32870382  0.25520076  0.88054151  1
  O2-  O127  1  0.31501512  0.75888875  0.11678553  1
  O2-  O128  1  0.34480533  0.74199330  0.37427017  1
  O2-  O129  1  0.34336650  0.73413981  0.63426865  1
  O2-  O130  1  0.31531106  0.70794452  0.89176218  1
  O2-  O131  1  0.64603337  0.25820917  0.10296351  1
  O2-  O132  1  0.64593085  0.25235009  0.37054811  1
  O2-  O133  1  0.59870852  0.25863288  0.62499984  1
  O2-  O134  1  0.61676162  0.25589324  0.83006268  1
  O2-  O135  1  0.61645368  0.74280786  0.12038935  1
  O2-  O136  1  0.64879305  0.73996593  0.37303441  1
  O2-  O137  1  0.55679889  0.74078745  0.63110480  1
  O2-  O138  1  0.54921659  0.74202091  0.86400606  1
  O2-  O139  1  0.85454149  0.27056849  0.13505310  1
  O2-  O140  1  0.82803673  0.25669830  0.36808261  1
  O2-  O141  1  0.80677311  0.24215703  0.63367388  1
  O2-  O142  1  0.82127825  0.25299481  0.86144365  1
  O2-  O143  1  0.92817694  0.82185852  0.09138222  1
  O2-  O144  1  0.82326664  0.68559683  0.37306796  1
  O2-  O145  1  0.84699269  0.74449012  0.64560241  1
  O2-  O146  1  0.87840774  0.71829697  0.88800412  1
  O2-  O147  1  0.05960454  0.15659365  0.00080291  1
  O2-  O148  1  0.09708161  0.14369993  0.25971347  1
  O2-  O149  1  0.07356335  0.13110606  0.52188623  1
  O2-  O150  1  0.07884282  0.14929397  0.73704690  1
  O2-  O151  1  0.01200360  0.61989909  -0.08693472  1
  O2-  O152  1  0.07160381  0.63731111  0.25034067  1
  O2-  O153  1  0.18540606  0.62032306  0.51651171  1
  O2-  O154  1  0.18343089  0.60507278  0.72237283  1
  O2-  O155  1  0.43733895  0.17345064  -0.00339319  1
  O2-  O156  1  0.40757099  0.10050009  0.25142911  1
  O2-  O157  1  0.40211187  0.14575738  0.51332331  1
  O2-  O158  1  0.39387276  0.13720550  0.75905434  1
  O2-  O159  1  0.39711112  0.63120499  0.01608012  1
  O2-  O160  1  0.38968057  0.63036654  0.23391534  1
  O2-  O161  1  0.40247530  0.64123650  0.50212967  1
  O2-  O162  1  0.36193088  0.61719290  0.75721805  1
  O2-  O163  1  0.62234802  0.14450574  -0.02950684  1
  O2-  O164  1  0.63244899  0.12520787  0.23693043  1
  O2-  O165  1  0.65787632  0.14044604  0.49354670  1
  O2-  O166  1  0.55616873  0.11961628  0.74654641  1
  O2-  O167  1  0.62097590  0.62987575  -0.02050395  1
  O2-  O168  1  0.68179677  0.61897647  0.25327828  1
  O2-  O169  1  0.62022030  0.63258628  0.50466712  1
  O2-  O170  1  0.66553390  0.65765617  0.74739872  1
  O2-  O171  1  0.87434647  0.16517549  -0.00130442  1
  O2-  O172  1  0.90988247  0.14580050  0.24961973  1
  O2-  O173  1  0.86248041  0.14251551  0.50580843  1
  O2-  O174  1  0.89306188  0.07019810  0.75372300  1
  O2-  O175  1  0.85709696  0.56826180  -0.00714789  1
  O2-  O176  1  0.89799017  0.67505991  0.21905085  1
  O2-  O177  1  0.82124991  0.60583691  0.55199923  1
  O2-  O178  1  0.83794694  0.61203670  0.76387008  1
  O2-  O179  1  0.09430477  0.37590431  0.00727771  1
  O2-  O180  1  0.12217094  0.34090218  0.26436297  1
  O2-  O181  1  0.06767527  0.33945112  0.52084647  1
  O2-  O182  1  0.08709344  0.35313132  0.74232481  1
  O2-  O183  1  0.10543727  0.86565790  -0.06418961  1
  O2-  O184  1  0.12534249  0.87010870  0.25150628  1
  O2-  O185  1  0.17919678  0.87472150  0.53714858  1
  O2-  O186  1  0.17962564  0.88183509  0.75823850  1
  O2-  O187  1  0.42037907  0.36225733  -0.00335199  1
  O2-  O188  1  0.31988744  0.36749170  0.26134542  1
  O2-  O189  1  0.39128189  0.34346432  0.50620550  1
  O2-  O190  1  0.39609747  0.38016858  0.75805743  1
  O2-  O191  1  0.40350365  0.85070241  -0.02386208  1
  O2-  O192  1  0.38007158  0.85468564  0.25291855  1
  O2-  O193  1  0.39382516  0.84254567  0.50950574  1
  O2-  O194  1  0.36633083  0.83881221  0.76327830  1
  O2-  O195  1  0.66902742  0.36378084  -0.04988744  1
  O2-  O196  1  0.55247458  0.36043420  0.22883066  1
  O2-  O197  1  0.63398023  0.37292489  0.49191092  1
  O2-  O198  1  0.56870218  0.39403713  0.73004381  1
  O2-  O199  1  0.60779271  0.85798450  -0.01311833  1
  O2-  O200  1  0.63385170  0.86944264  0.24897226  1
  O2-  O201  1  0.62267570  0.85451923  0.50825356  1
  O2-  O202  1  0.65966498  0.84003839  0.75219725  1
  O2-  O203  1  0.89361307  0.36622950  -0.00157592  1
  O2-  O204  1  0.94692150  0.36085319  0.25169128  1
  O2-  O205  1  0.88174422  0.34806222  0.52457908  1
  O2-  O206  1  0.91723683  0.32920734  0.73695027  1
  O2-  O207  1  0.91332013  0.88882787  -0.06428711  1
  O2-  O208  1  0.92800132  0.87352245  0.28852800  1
  O2-  O209  1  0.89355000  0.87228488  0.48253164  1
  O2-  O210  1  0.85574234  0.87566003  0.74861250  1
  O2-  O211  1  0.00232111  0.03041846  -0.11400808  1
  O2-  O212  1  -0.01173009  0.22402811  0.40391616  1
  O2-  O213  1  0.00047238  -0.15574459  0.61651960  1
  O2-  O214  1  0.01969421  -0.08223805  0.76886763  1
  O2-  O215  1  0.00748432  0.65448375  0.08650930  1
  O2-  O216  1  0.01077670  0.49708940  0.12865718  1
  O2-  O217  1  -0.00395078  0.64586398  0.57264286  1
  O2-  O218  1  0.01152180  0.61591768  0.73454798  1
  O2-  O219  1  0.25174007  -0.09663262  0.04007077  1
  O2-  O220  1  0.26796654  -0.05712453  0.19502339  1
  O2-  O221  1  0.24793546  0.10173549  0.55155662  1
  O2-  O222  1  0.24378610  0.10196220  0.71012040  1
  O2-  O223  1  0.20367838  0.62323964  0.05413597  1
  O2-  O224  1  0.22752698  0.62804395  0.21295895  1
  O2-  O225  1  0.23846051  0.38051674  0.54674872  1
  O2-  O226  1  0.24060337  0.38480577  0.70938085  1
  O2-  O227  1  0.48897182  -0.14526837  0.12186069  1
  O2-  O228  1  0.51207602  -0.14571480  0.37596044  1
  O2-  O229  1  0.51393924  0.14293401  0.38403861  1
  O2-  O230  1  0.50918520  -0.09415016  0.75043065  1
  O2-  O231  1  0.49072257  0.57160691  -0.13800811  1
  O2-  O232  1  0.51016607  0.65003993  0.36274235  1
  O2-  O233  1  0.49269425  0.33376156  0.37849198  1
  O2-  O234  1  0.50859669  0.57844090  0.65416937  1
  O2-  O235  1  0.75071457  -0.13188450  0.11589367  1
  O2-  O236  1  0.80445478  0.04170719  0.35887776  1
  O2-  O237  1  0.76860188  -0.12606719  0.36336599  1
  O2-  O238  1  0.72110092  0.11619095  0.74201972  1
  O2-  O239  1  0.77980334  0.65940641  0.11186498  1
  O2-  O240  1  0.71366198  0.39354898  0.27618899  1
  O2-  O241  1  0.72812002  0.53201023  0.40982268  1
  O2-  O242  1  0.73707581  0.37476346  0.72413821  1
