# generated using pymatgen
data_Gd19Ta56(WO20)8
_symmetry_space_group_name_H-M   'P 1'
_cell_length_a   15.53804905
_cell_length_b   15.52934819
_cell_length_c   15.31992819
_cell_angle_alpha   90.07927673
_cell_angle_beta   89.98470563
_cell_angle_gamma   89.93398888
_symmetry_Int_Tables_number   1
_chemical_formula_structural   Gd19Ta56(WO20)8
_chemical_formula_sum   'Gd19 Ta56 W8 O160'
_cell_volume   3696.62780337
_cell_formula_units_Z   1
loop_
 _symmetry_equiv_pos_site_id
 _symmetry_equiv_pos_as_xyz
  1  'x, y, z'
loop_
 _atom_type_symbol
 _atom_type_oxidation_number
  Gd3+  3.0
  Ta5+  5.0
  W6+  6.0
  O2-  -2.0
loop_
 _atom_site_type_symbol
 _atom_site_label
 _atom_site_symmetry_multiplicity
 _atom_site_fract_x
 _atom_site_fract_y
 _atom_site_fract_z
 _atom_site_occupancy
  Gd3+  Gd0  1  0.27939657  0.24914183  -0.01594230  1
  Gd3+  Gd1  1  0.75003930  0.75946460  0.50604516  1
  Gd3+  Gd2  1  0.74288855  0.74496229  -0.02917848  1
  Gd3+  Gd3  1  0.24103956  0.24419982  0.26273175  1
  Gd3+  Gd4  1  0.48762705  0.76118725  0.24331798  1
  Gd3+  Gd5  1  0.24918067  0.75499111  0.24422741  1
  Gd3+  Gd6  1  0.48122683  0.26908526  0.74559441  1
  Gd3+  Gd7  1  0.25182228  0.76127998  0.48592349  1
  Gd3+  Gd8  1  0.75284896  0.74424065  0.24028293  1
  Gd3+  Gd9  1  0.49570254  0.23918708  0.25284701  1
  Gd3+  Gd10  1  0.23045750  0.22866550  0.76016346  1
  Gd3+  Gd11  1  0.27739194  0.24724153  0.51680596  1
  Gd3+  Gd12  1  0.74014007  0.24068084  0.49196448  1
  Gd3+  Gd13  1  0.00513753  0.74739792  0.51514695  1
  Gd3+  Gd14  1  0.25531356  0.75543874  -0.01240275  1
  Gd3+  Gd15  1  -0.01315438  0.26200121  0.75546504  1
  Gd3+  Gd16  1  -0.00607315  0.25538792  0.23269725  1
  Gd3+  Gd17  1  0.00363250  0.77097807  0.77560547  1
  Gd3+  Gd18  1  0.74599112  0.23034935  0.74526499  1
  Ta5+  Ta19  1  0.42450749  0.63171796  0.87628600  1
  Ta5+  Ta20  1  0.12798784  0.37906549  0.89362596  1
  Ta5+  Ta21  1  0.38714833  0.88380927  0.10970420  1
  Ta5+  Ta22  1  0.38742079  0.10497079  0.86962635  1
  Ta5+  Ta23  1  0.89333001  0.12144498  0.87104886  1
  Ta5+  Ta24  1  0.87344130  0.12683998  0.36130906  1
  Ta5+  Ta25  1  0.11308937  0.37895188  0.38841098  1
  Ta5+  Ta26  1  0.87518187  0.36622135  0.61331363  1
  Ta5+  Ta27  1  0.87143948  0.88767837  0.37488787  1
  Ta5+  Ta28  1  0.62711557  0.87299294  0.10809056  1
  Ta5+  Ta29  1  0.06665072  0.13220066  0.88754159  1
  Ta5+  Ta30  1  0.38227138  0.62835276  0.62914830  1
  Ta5+  Ta31  1  0.87245266  0.11235245  0.61703020  1
  Ta5+  Ta32  1  0.61879977  0.87302816  0.63559621  1
  Ta5+  Ta33  1  0.61484476  0.86970462  0.37661824  1
  Ta5+  Ta34  1  0.11464784  0.12162894  0.39430388  1
  Ta5+  Ta35  1  0.86184756  0.60292658  0.63673961  1
  Ta5+  Ta36  1  0.14313116  0.38080974  0.12616314  1
  Ta5+  Ta37  1  0.63133465  0.37733606  0.61579871  1
  Ta5+  Ta38  1  0.63351945  0.10977667  0.35866661  1
  Ta5+  Ta39  1  0.13397954  0.11795236  0.12018909  1
  Ta5+  Ta40  1  0.38568544  0.62594609  0.11765081  1
  Ta5+  Ta41  1  0.87911152  0.62420138  0.11062878  1
  Ta5+  Ta42  1  0.58422061  0.86548859  0.87242061  1
  Ta5+  Ta43  1  0.34593829  0.11383853  0.12847542  1
  Ta5+  Ta44  1  0.09858377  0.13344220  0.59931581  1
  Ta5+  Ta45  1  0.12961541  0.89119058  0.63250353  1
  Ta5+  Ta46  1  0.84960431  0.37506470  0.11595137  1
  Ta5+  Ta47  1  0.41824315  0.85897293  0.87560961  1
  Ta5+  Ta48  1  0.61515810  0.36591744  0.10894007  1
  Ta5+  Ta49  1  0.87340069  0.38260064  0.36714653  1
  Ta5+  Ta50  1  0.63573767  0.61976828  0.62384802  1
  Ta5+  Ta51  1  0.11587268  0.89344843  0.89520477  1
  Ta5+  Ta52  1  0.38598370  0.10799570  0.65363254  1
  Ta5+  Ta53  1  0.61666641  0.61988600  0.37197555  1
  Ta5+  Ta54  1  0.40095109  0.43719037  0.62222077  1
  Ta5+  Ta55  1  0.61935773  0.12092495  0.10937559  1
  Ta5+  Ta56  1  0.88881128  0.62312221  0.37133055  1
  Ta5+  Ta57  1  0.62352729  0.11160184  0.86174365  1
  Ta5+  Ta58  1  0.82833694  0.37628045  0.86779597  1
  Ta5+  Ta59  1  0.13159538  0.61980850  0.37289248  1
  Ta5+  Ta60  1  0.59262838  0.61819527  0.86696180  1
  Ta5+  Ta61  1  0.37999457  0.90184071  0.37676390  1
  Ta5+  Ta62  1  0.11970836  0.38128366  0.63154110  1
  Ta5+  Ta63  1  0.37930431  0.09693515  0.38597801  1
  Ta5+  Ta64  1  0.11906370  0.62506888  0.88757970  1
  Ta5+  Ta65  1  0.65538828  0.37657443  0.86656815  1
  Ta5+  Ta66  1  0.63211340  0.37171867  0.36008840  1
  Ta5+  Ta67  1  0.85895553  0.90069704  0.63123444  1
  Ta5+  Ta68  1  0.37032699  0.86806812  0.63506844  1
  Ta5+  Ta69  1  0.60973601  0.11277742  0.61368019  1
  Ta5+  Ta70  1  0.37912991  0.61746600  0.37965213  1
  Ta5+  Ta71  1  0.12124407  0.62297606  0.12283150  1
  Ta5+  Ta72  1  0.86864208  0.88685076  0.88505866  1
  Ta5+  Ta73  1  0.35535273  0.38194165  0.12940033  1
  Ta5+  Ta74  1  0.85817911  0.12185005  0.11647069  1
  W6+  W75  1  0.12419863  0.63203579  0.64145493  1
  W6+  W76  1  0.38753015  0.38628198  0.87922227  1
  W6+  W77  1  0.10788616  0.87905419  0.13035433  1
  W6+  W78  1  0.62855944  0.61260786  0.10822067  1
  W6+  W79  1  0.86404583  0.62139875  0.84768522  1
  W6+  W80  1  0.38754835  0.36571323  0.38012159  1
  W6+  W81  1  0.09679259  0.87663755  0.34350367  1
  W6+  W82  1  0.90204296  0.87452431  0.13042747  1
  O2-  O83  1  0.08727546  0.01170345  0.14316452  1
  O2-  O84  1  0.09506009  0.00817726  0.37540011  1
  O2-  O85  1  0.10457031  0.01167995  0.62055581  1
  O2-  O86  1  0.09707649  0.01449510  0.88745213  1
  O2-  O87  1  0.11095317  0.49730628  0.13903531  1
  O2-  O88  1  0.14570890  0.49479450  0.37026205  1
  O2-  O89  1  0.12105483  0.49737767  0.64444980  1
  O2-  O90  1  0.10203387  0.49837526  0.88115098  1
  O2-  O91  1  0.39893389  0.00581417  0.10925826  1
  O2-  O92  1  0.30117602  0.00175614  0.36948455  1
  O2-  O93  1  0.40212090  -0.01113851  0.63414531  1
  O2-  O94  1  0.40404205  -0.01109366  0.87701809  1
  O2-  O95  1  0.37327603  0.50275496  0.12955902  1
  O2-  O96  1  0.39722700  0.50295644  0.37863147  1
  O2-  O97  1  0.31070041  0.52577296  0.62249187  1
  O2-  O98  1  0.41751459  0.51237192  0.88341979  1
  O2-  O99  1  0.62213200  -0.00309624  0.11394529  1
  O2-  O100  1  0.65177759  -0.01559870  0.35881912  1
  O2-  O101  1  0.58723242  -0.00557310  0.61343922  1
  O2-  O102  1  0.59853128  -0.00444283  0.86581617  1
  O2-  O103  1  0.58900505  0.48158121  0.10699028  1
  O2-  O104  1  0.62261491  0.49774886  0.36999081  1
  O2-  O105  1  0.65169988  0.49607316  0.60945009  1
  O2-  O106  1  0.61553991  0.49089990  0.86760216  1
  O2-  O107  1  0.87279511  0.00473481  0.12397492  1
  O2-  O108  1  0.90102614  0.00607426  0.36722394  1
  O2-  O109  1  0.92136499  -0.00379041  0.58831933  1
  O2-  O110  1  0.84275895  0.00339747  0.87671982  1
  O2-  O111  1  0.86789971  0.49833237  0.11536831  1
  O2-  O112  1  0.85524510  0.50490273  0.38307839  1
  O2-  O113  1  0.89505803  0.49077860  0.60864281  1
  O2-  O114  1  0.85643021  0.49162552  0.86416945  1
  O2-  O115  1  0.13897353  0.25110313  0.13886505  1
  O2-  O116  1  0.16402472  0.25953192  0.39266597  1
  O2-  O117  1  0.16084269  0.24576894  0.62120439  1
  O2-  O118  1  0.15174629  0.24462499  0.89896415  1
  O2-  O119  1  0.15710208  0.74560974  0.11735735  1
  O2-  O120  1  0.14514148  0.74688595  0.36085085  1
  O2-  O121  1  0.07343071  0.77041901  0.64329789  1
  O2-  O122  1  0.11334539  0.75264521  0.90217400  1
  O2-  O123  1  0.33663645  0.24362825  0.13447941  1
  O2-  O124  1  0.34354136  0.22435497  0.37575096  1
  O2-  O125  1  0.34094048  0.22974914  0.65234378  1
  O2-  O126  1  0.35998442  0.24692597  0.85182497  1
  O2-  O127  1  0.34356136  0.75564643  0.12088517  1
  O2-  O128  1  0.33830809  0.77405193  0.36599992  1
  O2-  O129  1  0.32765499  0.74305090  0.61708370  1
  O2-  O130  1  0.36217351  0.74523696  0.88220537  1
  O2-  O131  1  0.56529135  0.24219468  0.12278028  1
  O2-  O132  1  0.61019647  0.23965578  0.36563526  1
  O2-  O133  1  0.65620134  0.24309521  0.61788385  1
  O2-  O134  1  0.60604647  0.24399267  0.83282551  1
  O2-  O135  1  0.67350226  0.74777641  0.10845960  1
  O2-  O136  1  0.66873991  0.74891901  0.37756155  1
  O2-  O137  1  0.65445657  0.74983460  0.62795954  1
  O2-  O138  1  0.62947099  0.74430306  0.86630489  1
  O2-  O139  1  0.89612454  0.25562838  0.12612737  1
  O2-  O140  1  0.90913837  0.24891698  0.35829088  1
  O2-  O141  1  0.83032055  0.24037653  0.61729230  1
  O2-  O142  1  0.86608007  0.24668043  0.85350027  1
  O2-  O143  1  0.85774219  0.74551252  0.13254549  1
  O2-  O144  1  0.84241253  0.74342509  0.38042688  1
  O2-  O145  1  0.87994504  0.78373691  0.59365230  1
  O2-  O146  1  0.85600815  0.76089601  0.85190396  1
  O2-  O147  1  0.06802476  0.14074756  0.01921037  1
  O2-  O148  1  0.09968906  0.15627160  0.27047939  1
  O2-  O149  1  0.19005909  0.12210525  0.50060979  1
  O2-  O150  1  0.10005473  0.15543805  0.75621920  1
  O2-  O151  1  0.17220743  0.61323243  0.00822058  1
  O2-  O152  1  0.16621752  0.62567694  0.24261503  1
  O2-  O153  1  0.10722908  0.64078193  0.49631050  1
  O2-  O154  1  0.15034960  0.64363076  0.77312662  1
  O2-  O155  1  0.38825204  0.14130248  -0.00809528  1
  O2-  O156  1  0.40202643  0.12153664  0.25182984  1
  O2-  O157  1  0.36959058  0.11755044  0.50980843  1
  O2-  O158  1  0.46263052  0.12479249  0.76490930  1
  O2-  O159  1  0.36012674  0.63261938  -0.00136483  1
  O2-  O160  1  0.36259376  0.64559842  0.25008247  1
  O2-  O161  1  0.39914810  0.65139386  0.49755542  1
  O2-  O162  1  0.40604088  0.64009958  0.74706307  1
  O2-  O163  1  0.61952829  0.13411552  -0.01286685  1
  O2-  O164  1  0.58978841  0.11637485  0.24225889  1
  O2-  O165  1  0.64798770  0.11688056  0.49051482  1
  O2-  O166  1  0.65960224  0.10891570  0.73200774  1
  O2-  O167  1  0.65540916  0.62229732  -0.02033867  1
  O2-  O168  1  0.65215974  0.63215992  0.25099983  1
  O2-  O169  1  0.60497422  0.63629209  0.49619040  1
  O2-  O170  1  0.59464738  0.61846116  0.73795291  1
  O2-  O171  1  0.87905945  0.13452945  -0.00152200  1
  O2-  O172  1  0.91419190  0.12966580  0.23745406  1
  O2-  O173  1  0.84716804  0.13185711  0.48598968  1
  O2-  O174  1  0.85513282  0.11110028  0.74050240  1
  O2-  O175  1  0.85070689  0.63512614  -0.00915085  1
  O2-  O176  1  0.85159645  0.62455027  0.24838785  1
  O2-  O177  1  0.90913190  0.63554716  0.50177557  1
  O2-  O178  1  0.94159635  0.65246722  0.71802446  1
  O2-  O179  1  0.08352061  0.37015082  0.01247692  1
  O2-  O180  1  0.09656265  0.35879258  0.26152562  1
  O2-  O181  1  0.15809179  0.37815655  0.51012257  1
  O2-  O182  1  0.11006866  0.34972344  0.76114673  1
  O2-  O183  1  0.17354912  0.88570687  0.00418455  1
  O2-  O184  1  0.18678809  0.88345355  0.24324432  1
  O2-  O185  1  0.13558709  0.85498288  0.50766021  1
  O2-  O186  1  0.11170199  0.88013478  0.76276913  1
  O2-  O187  1  0.40137921  0.35236564  0.01594200  1
  O2-  O188  1  0.41313767  0.35785512  0.23818949  1
  O2-  O189  1  0.35985633  0.37382067  0.52432685  1
  O2-  O190  1  0.38782299  0.39312724  0.73700138  1
  O2-  O191  1  0.35126551  0.87197121  -0.00812679  1
  O2-  O192  1  0.38807258  0.87970846  0.24477149  1
  O2-  O193  1  0.35235960  0.87640270  0.49731714  1
  O2-  O194  1  0.39679037  0.84993260  0.75093791  1
  O2-  O195  1  0.63569623  0.34434502  -0.00899716  1
  O2-  O196  1  0.58974413  0.36207918  0.24411984  1
  O2-  O197  1  0.64358537  0.35918158  0.48783156  1
  O2-  O198  1  0.66915199  0.37063850  0.73524647  1
  O2-  O199  1  0.65232732  0.86991920  -0.01326834  1
  O2-  O200  1  0.61761015  0.84389438  0.24487677  1
  O2-  O201  1  0.63426330  0.86402226  0.49933283  1
  O2-  O202  1  0.56905531  0.86354201  0.74432314  1
  O2-  O203  1  0.84262517  0.36200292  -0.00351934  1
  O2-  O204  1  0.90529696  0.38158461  0.24383131  1
  O2-  O205  1  0.83990553  0.35422559  0.48959901  1
  O2-  O206  1  0.85344486  0.36366244  0.73606550  1
  O2-  O207  1  0.83959491  0.86357004  0.00408670  1
  O2-  O208  1  0.82175205  0.87493509  0.26287947  1
  O2-  O209  1  0.97909089  0.84623037  0.41347205  1
  O2-  O210  1  0.90619205  0.88739866  0.74345840  1
  O2-  O211  1  -0.00818119  -0.12232207  -0.10090464  1
  O2-  O212  1  0.01236146  -0.13791656  0.22499549  1
  O2-  O213  1  0.03064017  0.15040789  0.47811455  1
  O2-  O214  1  -0.01501740  0.16814009  0.63492027  1
  O2-  O215  1  0.00116413  0.63390715  0.11983343  1
  O2-  O216  1  0.00681024  0.62181493  0.34478250  1
  O2-  O217  1  -0.00395109  0.39153599  0.40995865  1
  O2-  O218  1  0.00007817  0.34479831  0.62033328  1
  O2-  O219  1  0.23758447  0.11698480  0.04619124  1
  O2-  O220  1  0.24386197  0.10758376  0.20453676  1
  O2-  O221  1  0.24722865  -0.10701003  0.64377444  1
  O2-  O222  1  0.30438060  0.09981172  0.75987098  1
  O2-  O223  1  0.24377991  0.38059130  0.05132479  1
  O2-  O224  1  0.24875235  0.38208967  0.20909596  1
  O2-  O225  1  0.25641205  0.62601408  0.40309696  1
  O2-  O226  1  0.24755629  0.37876362  0.87354256  1
  O2-  O227  1  0.50561331  -0.15741137  0.10837402  1
  O2-  O228  1  0.49755381  -0.16198273  0.37751030  1
  O2-  O229  1  0.46342632  0.00250671  0.38780075  1
  O2-  O230  1  0.49945147  0.16306226  0.61470704  1
  O2-  O231  1  0.50263772  0.65563392  0.13572522  1
  O2-  O232  1  0.50163958  0.65423090  0.34749289  1
  O2-  O233  1  0.47673883  0.53533017  0.61055448  1
  O2-  O234  1  0.50978724  0.35758628  0.62517003  1
  O2-  O235  1  0.73831653  0.14453415  0.13331211  1
  O2-  O236  1  0.75530740  0.13568519  0.33567499  1
  O2-  O237  1  0.81109311  -0.10496305  0.48215596  1
  O2-  O238  1  0.74072772  -0.09379327  0.65327212  1
  O2-  O239  1  0.73440630  0.35834630  0.14741460  1
  O2-  O240  1  0.75266318  0.35540624  0.34116017  1
  O2-  O241  1  0.75700263  0.62901981  0.57092844  1
  O2-  O242  1  0.78891911  0.59521902  0.73437057  1
