# generated using pymatgen
data_Gd19Ta56(WO20)8
_symmetry_space_group_name_H-M   'P 1'
_cell_length_a   15.61238992
_cell_length_b   15.43107556
_cell_length_c   15.37482151
_cell_angle_alpha   89.89268007
_cell_angle_beta   89.84129971
_cell_angle_gamma   89.79465319
_symmetry_Int_Tables_number   1
_chemical_formula_structural   Gd19Ta56(WO20)8
_chemical_formula_sum   'Gd19 Ta56 W8 O160'
_cell_volume   3703.99558787
_cell_formula_units_Z   1
loop_
 _symmetry_equiv_pos_site_id
 _symmetry_equiv_pos_as_xyz
  1  'x, y, z'
loop_
 _atom_type_symbol
 _atom_type_oxidation_number
  Gd3+  3.0
  Ta5+  5.0
  W6+  6.0
  O2-  -2.0
loop_
 _atom_site_type_symbol
 _atom_site_label
 _atom_site_symmetry_multiplicity
 _atom_site_fract_x
 _atom_site_fract_y
 _atom_site_fract_z
 _atom_site_occupancy
  Gd3+  Gd0  1  0.49187482  0.25439071  -0.00774743  1
  Gd3+  Gd1  1  0.03873393  0.73933207  -0.00619015  1
  Gd3+  Gd2  1  -0.01759759  0.24681486  -0.00463778  1
  Gd3+  Gd3  1  0.25465756  0.26219077  0.73695790  1
  Gd3+  Gd4  1  0.72820534  0.23320830  0.29765912  1
  Gd3+  Gd5  1  0.49557613  0.76732162  -0.01686126  1
  Gd3+  Gd6  1  0.48318869  0.76127530  0.48439503  1
  Gd3+  Gd7  1  0.23960302  0.24900685  0.49091193  1
  Gd3+  Gd8  1  0.76029263  0.74161544  0.26237507  1
  Gd3+  Gd9  1  0.77874931  0.73384682  0.75050765  1
  Gd3+  Gd10  1  0.49757619  0.23777605  0.26129262  1
  Gd3+  Gd11  1  0.79742167  0.74632839  0.50962788  1
  Gd3+  Gd12  1  0.03810578  0.74861313  0.24160875  1
  Gd3+  Gd13  1  -0.02152383  0.25139282  0.75529761  1
  Gd3+  Gd14  1  0.25367431  0.74812416  0.24239428  1
  Gd3+  Gd15  1  -0.01697808  0.25430901  0.46845650  1
  Gd3+  Gd16  1  0.74048296  0.25554158  0.78121960  1
  Gd3+  Gd17  1  0.48559822  0.23471362  0.75559229  1
  Gd3+  Gd18  1  0.23469698  0.25330306  0.24905428  1
  Ta5+  Ta19  1  0.85029337  0.36299288  0.12957524  1
  Ta5+  Ta20  1  0.60833408  0.43440768  0.85725826  1
  Ta5+  Ta21  1  0.15172515  0.12622468  0.09236044  1
  Ta5+  Ta22  1  0.34856929  0.63291883  0.37261959  1
  Ta5+  Ta23  1  0.89684808  0.60301268  0.63490460  1
  Ta5+  Ta24  1  0.78438999  0.43190146  0.96139101  1
  Ta5+  Ta25  1  0.38501551  0.39220044  0.62053346  1
  Ta5+  Ta26  1  0.89595424  0.56642638  0.14067955  1
  Ta5+  Ta27  1  0.34907117  0.42011687  0.11705625  1
  Ta5+  Ta28  1  0.90655406  0.86441323  0.37815706  1
  Ta5+  Ta29  1  0.10974369  0.38506369  0.35905729  1
  Ta5+  Ta30  1  0.36916369  0.12088066  0.12457716  1
  Ta5+  Ta31  1  0.32852051  0.87246054  0.37701404  1
  Ta5+  Ta32  1  0.65994399  0.88196012  0.13608932  1
  Ta5+  Ta33  1  0.31946035  0.12470359  0.88887131  1
  Ta5+  Ta34  1  0.68069882  0.86119228  0.89088709  1
  Ta5+  Ta35  1  0.87190382  0.10382253  0.87437000  1
  Ta5+  Ta36  1  0.38898015  0.64053481  0.63078280  1
  Ta5+  Ta37  1  0.17355324  0.60815150  0.11503747  1
  Ta5+  Ta38  1  0.36691388  0.86535042  0.63096407  1
  Ta5+  Ta39  1  0.13157944  0.62372848  0.62166856  1
  Ta5+  Ta40  1  0.57108681  0.10633982  0.42778191  1
  Ta5+  Ta41  1  0.10518373  0.11119870  0.61460680  1
  Ta5+  Ta42  1  0.18032763  0.62257206  0.38347517  1
  Ta5+  Ta43  1  0.10837406  0.37740253  0.62022908  1
  Ta5+  Ta44  1  0.38670455  0.11146524  0.61100890  1
  Ta5+  Ta45  1  0.87217165  0.10368709  0.37440123  1
  Ta5+  Ta46  1  0.33281276  0.87212007  0.87285035  1
  Ta5+  Ta47  1  0.12077452  0.11705528  0.35403032  1
  Ta5+  Ta48  1  0.12246649  0.38219302  0.87495063  1
  Ta5+  Ta49  1  0.89748458  0.89176186  0.12185671  1
  Ta5+  Ta50  1  0.90033443  0.62102478  0.89377640  1
  Ta5+  Ta51  1  0.15630371  0.86938720  0.38607143  1
  Ta5+  Ta52  1  0.63010976  0.37396112  0.15387472  1
  Ta5+  Ta53  1  0.59122825  0.42685345  0.38726342  1
  Ta5+  Ta54  1  0.86036177  0.36844025  0.61500487  1
  Ta5+  Ta55  1  0.36874827  0.11682390  0.38737816  1
  Ta5+  Ta56  1  0.11173730  0.10971529  0.87582240  1
  Ta5+  Ta57  1  0.34333019  0.64134524  0.87353833  1
  Ta5+  Ta58  1  0.62259454  0.37571977  0.61837171  1
  Ta5+  Ta59  1  0.63465291  0.11635994  0.64960539  1
  Ta5+  Ta60  1  0.85095014  0.86559895  0.88612294  1
  Ta5+  Ta61  1  0.65479384  0.86966653  0.63456451  1
  Ta5+  Ta62  1  0.35326097  0.62437424  0.11164699  1
  Ta5+  Ta63  1  0.61435259  0.11057372  0.10559471  1
  Ta5+  Ta64  1  0.85482762  0.11227649  0.12600401  1
  Ta5+  Ta65  1  0.32644565  0.87812216  0.11009659  1
  Ta5+  Ta66  1  0.11586641  0.38508150  0.10707402  1
  Ta5+  Ta67  1  0.17723234  0.62764406  0.86426436  1
  Ta5+  Ta68  1  0.63186908  0.61671570  0.39205134  1
  Ta5+  Ta69  1  0.62567663  0.63319452  0.88224829  1
  Ta5+  Ta70  1  0.92241531  0.86627792  0.64234925  1
  Ta5+  Ta71  1  0.09179854  0.86718858  0.62789996  1
  Ta5+  Ta72  1  0.16681575  0.86508849  0.86183634  1
  Ta5+  Ta73  1  0.36475966  0.38452467  0.37055513  1
  Ta5+  Ta74  1  0.86868315  0.10577765  0.62010345  1
  W6+  W75  1  0.62652374  0.09744150  0.90546242  1
  W6+  W76  1  0.91604809  0.60777343  0.37606544  1
  W6+  W77  1  0.85679905  0.38483965  0.36547810  1
  W6+  W78  1  0.36522451  0.38774333  0.87817010  1
  W6+  W79  1  0.64881869  0.62626842  0.12841230  1
  W6+  W80  1  0.63030564  0.62513217  0.63164731  1
  W6+  W81  1  0.64710116  0.86998935  0.39975293  1
  W6+  W82  1  0.16285899  0.87442421  0.10887659  1
  O2-  O83  1  0.16786349  0.01060330  0.10653099  1
  O2-  O84  1  0.14227996  0.00006591  0.36947292  1
  O2-  O85  1  0.13672378  -0.00247086  0.62336289  1
  O2-  O86  1  0.14877421  -0.00615841  0.86889787  1
  O2-  O87  1  0.09408478  0.50644925  0.11581968  1
  O2-  O88  1  0.13420650  0.50116329  0.38337845  1
  O2-  O89  1  0.15761804  0.48482703  0.61844183  1
  O2-  O90  1  0.13348570  0.50118531  0.86088732  1
  O2-  O91  1  0.36323635  0.00380257  0.12509047  1
  O2-  O92  1  0.33876683  -0.00128998  0.37894100  1
  O2-  O93  1  0.38006901  -0.00775132  0.62499035  1
  O2-  O94  1  0.34478781  0.00797524  0.87275055  1
  O2-  O95  1  0.42711618  0.51049546  0.12097463  1
  O2-  O96  1  0.34595312  0.50254967  0.35975981  1
  O2-  O97  1  0.39605033  0.51328409  0.62681071  1
  O2-  O98  1  0.34695976  0.51999189  0.87929594  1
  O2-  O99  1  0.60575266  -0.00676904  0.15899647  1
  O2-  O100  1  0.62658921  0.00584928  0.40302765  1
  O2-  O101  1  0.64888357  -0.00448996  0.62728597  1
  O2-  O102  1  0.67308047  -0.01850909  0.89470921  1
  O2-  O103  1  0.62413628  0.48960780  0.13540245  1
  O2-  O104  1  0.68868311  0.50424091  0.40807727  1
  O2-  O105  1  0.60865920  0.49407391  0.61052471  1
  O2-  O106  1  0.54499966  0.54008190  0.84773076  1
  O2-  O107  1  0.92497645  0.01266285  0.15366107  1
  O2-  O108  1  0.86406971  -0.01867839  0.36644357  1
  O2-  O109  1  0.87336626  -0.01542686  0.63810357  1
  O2-  O110  1  0.84113386  -0.01270762  0.85353005  1
  O2-  O111  1  0.93897242  0.44208088  0.16095332  1
  O2-  O112  1  0.86330206  0.51014046  0.32548556  1
  O2-  O113  1  0.84713797  0.49009285  0.64057367  1
  O2-  O114  1  0.85818301  0.49708228  0.89387627  1
  O2-  O115  1  0.09339403  0.25731131  0.10611194  1
  O2-  O116  1  0.10517184  0.25075363  0.35642650  1
  O2-  O117  1  0.16061803  0.24891584  0.62053417  1
  O2-  O118  1  0.07952623  0.24752766  0.87890184  1
  O2-  O119  1  0.13705081  0.73397197  0.11905229  1
  O2-  O120  1  0.13613573  0.73935348  0.37343102  1
  O2-  O121  1  0.08845526  0.73951648  0.61943864  1
  O2-  O122  1  0.12395789  0.73973545  0.86582760  1
  O2-  O123  1  0.48930919  0.15243706  0.13410083  1
  O2-  O124  1  0.37938733  0.24756830  0.39138258  1
  O2-  O125  1  0.34491834  0.26041488  0.60841673  1
  O2-  O126  1  0.36774189  0.24389839  0.86083393  1
  O2-  O127  1  0.33238456  0.75145983  0.11145745  1
  O2-  O128  1  0.38759415  0.75851126  0.36670626  1
  O2-  O129  1  0.44144024  0.75959102  0.63147022  1
  O2-  O130  1  0.39878095  0.76377411  0.87044264  1
  O2-  O131  1  0.51981320  0.33205271  0.13013989  1
  O2-  O132  1  0.60333132  0.20999107  0.36442596  1
  O2-  O133  1  0.62305392  0.25477248  0.68656910  1
  O2-  O134  1  0.52809936  0.17696885  0.87584118  1
  O2-  O135  1  0.68055215  0.75541120  0.13833461  1
  O2-  O136  1  0.69338437  0.73182311  0.40121448  1
  O2-  O137  1  0.69639096  0.74652626  0.62326624  1
  O2-  O138  1  0.59622027  0.75428405  0.87109589  1
  O2-  O139  1  0.88748141  0.23531635  0.13315669  1
  O2-  O140  1  0.86218620  0.23759394  0.38121175  1
  O2-  O141  1  0.91111522  0.23920841  0.60086166  1
  O2-  O142  1  0.90222793  0.23209831  0.87456159  1
  O2-  O143  1  0.97091564  0.79092187  0.11673611  1
  O2-  O144  1  0.87492570  0.73717397  0.37846395  1
  O2-  O145  1  0.88127808  0.73476574  0.63456093  1
  O2-  O146  1  0.90557544  0.74385717  0.91117490  1
  O2-  O147  1  0.06494247  0.12104820  0.00405509  1
  O2-  O148  1  0.13265012  0.13279565  0.22760597  1
  O2-  O149  1  0.12400106  0.14778161  0.48952519  1
  O2-  O150  1  0.08062455  0.14049436  0.73423361  1
  O2-  O151  1  0.14708788  0.62267895  -0.00749854  1
  O2-  O152  1  0.15569095  0.62521214  0.24755347  1
  O2-  O153  1  0.18628211  0.62965782  0.51198504  1
  O2-  O154  1  0.17641318  0.62730105  0.73392300  1
  O2-  O155  1  0.38452395  0.14761128  0.00030814  1
  O2-  O156  1  0.35794540  0.16101462  0.24609529  1
  O2-  O157  1  0.30534701  0.12093893  0.51382297  1
  O2-  O158  1  0.36063724  0.14176575  0.73068054  1
  O2-  O159  1  0.39847799  0.64925645  -0.00399404  1
  O2-  O160  1  0.35966242  0.63724854  0.24193923  1
  O2-  O161  1  0.38010417  0.64677210  0.50173797  1
  O2-  O162  1  0.35084478  0.65177340  0.74469080  1
  O2-  O163  1  0.62783803  0.19499106  0.01004886  1
  O2-  O164  1  0.63559654  0.21534029  0.18857965  1
  O2-  O165  1  0.62882340  0.15069809  0.52569945  1
  O2-  O166  1  0.63083138  0.10179056  0.77222807  1
  O2-  O167  1  0.59609676  0.64866153  0.00759988  1
  O2-  O168  1  0.64736701  0.63288515  0.27005713  1
  O2-  O169  1  0.58126053  0.65193277  0.50356423  1
  O2-  O170  1  0.67785750  0.62744634  0.76571550  1
  O2-  O171  1  0.88410329  0.11317640  0.00490046  1
  O2-  O172  1  0.81808209  0.12068777  0.25941266  1
  O2-  O173  1  0.83812578  0.10477437  0.49301132  1
  O2-  O174  1  0.88804786  0.13245977  0.74368745  1
  O2-  O175  1  0.92918910  0.60821034  0.02958091  1
  O2-  O176  1  0.95945103  0.62367889  0.22920529  1
  O2-  O177  1  0.87063864  0.61641144  0.51020668  1
  O2-  O178  1  0.88677078  0.62406029  0.76611624  1
  O2-  O179  1  0.06049920  0.38204710  -0.01229227  1
  O2-  O180  1  0.13724266  0.37637892  0.23460019  1
  O2-  O181  1  0.10388542  0.35151915  0.49460522  1
  O2-  O182  1  0.12053055  0.35048984  0.74898414  1
  O2-  O183  1  0.11562215  0.86093922  -0.01789418  1
  O2-  O184  1  0.14836711  0.85531112  0.24570921  1
  O2-  O185  1  0.13436097  0.86800597  0.50483253  1
  O2-  O186  1  0.13448517  0.86201508  0.74372101  1
  O2-  O187  1  0.38784250  0.36370303  0.01492857  1
  O2-  O188  1  0.34638842  0.35911116  0.22808298  1
  O2-  O189  1  0.37115380  0.39141115  0.49485944  1
  O2-  O190  1  0.33953665  0.38212037  0.73766595  1
  O2-  O191  1  0.38385174  0.87506228  -0.00262582  1
  O2-  O192  1  0.33695707  0.87251133  0.24169752  1
  O2-  O193  1  0.34709792  0.85507791  0.50759218  1
  O2-  O194  1  0.32094474  0.86076104  0.74375739  1
  O2-  O195  1  0.72583958  0.34428803  0.08063276  1
  O2-  O196  1  0.64009229  0.37142830  0.28146367  1
  O2-  O197  1  0.58999781  0.36287154  0.49218816  1
  O2-  O198  1  0.64886004  0.40544437  0.74737347  1
  O2-  O199  1  0.62255194  0.85889938  0.01592735  1
  O2-  O200  1  0.68006325  0.86599572  0.26361717  1
  O2-  O201  1  0.58774516  0.85220330  0.52943897  1
  O2-  O202  1  0.67439131  0.85802631  0.75795831  1
  O2-  O203  1  0.87378793  0.34916387  0.00221989  1
  O2-  O204  1  0.79948141  0.34715884  0.24174521  1
  O2-  O205  1  0.90119325  0.37523363  0.49565344  1
  O2-  O206  1  0.85167143  0.33112706  0.73518172  1
  O2-  O207  1  0.90386281  0.89801824  -0.00085147  1
  O2-  O208  1  0.87918683  0.84615810  0.24706043  1
  O2-  O209  1  0.90476658  0.85931185  0.50627055  1
  O2-  O210  1  0.89000808  0.84222321  0.76481447  1
  O2-  O211  1  -0.00614567  0.07752684  -0.13489799  1
  O2-  O212  1  -0.00715935  0.11451690  0.36957974  1
  O2-  O213  1  0.02170514  -0.13731330  0.35730895  1
  O2-  O214  1  -0.00829559  0.09794534  0.58138842  1
  O2-  O215  1  -0.19311221  0.48260721  0.07752956  1
  O2-  O216  1  -0.00858019  0.37766353  0.35186164  1
  O2-  O217  1  0.01321664  0.58130875  0.63001914  1
  O2-  O218  1  -0.00738054  0.38495823  0.64453819  1
  O2-  O219  1  0.21916384  0.12557112  -0.03116251  1
  O2-  O220  1  0.26045244  0.18927777  0.11666790  1
  O2-  O221  1  0.24299748  0.15472241  0.36354342  1
  O2-  O222  1  0.22008413  0.14653874  0.81330254  1
  O2-  O223  1  0.23021171  0.37561943  0.07992917  1
  O2-  O224  1  0.26802259  0.52184917  0.13511605  1
  O2-  O225  1  0.24162583  0.34891597  0.37347999  1
  O2-  O226  1  0.23444186  0.34910632  0.88643580  1
  O2-  O227  1  0.56316502  0.05110936  0.00664804  1
  O2-  O228  1  0.48149127  0.10409830  0.32919291  1
  O2-  O229  1  0.45850472  0.10527020  0.48892731  1
  O2-  O230  1  0.50500687  0.13613698  0.64583576  1
  O2-  O231  1  0.50952855  0.36294456  -0.12499620  1
  O2-  O232  1  0.53094342  0.53256654  0.38068143  1
  O2-  O233  1  0.48432103  0.37144438  0.33565114  1
  O2-  O234  1  0.49577720  0.35240454  0.64682375  1
  O2-  O235  1  0.73993825  0.09133260  0.10449773  1
  O2-  O236  1  0.77570687  -0.09047662  0.11432289  1
  O2-  O237  1  0.75463126  0.15091735  0.64961596  1
  O2-  O238  1  0.75135714  0.14597501  0.87871258  1
  O2-  O239  1  0.68389653  0.51204909  -0.06946898  1
  O2-  O240  1  0.79268530  0.62326070  0.16941397  1
  O2-  O241  1  0.74100196  0.34978552  0.59108997  1
  O2-  O242  1  0.71112636  0.35152184  0.89533596  1
