# generated using pymatgen
data_Gd19Ta56(WO20)8
_symmetry_space_group_name_H-M   'P 1'
_cell_length_a   15.43698044
_cell_length_b   15.37679403
_cell_length_c   15.23984551
_cell_angle_alpha   89.99586111
_cell_angle_beta   90.17341994
_cell_angle_gamma   90.17904498
_symmetry_Int_Tables_number   1
_chemical_formula_structural   Gd19Ta56(WO20)8
_chemical_formula_sum   'Gd19 Ta56 W8 O160'
_cell_volume   3617.46722168
_cell_formula_units_Z   1
loop_
 _symmetry_equiv_pos_site_id
 _symmetry_equiv_pos_as_xyz
  1  'x, y, z'
loop_
 _atom_type_symbol
 _atom_type_oxidation_number
  Gd3+  3.0
  Ta5+  5.0
  W6+  6.0
  O2-  -2.0
loop_
 _atom_site_type_symbol
 _atom_site_label
 _atom_site_symmetry_multiplicity
 _atom_site_fract_x
 _atom_site_fract_y
 _atom_site_fract_z
 _atom_site_occupancy
  Gd3+  Gd0  1  0.75259851  0.22560683  0.02293228  1
  Gd3+  Gd1  1  0.26217382  0.75481946  0.72716992  1
  Gd3+  Gd2  1  0.49844562  0.25642050  -0.00661992  1
  Gd3+  Gd3  1  0.47197164  0.28403980  0.76846228  1
  Gd3+  Gd4  1  0.76972302  0.75374520  0.51809663  1
  Gd3+  Gd5  1  -0.04364393  0.74060866  0.74690861  1
  Gd3+  Gd6  1  0.52599903  0.25714354  0.53329910  1
  Gd3+  Gd7  1  0.25908834  0.26661376  0.21565334  1
  Gd3+  Gd8  1  0.01231519  0.24453304  0.21823260  1
  Gd3+  Gd9  1  0.25620807  0.28202503  -0.02926606  1
  Gd3+  Gd10  1  -0.00826273  0.71242177  0.51439885  1
  Gd3+  Gd11  1  0.79125003  0.24744175  0.25837045  1
  Gd3+  Gd12  1  0.53829788  0.75599763  0.55914858  1
  Gd3+  Gd13  1  0.31213519  0.78316519  0.49679055  1
  Gd3+  Gd14  1  0.28516835  0.75567329  0.00383610  1
  Gd3+  Gd15  1  -0.02086845  0.72806250  0.24479569  1
  Gd3+  Gd16  1  0.50431197  0.25500306  0.25987888  1
  Gd3+  Gd17  1  0.02157176  0.24247826  -0.01600434  1
  Gd3+  Gd18  1  0.75862075  0.25254136  0.76648856  1
  Ta5+  Ta19  1  0.12187495  0.87112556  0.59410112  1
  Ta5+  Ta20  1  0.58964280  0.62940553  0.89535445  1
  Ta5+  Ta21  1  0.13625730  0.60493008  0.62262565  1
  Ta5+  Ta22  1  0.61321998  0.62772282  0.14741335  1
  Ta5+  Ta23  1  0.86165358  0.90741242  0.63589558  1
  Ta5+  Ta24  1  0.83991383  0.86174299  0.13228647  1
  Ta5+  Ta25  1  0.12208390  0.36063439  0.61493751  1
  Ta5+  Ta26  1  0.64352395  0.05057823  0.62470323  1
  Ta5+  Ta27  1  0.63552677  0.37654114  0.38989512  1
  Ta5+  Ta28  1  0.61648935  0.86908961  0.38254149  1
  Ta5+  Ta29  1  0.35173241  0.12474807  0.40111515  1
  Ta5+  Ta30  1  0.63248450  0.39159920  0.88225612  1
  Ta5+  Ta31  1  0.43064619  0.87579637  0.12077716  1
  Ta5+  Ta32  1  0.45191492  0.64643674  0.10468358  1
  Ta5+  Ta33  1  0.41917380  0.89116757  0.87080921  1
  Ta5+  Ta34  1  0.89265294  0.12593313  0.40336870  1
  Ta5+  Ta35  1  0.60161670  0.11026649  0.13623423  1
  Ta5+  Ta36  1  0.36932104  0.59430733  0.60825647  1
  Ta5+  Ta37  1  0.63418471  0.37923690  0.13484567  1
  Ta5+  Ta38  1  0.60695096  0.62169772  0.39784218  1
  Ta5+  Ta39  1  0.13451124  0.85728062  0.12458530  1
  Ta5+  Ta40  1  0.39656468  0.46569595  0.87171281  1
  Ta5+  Ta41  1  0.36434331  0.11373516  0.08981465  1
  Ta5+  Ta42  1  0.93397433  0.33376897  0.63032716  1
  Ta5+  Ta43  1  0.14743468  0.64568927  0.11930536  1
  Ta5+  Ta44  1  0.12329060  0.40034661  0.10519950  1
  Ta5+  Ta45  1  0.13109890  0.85875440  0.86591042  1
  Ta5+  Ta46  1  0.87513810  0.55996379  0.64354162  1
  Ta5+  Ta47  1  0.42917345  0.66084210  0.85133757  1
  Ta5+  Ta48  1  0.83515272  0.07169479  0.88868280  1
  Ta5+  Ta49  1  0.15143364  0.10985235  0.09468973  1
  Ta5+  Ta50  1  0.69060271  0.88452898  0.65012402  1
  Ta5+  Ta51  1  0.65351910  0.61432747  0.65952681  1
  Ta5+  Ta52  1  0.14400866  0.61904994  0.36802820  1
  Ta5+  Ta53  1  0.88069301  0.43171216  0.91389720  1
  Ta5+  Ta54  1  0.37183866  0.39410172  0.38094302  1
  Ta5+  Ta55  1  0.41998206  0.94071052  0.62656754  1
  Ta5+  Ta56  1  0.89760018  0.08188012  0.07224541  1
  Ta5+  Ta57  1  0.85695895  0.88244097  0.37863602  1
  Ta5+  Ta58  1  0.39355071  0.64320958  0.35384785  1
  Ta5+  Ta59  1  0.84795530  0.61595955  0.37964696  1
  Ta5+  Ta60  1  0.64765700  0.41937272  0.64390382  1
  Ta5+  Ta61  1  0.64070608  0.11527759  0.38807870  1
  Ta5+  Ta62  1  0.65416363  0.88348004  0.89142520  1
  Ta5+  Ta63  1  0.87768446  0.41487632  0.12042055  1
  Ta5+  Ta64  1  0.31308564  0.16152771  0.62716807  1
  Ta5+  Ta65  1  0.09948841  0.38227543  0.83964789  1
  Ta5+  Ta66  1  0.34265520  0.40080793  0.62598553  1
  Ta5+  Ta67  1  0.37353296  0.11738197  0.86018542  1
  Ta5+  Ta68  1  0.10783061  0.11208687  0.35946628  1
  Ta5+  Ta69  1  0.77705424  0.65523765  0.87469545  1
  Ta5+  Ta70  1  0.38233670  0.40361798  0.11275458  1
  Ta5+  Ta71  1  0.84715626  0.09891141  0.63705764  1
  Ta5+  Ta72  1  0.89454822  0.88301286  0.89368119  1
  Ta5+  Ta73  1  0.79507534  0.64230445  0.12824540  1
  Ta5+  Ta74  1  0.13386288  0.37012440  0.36715986  1
  W6+  W75  1  0.61156189  0.12688048  0.85841683  1
  W6+  W76  1  0.10268760  0.85951659  0.37647960  1
  W6+  W77  1  0.12247546  0.11030376  0.84031179  1
  W6+  W78  1  0.06472445  0.11534480  0.59841296  1
  W6+  W79  1  0.89159884  0.38232278  0.38606526  1
  W6+  W80  1  0.44932135  0.89241636  0.37413083  1
  W6+  W81  1  0.18795616  0.60512918  0.87355924  1
  W6+  W82  1  0.67744004  0.86772322  0.13773052  1
  O2-  O83  1  0.14242380  -0.01041619  0.11645738  1
  O2-  O84  1  0.10873646  -0.00577048  0.35987321  1
  O2-  O85  1  0.11716380  -0.01002706  0.60655084  1
  O2-  O86  1  0.13735472  -0.02204901  0.86100227  1
  O2-  O87  1  0.10651463  0.51758689  0.11509367  1
  O2-  O88  1  0.13056342  0.49514995  0.34855893  1
  O2-  O89  1  0.10518843  0.48129251  0.63143801  1
  O2-  O90  1  0.18111460  0.46636330  0.82762554  1
  O2-  O91  1  0.38406888  -0.00250627  0.10741890  1
  O2-  O92  1  0.41956901  0.03053811  0.38593527  1
  O2-  O93  1  0.34935284  0.04345782  0.60914486  1
  O2-  O94  1  0.34495907  -0.00178699  0.87027214  1
  O2-  O95  1  0.41767424  0.51794964  0.10769060  1
  O2-  O96  1  0.38070234  0.51237632  0.37894344  1
  O2-  O97  1  0.27151188  0.50800982  0.62401323  1
  O2-  O98  1  0.32067032  0.56330840  0.86672373  1
  O2-  O99  1  0.65051664  0.00345828  0.13916635  1
  O2-  O100  1  0.63171283  -0.00529860  0.39807964  1
  O2-  O101  1  0.52834428  0.00451568  0.60799772  1
  O2-  O102  1  0.62129930  -0.00146984  0.88448581  1
  O2-  O103  1  0.61954187  0.49632126  0.12846743  1
  O2-  O104  1  0.60659378  0.49466043  0.39251584  1
  O2-  O105  1  0.57782180  0.50903290  0.68106558  1
  O2-  O106  1  0.63264941  0.50495985  0.92025594  1
  O2-  O107  1  0.89044875  -0.01790576  0.14086670  1
  O2-  O108  1  0.87735034  0.00176040  0.36763568  1
  O2-  O109  1  0.94366107  0.02587946  0.62447686  1
  O2-  O110  1  0.78829949  -0.04958503  0.87129172  1
  O2-  O111  1  0.82072290  0.51927827  0.14882013  1
  O2-  O112  1  0.91232439  0.51501998  0.36824402  1
  O2-  O113  1  0.91055286  0.44897133  0.68432522  1
  O2-  O114  1  0.81815473  0.52746529  0.87548322  1
  O2-  O115  1  0.15740574  0.24855360  0.09393504  1
  O2-  O116  1  0.08777032  0.25272116  0.36081309  1
  O2-  O117  1  0.03413768  0.26606764  0.58524111  1
  O2-  O118  1  0.13013867  0.26029074  0.86694413  1
  O2-  O119  1  0.21092394  0.75748839  0.14143272  1
  O2-  O120  1  0.06866183  0.72239138  0.38249300  1
  O2-  O121  1  0.10414900  0.73680138  0.61348081  1
  O2-  O122  1  0.20314862  0.74887577  0.87103956  1
  O2-  O123  1  0.35283738  0.26236427  0.08880518  1
  O2-  O124  1  0.48550304  0.35095607  0.40334718  1
  O2-  O125  1  0.39032389  0.26995815  0.64104410  1
  O2-  O126  1  0.37126708  0.24824331  0.88508140  1
  O2-  O127  1  0.38936001  0.75900408  0.12745412  1
  O2-  O128  1  0.39661177  0.76537085  0.37060283  1
  O2-  O129  1  0.25912944  0.67076425  0.59041957  1
  O2-  O130  1  0.37068374  0.78453537  0.82943400  1
  O2-  O131  1  0.66057711  0.22524728  0.16089245  1
  O2-  O132  1  0.60385293  0.24527820  0.39199184  1
  O2-  O133  1  0.56639122  0.31982354  0.66041969  1
  O2-  O134  1  0.60120871  0.26309064  0.84620492  1
  O2-  O135  1  0.69447339  0.72934435  0.13348517  1
  O2-  O136  1  0.57766754  0.74608544  0.41308185  1
  O2-  O137  1  0.67334500  0.73778069  0.64587231  1
  O2-  O138  1  0.67162172  0.73119117  0.89736887  1
  O2-  O139  1  0.84747269  0.18272396  0.13300783  1
  O2-  O140  1  0.86918939  0.24905793  0.40213178  1
  O2-  O141  1  0.85448284  0.24003340  0.64801461  1
  O2-  O142  1  0.74171228  0.16822817  0.88571739  1
  O2-  O143  1  0.88270740  0.73546923  0.12770382  1
  O2-  O144  1  0.88675126  0.74278143  0.40758997  1
  O2-  O145  1  0.89177280  0.77464219  0.61817734  1
  O2-  O146  1  0.85149975  0.75509576  0.85785566  1
  O2-  O147  1  0.10552638  0.12095083  -0.02514111  1
  O2-  O148  1  0.11686304  0.13588694  0.23609819  1
  O2-  O149  1  0.01326062  0.11849738  0.45056512  1
  O2-  O150  1  0.07983925  0.13490404  0.72817051  1
  O2-  O151  1  0.20739041  0.62367088  0.00965960  1
  O2-  O152  1  0.11587482  0.64373890  0.24481309  1
  O2-  O153  1  0.11456745  0.60335029  0.49413837  1
  O2-  O154  1  0.17371721  0.62974865  0.73927455  1
  O2-  O155  1  0.43148819  0.12086084  -0.02197579  1
  O2-  O156  1  0.37496741  0.20493339  0.31173703  1
  O2-  O157  1  0.39043272  0.17973992  0.50465186  1
  O2-  O158  1  0.30331782  0.14768989  0.75049251  1
  O2-  O159  1  0.40686703  0.67322487  -0.02152110  1
  O2-  O160  1  0.42426800  0.63447176  0.23956173  1
  O2-  O161  1  0.41252499  0.65582606  0.50581881  1
  O2-  O162  1  0.39483166  0.64672947  0.71519989  1
  O2-  O163  1  0.60647634  0.15100190  0.01275304  1
  O2-  O164  1  0.57975211  0.12118694  0.27537523  1
  O2-  O165  1  0.60957697  0.13409257  0.51453269  1
  O2-  O166  1  0.65250805  0.12892456  0.72269390  1
  O2-  O167  1  0.56782637  0.63736854  0.02090911  1
  O2-  O168  1  0.61154373  0.63139914  0.27259974  1
  O2-  O169  1  0.60091457  0.61939883  0.53780908  1
  O2-  O170  1  0.68309319  0.61199164  0.78883391  1
  O2-  O171  1  0.90304376  0.16720375  -0.04209869  1
  O2-  O172  1  0.92966551  0.14801592  0.28505808  1
  O2-  O173  1  0.82639831  0.10970605  0.51284667  1
  O2-  O174  1  0.85149497  0.11320734  0.77173921  1
  O2-  O175  1  0.79015663  0.64339481  -0.00143030  1
  O2-  O176  1  0.83082599  0.65002584  0.26199721  1
  O2-  O177  1  0.86651935  0.61059955  0.52469762  1
  O2-  O178  1  0.85245498  0.63100025  0.74104838  1
  O2-  O179  1  0.12994736  0.38094064  -0.02125452  1
  O2-  O180  1  0.12311806  0.35704296  0.22948631  1
  O2-  O181  1  0.14314479  0.37474701  0.49127920  1
  O2-  O182  1  0.04611474  0.34884810  0.72546597  1
  O2-  O183  1  0.14492662  0.85101207  -0.00192863  1
  O2-  O184  1  0.07721078  0.84186446  0.23672938  1
  O2-  O185  1  0.19515882  0.86363774  0.49244603  1
  O2-  O186  1  0.14334248  0.84885146  0.73211342  1
  O2-  O187  1  0.35276763  0.40685386  -0.02004923  1
  O2-  O188  1  0.38696402  0.36828414  0.24480519  1
  O2-  O189  1  0.33729716  0.37187211  0.50077051  1
  O2-  O190  1  0.37921859  0.40853265  0.75714604  1
  O2-  O191  1  0.38089365  0.86969160  -0.00874883  1
  O2-  O192  1  0.44847014  0.89203507  0.23732221  1
  O2-  O193  1  0.31905330  0.85384855  0.63137956  1
  O2-  O194  1  0.44430052  0.92367885  0.74464805  1
  O2-  O195  1  0.64290482  0.33767793  0.00720783  1
  O2-  O196  1  0.60290791  0.36608094  0.25956538  1
  O2-  O197  1  0.64215568  0.37130264  0.51952491  1
  O2-  O198  1  0.69179034  0.39398814  0.76814866  1
  O2-  O199  1  0.69909110  0.87088972  0.00603606  1
  O2-  O200  1  0.63309692  0.85764113  0.26334223  1
  O2-  O201  1  0.64376247  0.85725551  0.52545786  1
  O2-  O202  1  0.67802923  0.85676649  0.77229042  1
  O2-  O203  1  0.84471527  0.34604060  0.01179308  1
  O2-  O204  1  0.90306196  0.35688019  0.23913952  1
  O2-  O205  1  0.90241336  0.38076339  0.52500602  1
  O2-  O206  1  0.85296393  0.33595971  0.83872295  1
  O2-  O207  1  0.87860162  0.85110247  0.01083710  1
  O2-  O208  1  0.88893662  0.84571770  0.25726329  1
  O2-  O209  1  0.85176878  0.89536276  0.50731550  1
  O2-  O210  1  0.90904718  0.88704136  0.75705007  1
  O2-  O211  1  -0.06577281  0.00279242  -0.05864181  1
  O2-  O212  1  0.01360634  0.14150324  0.10348974  1
  O2-  O213  1  0.03380576  -0.14387025  0.50539748  1
  O2-  O214  1  0.01323645  -0.17421401  0.87376060  1
  O2-  O215  1  -0.06792179  0.47947713  0.02599093  1
  O2-  O216  1  0.00398160  0.34272984  0.09945549  1
  O2-  O217  1  -0.00311894  0.61300947  0.64408602  1
  O2-  O218  1  -0.00299305  0.44265411  0.86831356  1
  O2-  O219  1  0.26414424  0.12892328  0.00736726  1
  O2-  O220  1  0.26650123  0.12479101  0.17212855  1
  O2-  O221  1  0.22752201  0.12521892  0.39364903  1
  O2-  O222  1  0.20336473  0.16827695  0.58244307  1
  O2-  O223  1  0.25185025  0.39946856  0.12366758  1
  O2-  O224  1  0.25494202  0.34442850  0.34814275  1
  O2-  O225  1  0.26163519  0.64607052  0.38032872  1
  O2-  O226  1  0.23117425  0.33570980  0.66229388  1
  O2-  O227  1  0.47934053  0.13183910  -0.19994048  1
  O2-  O228  1  0.47623513  0.15789694  0.14348742  1
  O2-  O229  1  0.44318183  -0.13118231  0.51965860  1
  O2-  O230  1  0.53253919  -0.14555776  0.90057842  1
  O2-  O231  1  0.50151634  0.38036816  -0.10489335  1
  O2-  O232  1  0.50436769  0.34472917  0.11513839  1
  O2-  O233  1  0.43191729  0.48488650  0.59589705  1
  O2-  O234  1  0.48988426  0.54351342  0.84141931  1
  O2-  O235  1  0.78574063  0.06909291  0.01534917  1
  O2-  O236  1  0.75366854  0.13227256  0.34823642  1
  O2-  O237  1  0.74484886  -0.16909588  0.38841707  1
  O2-  O238  1  0.76371803  0.00154543  0.66951135  1
  O2-  O239  1  0.75741049  0.35941022  0.15179609  1
  O2-  O240  1  0.75135988  0.36706986  0.35909505  1
  O2-  O241  1  0.72934528  0.64049611  0.42215680  1
  O2-  O242  1  0.74806662  0.51580163  0.63392971  1
