# generated using pymatgen
data_Gd19Ta56(WO20)8
_symmetry_space_group_name_H-M   'P 1'
_cell_length_a   15.60408983
_cell_length_b   15.47080748
_cell_length_c   15.26276930
_cell_angle_alpha   89.67917484
_cell_angle_beta   90.07376896
_cell_angle_gamma   90.01554260
_symmetry_Int_Tables_number   1
_chemical_formula_structural   Gd19Ta56(WO20)8
_chemical_formula_sum   'Gd19 Ta56 W8 O160'
_cell_volume   3684.49167817
_cell_formula_units_Z   1
loop_
 _symmetry_equiv_pos_site_id
 _symmetry_equiv_pos_as_xyz
  1  'x, y, z'
loop_
 _atom_type_symbol
 _atom_type_oxidation_number
  Gd3+  3.0
  Ta5+  5.0
  W6+  6.0
  O2-  -2.0
loop_
 _atom_site_type_symbol
 _atom_site_label
 _atom_site_symmetry_multiplicity
 _atom_site_fract_x
 _atom_site_fract_y
 _atom_site_fract_z
 _atom_site_occupancy
  Gd3+  Gd0  1  0.25805191  0.75131698  0.00715508  1
  Gd3+  Gd1  1  -0.00882517  0.75628312  0.47745762  1
  Gd3+  Gd2  1  0.25836816  0.74822513  0.25670139  1
  Gd3+  Gd3  1  0.49286036  0.74227229  0.73831062  1
  Gd3+  Gd4  1  -0.02024664  0.72842402  0.24093255  1
  Gd3+  Gd5  1  0.46702177  0.22414615  0.50729083  1
  Gd3+  Gd6  1  0.24579557  0.74689070  0.74693856  1
  Gd3+  Gd7  1  0.03678953  0.26321230  0.22189924  1
  Gd3+  Gd8  1  0.01034145  0.25963576  -0.03004590  1
  Gd3+  Gd9  1  0.76474487  0.78016350  0.75271222  1
  Gd3+  Gd10  1  0.52101681  0.73899201  0.49385970  1
  Gd3+  Gd11  1  -0.00829845  0.75612263  0.73061331  1
  Gd3+  Gd12  1  0.75879338  0.74595126  0.26671966  1
  Gd3+  Gd13  1  0.28109097  0.24389355  0.22348105  1
  Gd3+  Gd14  1  0.05800087  0.27809133  0.50862541  1
  Gd3+  Gd15  1  0.76330019  0.74001060  0.01709181  1
  Gd3+  Gd16  1  0.70947986  0.26948635  0.25314281  1
  Gd3+  Gd17  1  0.73348701  0.21480990  0.00457734  1
  Gd3+  Gd18  1  0.48586345  0.24084855  -0.03720725  1
  Ta5+  Ta19  1  0.62956627  0.10190651  0.87507993  1
  Ta5+  Ta20  1  0.63596577  0.88204388  0.13655934  1
  Ta5+  Ta21  1  0.63683855  0.59581455  0.62826665  1
  Ta5+  Ta22  1  0.88649452  0.39347022  0.63758312  1
  Ta5+  Ta23  1  0.34771027  0.11057332  0.37638435  1
  Ta5+  Ta24  1  0.12410908  0.88116775  0.85950800  1
  Ta5+  Ta25  1  0.79906023  0.40306167  0.40745956  1
  Ta5+  Ta26  1  0.32176261  0.11670494  0.89055231  1
  Ta5+  Ta27  1  0.64682125  0.36606517  0.87422305  1
  Ta5+  Ta28  1  0.90519814  0.91315564  0.12319944  1
  Ta5+  Ta29  1  0.38192968  0.61848962  0.37963089  1
  Ta5+  Ta30  1  0.90393364  0.58233863  0.09629635  1
  Ta5+  Ta31  1  0.38530622  0.36786747  0.63724609  1
  Ta5+  Ta32  1  0.33631373  0.36974807  0.88152651  1
  Ta5+  Ta33  1  0.39506152  0.87400854  0.12443299  1
  Ta5+  Ta34  1  0.85505595  0.37446415  0.06573264  1
  Ta5+  Ta35  1  0.16865630  0.36613257  0.08022186  1
  Ta5+  Ta36  1  0.16108777  0.13257022  0.62573790  1
  Ta5+  Ta37  1  0.60849439  0.61109797  0.13550225  1
  Ta5+  Ta38  1  0.13633746  0.13196591  0.36648820  1
  Ta5+  Ta39  1  0.41121567  0.37589524  0.12122904  1
  Ta5+  Ta40  1  0.14877583  0.12953018  0.86950708  1
  Ta5+  Ta41  1  0.86775517  0.61518141  0.86164812  1
  Ta5+  Ta42  1  0.57719685  0.37387625  0.11627928  1
  Ta5+  Ta43  1  0.10645439  0.58391702  0.11560146  1
  Ta5+  Ta44  1  0.36322193  0.88821139  0.62042067  1
  Ta5+  Ta45  1  0.61990850  0.59715590  0.37380570  1
  Ta5+  Ta46  1  0.35506061  0.36790576  0.37789388  1
  Ta5+  Ta47  1  0.10996808  0.62748661  0.87900894  1
  Ta5+  Ta48  1  0.59329804  0.11724951  0.13262712  1
  Ta5+  Ta49  1  0.19272281  0.38465780  0.62248385  1
  Ta5+  Ta50  1  0.86868567  0.16463473  0.39141088  1
  Ta5+  Ta51  1  0.16677861  0.38246341  0.87268952  1
  Ta5+  Ta52  1  0.10469204  0.88756610  0.09241954  1
  Ta5+  Ta53  1  0.38688704  0.61440978  0.87929946  1
  Ta5+  Ta54  1  0.62995329  0.61359065  0.88665611  1
  Ta5+  Ta55  1  0.39135110  0.87856537  0.87034652  1
  Ta5+  Ta56  1  0.55532350  0.36095934  0.37506488  1
  Ta5+  Ta57  1  0.41000551  0.11029881  0.12421870  1
  Ta5+  Ta58  1  0.63733298  0.91768969  0.63060073  1
  Ta5+  Ta59  1  0.64791396  0.87665331  0.39104512  1
  Ta5+  Ta60  1  0.32791238  0.12583140  0.63960076  1
  Ta5+  Ta61  1  0.62458101  0.12181276  0.38231806  1
  Ta5+  Ta62  1  0.85290294  0.58862632  0.40785672  1
  Ta5+  Ta63  1  0.13529649  0.60191200  0.36971271  1
  Ta5+  Ta64  1  0.14038970  0.62088545  0.61345946  1
  Ta5+  Ta65  1  0.41218288  0.61915831  0.13179193  1
  Ta5+  Ta66  1  0.55644680  0.36062565  0.63824162  1
  Ta5+  Ta67  1  0.34769846  0.61246403  0.62080855  1
  Ta5+  Ta68  1  0.40481940  0.87210559  0.37614171  1
  Ta5+  Ta69  1  0.15166902  0.88523715  0.61111057  1
  Ta5+  Ta70  1  0.61425259  0.86333998  0.88452103  1
  Ta5+  Ta71  1  0.90769393  0.87665612  0.90613194  1
  Ta5+  Ta72  1  0.86419904  0.12157720  0.87186798  1
  Ta5+  Ta73  1  0.61080621  0.11630233  0.63377793  1
  Ta5+  Ta74  1  0.17481347  0.93746694  0.42157534  1
  W6+  W75  1  0.82587497  0.95463229  0.55891259  1
  W6+  W76  1  0.93887753  0.15796978  0.63762759  1
  W6+  W77  1  0.88807467  0.60484462  0.60356553  1
  W6+  W78  1  0.14358537  0.11920716  0.09053826  1
  W6+  W79  1  0.88268626  0.91431752  0.36806288  1
  W6+  W80  1  0.87782206  0.16072608  0.13883644  1
  W6+  W81  1  0.80794558  0.36801448  0.85010678  1
  W6+  W82  1  0.18284541  0.36760236  0.35893437  1
  O2-  O83  1  0.14840159  -0.01102006  0.12924791  1
  O2-  O84  1  0.08509297  0.01412898  0.37630320  1
  O2-  O85  1  0.13136651  0.00517033  0.61114442  1
  O2-  O86  1  0.13284932  -0.00196104  0.85629210  1
  O2-  O87  1  0.18037896  0.49125431  0.10859573  1
  O2-  O88  1  0.11320871  0.49020444  0.33864220  1
  O2-  O89  1  0.13176930  0.49892658  0.62631301  1
  O2-  O90  1  0.15432102  0.51858820  0.88016119  1
  O2-  O91  1  0.35872017  -0.01327666  0.11218603  1
  O2-  O92  1  0.40147384  -0.00663765  0.38528154  1
  O2-  O93  1  0.37487165  0.00558826  0.62318124  1
  O2-  O94  1  0.34266111  -0.01456855  0.87858849  1
  O2-  O95  1  0.38320698  0.50381216  0.10987701  1
  O2-  O96  1  0.37669920  0.49882753  0.37989013  1
  O2-  O97  1  0.38187566  0.49746415  0.61831649  1
  O2-  O98  1  0.34800311  0.50295360  0.88401116  1
  O2-  O99  1  0.66053108  -0.00084681  0.12580667  1
  O2-  O100  1  0.61783338  -0.00037528  0.38004990  1
  O2-  O101  1  0.55130903  0.00360447  0.65204717  1
  O2-  O102  1  0.59015003  -0.01816466  0.87465072  1
  O2-  O103  1  0.62828418  0.49311483  0.11121567  1
  O2-  O104  1  0.57238961  0.48916009  0.36562109  1
  O2-  O105  1  0.58069274  0.49121597  0.63654068  1
  O2-  O106  1  0.64704646  0.49604404  0.88716330  1
  O2-  O107  1  0.91627834  0.02798085  0.13330231  1
  O2-  O108  1  0.86839704  0.04392580  0.39528960  1
  O2-  O109  1  0.89057545  0.03453196  0.61755287  1
  O2-  O110  1  0.90180536  -0.00271914  0.90055737  1
  O2-  O111  1  0.83817493  0.48374507  0.12862275  1
  O2-  O112  1  0.87089423  0.47183976  0.33921329  1
  O2-  O113  1  0.93489111  0.49398054  0.67514894  1
  O2-  O114  1  0.83029209  0.50680052  0.83635817  1
  O2-  O115  1  0.10991626  0.24984174  0.08272142  1
  O2-  O116  1  0.07859534  0.24667709  0.36329120  1
  O2-  O117  1  0.16118406  0.26553998  0.62592287  1
  O2-  O118  1  0.13527787  0.25730372  0.87886452  1
  O2-  O119  1  0.18169654  0.80334346  0.13671528  1
  O2-  O120  1  0.07251860  0.70764888  0.34798840  1
  O2-  O121  1  0.16435291  0.75205305  0.61683903  1
  O2-  O122  1  0.17202853  0.74349618  0.87572979  1
  O2-  O123  1  0.40281578  0.23848357  0.12246089  1
  O2-  O124  1  0.36023609  0.23639533  0.36424234  1
  O2-  O125  1  0.37756029  0.23780782  0.63591011  1
  O2-  O126  1  0.34936190  0.24013244  0.89359927  1
  O2-  O127  1  0.34817224  0.75109743  0.13182071  1
  O2-  O128  1  0.35823435  0.75531783  0.38075583  1
  O2-  O129  1  0.36760037  0.74526218  0.64426137  1
  O2-  O130  1  0.35056576  0.74401205  0.85769903  1
  O2-  O131  1  0.62538433  0.24395955  0.11678412  1
  O2-  O132  1  0.55365859  0.22919014  0.37251996  1
  O2-  O133  1  0.56523214  0.22973243  0.64192726  1
  O2-  O134  1  0.62778484  0.23213377  0.88927593  1
  O2-  O135  1  0.67765359  0.75504312  0.14134831  1
  O2-  O136  1  0.66403207  0.74566360  0.38543267  1
  O2-  O137  1  0.57639816  0.71235008  0.62645472  1
  O2-  O138  1  0.67921113  0.74441532  0.87926498  1
  O2-  O139  1  0.79688438  0.28428887  0.13417411  1
  O2-  O140  1  0.84685074  0.29742205  0.37650182  1
  O2-  O141  1  0.96703501  0.30380781  0.63037744  1
  O2-  O142  1  0.80423191  0.23125435  0.86239826  1
  O2-  O143  1  0.86685654  0.69922861  0.12641935  1
  O2-  O144  1  0.92016816  0.79139243  0.35228989  1
  O2-  O145  1  1.01188678  0.67217180  0.61014018  1
  O2-  O146  1  0.85423457  0.74691563  0.90024371  1
  O2-  O147  1  0.06859455  0.11947965  -0.02726338  1
  O2-  O148  1  0.15249013  0.14863679  0.23637398  1
  O2-  O149  1  0.14283020  0.15272596  0.49292391  1
  O2-  O150  1  0.13114199  0.13432912  0.74676178  1
  O2-  O151  1  0.13948690  0.65202738  0.01260580  1
  O2-  O152  1  0.16041794  0.63780589  0.21367239  1
  O2-  O153  1  0.10220149  0.61571692  0.48686825  1
  O2-  O154  1  0.10147052  0.65426174  0.75311655  1
  O2-  O155  1  0.41149886  0.11366274  -0.00406516  1
  O2-  O156  1  0.34780689  0.11225942  0.24425149  1
  O2-  O157  1  0.35190731  0.12780157  0.50212051  1
  O2-  O158  1  0.33093394  0.11737056  0.76419921  1
  O2-  O159  1  0.35878829  0.64080763  0.00249787  1
  O2-  O160  1  0.36453021  0.63801814  0.24858790  1
  O2-  O161  1  0.41161097  0.63865709  0.50476259  1
  O2-  O162  1  0.41364209  0.62034089  0.75021622  1
  O2-  O163  1  0.59097123  0.11496157  0.00316729  1
  O2-  O164  1  0.64803911  0.13672713  0.25359199  1
  O2-  O165  1  0.58924549  0.12587353  0.50570505  1
  O2-  O166  1  0.65401427  0.11370864  0.75399862  1
  O2-  O167  1  0.65975610  0.63165607  0.01146577  1
  O2-  O168  1  0.66668700  0.62533243  0.25236358  1
  O2-  O169  1  0.61027354  0.61361214  0.49960471  1
  O2-  O170  1  0.63899670  0.62831818  0.75853964  1
  O2-  O171  1  0.88255722  0.16426948  -0.00447971  1
  O2-  O172  1  0.91616077  0.17771091  0.27736028  1
  O2-  O173  1  0.93847928  0.18636449  0.49014344  1
  O2-  O174  1  0.93192767  0.13937854  0.77592328  1
  O2-  O175  1  0.83727370  0.60338429  -0.01289078  1
  O2-  O176  1  0.86317912  0.64510852  0.29745910  1
  O2-  O177  1  0.85576605  0.68555219  0.48890340  1
  O2-  O178  1  0.86512381  0.66997224  0.74166458  1
  O2-  O179  1  0.08502770  0.38855414  -0.01202884  1
  O2-  O180  1  0.16739873  0.34236749  0.21273953  1
  O2-  O181  1  0.17114063  0.37920412  0.49724557  1
  O2-  O182  1  0.18273149  0.38631349  0.75249113  1
  O2-  O183  1  0.16709638  0.87296271  -0.01788779  1
  O2-  O184  1  0.20870765  0.86279592  0.33654002  1
  O2-  O185  1  0.09659961  0.86425993  0.49328874  1
  O2-  O186  1  0.09573530  0.86152432  0.73057193  1
  O2-  O187  1  0.40933218  0.36541763  -0.00911158  1
  O2-  O188  1  0.36968577  0.36731863  0.24212011  1
  O2-  O189  1  0.37408299  0.35128879  0.50088444  1
  O2-  O190  1  0.37188043  0.36984703  0.76409274  1
  O2-  O191  1  0.37443249  0.85054018  -0.00186515  1
  O2-  O192  1  0.37199142  0.86920983  0.25135221  1
  O2-  O193  1  0.42080734  0.85471589  0.51197302  1
  O2-  O194  1  0.42312006  0.87447556  0.73894506  1
  O2-  O195  1  0.58110171  0.35913320  -0.01147895  1
  O2-  O196  1  0.58577584  0.35143582  0.24484663  1
  O2-  O197  1  0.55887260  0.35457815  0.50456460  1
  O2-  O198  1  0.59964654  0.36357529  0.76364378  1
  O2-  O199  1  0.64819775  0.86012809  0.00742907  1
  O2-  O200  1  0.66516607  0.87365320  0.26213353  1
  O2-  O201  1  0.60459357  0.86970374  0.51994005  1
  O2-  O202  1  0.62564650  0.85472587  0.74745917  1
  O2-  O203  1  0.90800918  0.36773438  -0.04658066  1
  O2-  O204  1  0.95689798  0.34045857  0.12455879  1
  O2-  O205  1  0.82131430  0.40301845  0.53081391  1
  O2-  O206  1  0.80261377  0.36131072  0.71458366  1
  O2-  O207  1  0.83342447  0.87524579  0.02199287  1
  O2-  O208  1  0.83942296  0.87471530  0.22099357  1
  O2-  O209  1  0.75272994  0.86017053  0.62790426  1
  O2-  O210  1  0.88019480  0.86207843  0.78252277  1
  O2-  O211  1  -0.00739442  -0.11337084  0.02257808  1
  O2-  O212  1  0.01134912  -0.13728705  0.18231426  1
  O2-  O213  1  -0.08274476  -0.11670364  0.50042310  1
  O2-  O214  1  0.01492838  -0.18433829  0.87460168  1
  O2-  O215  1  0.00370486  0.55235922  0.03338085  1
  O2-  O216  1  -0.00239134  0.59044602  0.18816092  1
  O2-  O217  1  -0.06872174  0.53869561  0.48749759  1
  O2-  O218  1  -0.01113159  0.61874670  0.87370388  1
  O2-  O219  1  0.23073589  0.11433207  -0.01923598  1
  O2-  O220  1  0.24020249  0.04426525  0.38490395  1
  O2-  O221  1  0.25460623  -0.09531545  0.52304676  1
  O2-  O222  1  0.25641193  -0.11632255  0.68955837  1
  O2-  O223  1  0.24594028  0.35937854  -0.01526499  1
  O2-  O224  1  0.25261952  0.62947261  0.36886117  1
  O2-  O225  1  0.25030006  0.61621500  0.54535312  1
  O2-  O226  1  0.24891696  0.61093449  0.70375534  1
  O2-  O227  1  0.51596466  -0.12780523  0.13509375  1
  O2-  O228  1  0.50296127  0.05728035  0.19107509  1
  O2-  O229  1  0.52106650  -0.15465918  0.36677862  1
  O2-  O230  1  0.50646484  -0.19296401  0.88088629  1
  O2-  O231  1  0.51351419  0.68081140  0.08450568  1
  O2-  O232  1  0.50994896  0.57297461  0.20015644  1
  O2-  O233  1  0.50584615  0.65295301  0.36439978  1
  O2-  O234  1  0.50994799  0.62035025  0.89572674  1
  O2-  O235  1  0.74293489  0.07813627  -0.08311935  1
  O2-  O236  1  0.73879685  0.16748818  0.39480329  1
  O2-  O237  1  0.75898234  -0.09925424  0.43682992  1
  O2-  O238  1  0.70500674  0.01792938  0.59691054  1
  O2-  O239  1  0.74957829  0.36073337  -0.01823867  1
  O2-  O240  1  0.68896366  0.36004086  0.37628916  1
  O2-  O241  1  0.73684787  0.54246940  0.40857377  1
  O2-  O242  1  0.75137936  0.57640319  0.61567050  1
