# generated using pymatgen
data_Gd19Ta56(WO20)8
_symmetry_space_group_name_H-M   'P 1'
_cell_length_a   15.48171873
_cell_length_b   15.51518587
_cell_length_c   15.38986240
_cell_angle_alpha   89.99790751
_cell_angle_beta   89.70075749
_cell_angle_gamma   89.92795166
_symmetry_Int_Tables_number   1
_chemical_formula_structural   Gd19Ta56(WO20)8
_chemical_formula_sum   'Gd19 Ta56 W8 O160'
_cell_volume   3696.61844083
_cell_formula_units_Z   1
loop_
 _symmetry_equiv_pos_site_id
 _symmetry_equiv_pos_as_xyz
  1  'x, y, z'
loop_
 _atom_type_symbol
 _atom_type_oxidation_number
  Gd3+  3.0
  Ta5+  5.0
  W6+  6.0
  O2-  -2.0
loop_
 _atom_site_type_symbol
 _atom_site_label
 _atom_site_symmetry_multiplicity
 _atom_site_fract_x
 _atom_site_fract_y
 _atom_site_fract_z
 _atom_site_occupancy
  Gd3+  Gd0  1  0.76743036  0.73178989  0.48335977  1
  Gd3+  Gd1  1  0.76131558  0.24528015  0.75127188  1
  Gd3+  Gd2  1  0.22023039  0.77163664  -0.00885919  1
  Gd3+  Gd3  1  0.22233761  0.74742129  0.48946633  1
  Gd3+  Gd4  1  0.50146862  0.73926619  0.00204555  1
  Gd3+  Gd5  1  0.23896070  0.75667818  0.75214338  1
  Gd3+  Gd6  1  0.27219760  0.26393293  0.22202097  1
  Gd3+  Gd7  1  0.50616598  0.27411277  0.73634516  1
  Gd3+  Gd8  1  -0.00937315  0.76296212  0.02286857  1
  Gd3+  Gd9  1  0.74982335  0.26281855  0.02370836  1
  Gd3+  Gd10  1  0.74970018  0.74515930  0.73610877  1
  Gd3+  Gd11  1  0.00347946  0.79052886  0.79393263  1
  Gd3+  Gd12  1  0.20995994  0.74814074  0.24830188  1
  Gd3+  Gd13  1  0.51868458  0.25027978  0.25930180  1
  Gd3+  Gd14  1  0.50888688  0.77736756  0.47593014  1
  Gd3+  Gd15  1  0.52796351  0.24793065  0.50039603  1
  Gd3+  Gd16  1  0.48197000  0.75162420  0.24993943  1
  Gd3+  Gd17  1  0.78026118  0.76248501  -0.01470879  1
  Gd3+  Gd18  1  -0.00039527  0.22978618  0.49306724  1
  Ta5+  Ta19  1  0.07946285  0.88013749  0.37696240  1
  Ta5+  Ta20  1  0.42455361  0.12849550  0.11586327  1
  Ta5+  Ta21  1  0.84087076  0.95439655  0.79506841  1
  Ta5+  Ta22  1  0.87940350  0.60453818  0.62886327  1
  Ta5+  Ta23  1  0.37528984  0.37732841  0.37928652  1
  Ta5+  Ta24  1  0.11681200  0.60792642  0.11803118  1
  Ta5+  Ta25  1  0.87558530  0.35759176  0.63210832  1
  Ta5+  Ta26  1  0.38199728  0.61866577  0.86928096  1
  Ta5+  Ta27  1  0.90652564  0.36454873  0.13454803  1
  Ta5+  Ta28  1  0.10633589  0.88181082  0.62237837  1
  Ta5+  Ta29  1  0.87653784  0.88445274  0.14725172  1
  Ta5+  Ta30  1  0.92245245  0.60756880  0.38487616  1
  Ta5+  Ta31  1  0.35064319  0.37940524  0.61918051  1
  Ta5+  Ta32  1  0.35727217  0.62023893  0.38244360  1
  Ta5+  Ta33  1  0.62890951  0.87655565  0.61768026  1
  Ta5+  Ta34  1  0.13643143  0.12598466  0.62609701  1
  Ta5+  Ta35  1  0.63856882  0.38333918  0.86845440  1
  Ta5+  Ta36  1  0.91096759  0.86250312  0.38374874  1
  Ta5+  Ta37  1  0.66045338  0.11603820  0.61507055  1
  Ta5+  Ta38  1  0.62892403  0.62324683  0.13113175  1
  Ta5+  Ta39  1  0.12135277  0.89740650  0.12691366  1
  Ta5+  Ta40  1  0.10010539  0.36052384  0.11679231  1
  Ta5+  Ta41  1  0.09106970  0.61691635  0.37399908  1
  Ta5+  Ta42  1  0.11724206  0.61338573  0.62815173  1
  Ta5+  Ta43  1  0.64628312  0.40112291  0.37035288  1
  Ta5+  Ta44  1  0.59530571  0.89288295  0.12115592  1
  Ta5+  Ta45  1  0.38070548  0.12311559  0.62191228  1
  Ta5+  Ta46  1  0.12133498  0.14843544  0.88711804  1
  Ta5+  Ta47  1  0.63447175  0.87925165  0.87402940  1
  Ta5+  Ta48  1  0.34632687  0.88658186  0.37202643  1
  Ta5+  Ta49  1  0.90035115  0.86185020  0.60178329  1
  Ta5+  Ta50  1  0.83881799  0.09683908  0.41028604  1
  Ta5+  Ta51  1  0.87414151  0.61193335  0.14123948  1
  Ta5+  Ta52  1  0.37704526  0.88971146  0.11692735  1
  Ta5+  Ta53  1  0.39851846  0.87760998  0.87443486  1
  Ta5+  Ta54  1  0.87990294  0.35873319  0.37712781  1
  Ta5+  Ta55  1  0.59267231  0.61904925  0.63103002  1
  Ta5+  Ta56  1  0.91451106  0.35825706  0.88194024  1
  Ta5+  Ta57  1  0.60894099  0.12731470  0.86871584  1
  Ta5+  Ta58  1  0.38705786  0.61811158  0.62763717  1
  Ta5+  Ta59  1  0.59679285  0.58817207  0.37311419  1
  Ta5+  Ta60  1  0.38117278  0.87679594  0.62292157  1
  Ta5+  Ta61  1  0.64660885  0.91298343  0.35772231  1
  Ta5+  Ta62  1  0.86602333  0.09850568  0.63273714  1
  Ta5+  Ta63  1  0.10919615  0.61104429  0.87280815  1
  Ta5+  Ta64  1  0.43081043  0.37579685  0.11455302  1
  Ta5+  Ta65  1  0.36673897  0.61204961  0.12597242  1
  Ta5+  Ta66  1  0.13069829  0.36790384  0.37039407  1
  Ta5+  Ta67  1  0.38246060  0.12512413  0.37548994  1
  Ta5+  Ta68  1  0.59501421  0.13020008  0.11067285  1
  Ta5+  Ta69  1  0.90224964  0.60765959  0.87783222  1
  Ta5+  Ta70  1  0.14353821  0.12350077  0.36884775  1
  Ta5+  Ta71  1  0.88519782  0.13772423  0.89661903  1
  Ta5+  Ta72  1  0.08497558  0.36754104  0.87105368  1
  Ta5+  Ta73  1  0.63089453  0.61482148  0.87297895  1
  Ta5+  Ta74  1  0.62786363  0.10642909  0.36520180  1
  W6+  W75  1  0.10149429  0.36408090  0.62546841  1
  W6+  W76  1  0.44706231  0.12486728  0.86437709  1
  W6+  W77  1  0.84847565  0.13483993  0.15919086  1
  W6+  W78  1  0.13318012  0.14735958  0.12340107  1
  W6+  W79  1  0.37619917  0.37718961  0.87273574  1
  W6+  W80  1  0.63016190  0.38984980  0.61890570  1
  W6+  W81  1  0.08146887  0.99300895  0.80818311  1
  W6+  W82  1  0.59339915  0.38191295  0.11953245  1
  O2-  O83  1  0.11644258  0.01346569  0.12924344  1
  O2-  O84  1  0.09824458  0.01284746  0.36130043  1
  O2-  O85  1  0.11490463  0.00257492  0.61490262  1
  O2-  O86  1  0.18713873  0.04499713  0.88415091  1
  O2-  O87  1  0.10586240  0.48731313  0.11419464  1
  O2-  O88  1  0.11667076  0.48645602  0.37257439  1
  O2-  O89  1  0.12822453  0.49712618  0.62197711  1
  O2-  O90  1  0.11815974  0.49136443  0.88025714  1
  O2-  O91  1  0.37286993  0.00781596  0.13360571  1
  O2-  O92  1  0.37492721  0.00269097  0.34997699  1
  O2-  O93  1  0.36686648  -0.00241282  0.63600824  1
  O2-  O94  1  0.42611526  -0.01133257  0.86311386  1
  O2-  O95  1  0.39275813  0.49709682  0.14549573  1
  O2-  O96  1  0.35495783  0.49942390  0.36430281  1
  O2-  O97  1  0.33779484  0.50554245  0.62450557  1
  O2-  O98  1  0.33462225  0.51158755  0.86483558  1
  O2-  O99  1  0.61354337  0.00452904  0.08619728  1
  O2-  O100  1  0.55905205  -0.00437166  0.37109870  1
  O2-  O101  1  0.62308767  -0.00296578  0.62218516  1
  O2-  O102  1  0.61892959  -0.00387586  0.88052489  1
  O2-  O103  1  0.57585334  0.52036128  0.11820332  1
  O2-  O104  1  0.53768814  0.48320114  0.39595657  1
  O2-  O105  1  0.64572621  0.52547181  0.58344691  1
  O2-  O106  1  0.68037017  0.50667236  0.88618432  1
  O2-  O107  1  0.86347494  0.00018816  0.15446149  1
  O2-  O108  1  0.89442932  -0.00840806  0.39249621  1
  O2-  O109  1  0.92099640  -0.02073776  0.62806191  1
  O2-  O110  1  0.82561720  0.02975462  0.89428993  1
  O2-  O111  1  0.89204158  0.48888410  0.12852425  1
  O2-  O112  1  0.90282036  0.47952368  0.38308801  1
  O2-  O113  1  0.88951111  0.48596535  0.64527592  1
  O2-  O114  1  0.90641063  0.48616743  0.87435196  1
  O2-  O115  1  0.18964161  0.27016036  0.10452207  1
  O2-  O116  1  0.08311033  0.23599176  0.36347119  1
  O2-  O117  1  0.06784978  0.22971839  0.62757402  1
  O2-  O118  1  0.15675444  0.26176607  0.86068918  1
  O2-  O119  1  0.13504480  0.74288928  0.11764370  1
  O2-  O120  1  0.10849339  0.74867473  0.36825403  1
  O2-  O121  1  0.16124735  0.74508119  0.62706955  1
  O2-  O122  1  0.13885039  0.74090301  0.86645708  1
  O2-  O123  1  0.38471840  0.25456413  0.11801023  1
  O2-  O124  1  0.42526235  0.25318426  0.38938545  1
  O2-  O125  1  0.41273874  0.25542923  0.60992223  1
  O2-  O126  1  0.43683377  0.25920149  0.86216499  1
  O2-  O127  1  0.39349894  0.74614709  0.11005737  1
  O2-  O128  1  0.36672254  0.75941027  0.39742563  1
  O2-  O129  1  0.34084353  0.75433567  0.61081526  1
  O2-  O130  1  0.33700952  0.73670719  0.88974266  1
  O2-  O131  1  0.62681140  0.24974583  0.13361712  1
  O2-  O132  1  0.60966340  0.23410438  0.36962457  1
  O2-  O133  1  0.61851093  0.24454368  0.62945443  1
  O2-  O134  1  0.63392038  0.25753587  0.84317843  1
  O2-  O135  1  0.57789038  0.74655433  0.13212157  1
  O2-  O136  1  0.56364597  0.81653654  0.34786467  1
  O2-  O137  1  0.64998126  0.73723212  0.61750040  1
  O2-  O138  1  0.68168864  0.73069924  0.87067528  1
  O2-  O139  1  0.82346743  0.27138871  0.15100973  1
  O2-  O140  1  0.88094466  0.23051054  0.40733871  1
  O2-  O141  1  0.85700944  0.22985949  0.62049571  1
  O2-  O142  1  0.82216747  0.25178129  0.88699710  1
  O2-  O143  1  0.85858383  0.73830875  0.11651257  1
  O2-  O144  1  0.89800908  0.73318213  0.40415485  1
  O2-  O145  1  0.83796449  0.73225433  0.61237480  1
  O2-  O146  1  0.90389852  0.74592658  0.89482322  1
  O2-  O147  1  0.09064190  0.15985204  0.00350393  1
  O2-  O148  1  0.18457762  0.14627173  0.24853879  1
  O2-  O149  1  0.12000174  0.13265856  0.49658515  1
  O2-  O150  1  0.12058637  0.11729816  0.74923851  1
  O2-  O151  1  0.16770119  0.62697313  -0.00862242  1
  O2-  O152  1  0.11100578  0.62171677  0.24329748  1
  O2-  O153  1  0.13430532  0.63013127  0.50256877  1
  O2-  O154  1  0.16993665  0.62046182  0.74703579  1
  O2-  O155  1  0.43069369  0.12112018  -0.00230841  1
  O2-  O156  1  0.38998047  0.15507555  0.25159037  1
  O2-  O157  1  0.41628575  0.11516847  0.50284318  1
  O2-  O158  1  0.45055079  0.13093115  0.72195877  1
  O2-  O159  1  0.40099249  0.61787107  0.00145725  1
  O2-  O160  1  0.38108147  0.64322093  0.24956042  1
  O2-  O161  1  0.33415740  0.62345463  0.50572389  1
  O2-  O162  1  0.35299518  0.65067712  0.74569185  1
  O2-  O163  1  0.64435602  0.15460647  -0.01327465  1
  O2-  O164  1  0.60591919  0.11213886  0.24130053  1
  O2-  O165  1  0.60442164  0.12272278  0.49846833  1
  O2-  O166  1  0.65810654  0.12659280  0.74500978  1
  O2-  O167  1  0.62447835  0.64661094  0.00233376  1
  O2-  O168  1  0.59465738  0.63541178  0.25638725  1
  O2-  O169  1  0.63702971  0.66445824  0.45987451  1
  O2-  O170  1  0.64746176  0.62218052  0.74591000  1
  O2-  O171  1  0.86156578  0.15107265  0.01854354  1
  O2-  O172  1  0.82748797  0.12218630  0.29256309  1
  O2-  O173  1  0.92402903  0.10750322  0.51669753  1
  O2-  O174  1  0.87398491  0.14082784  0.76128097  1
  O2-  O175  1  0.83530725  0.62062965  -0.01465499  1
  O2-  O176  1  0.89487919  0.61860801  0.25974454  1
  O2-  O177  1  0.84787236  0.60219046  0.50705663  1
  O2-  O178  1  0.84158173  0.62680738  0.75771599  1
  O2-  O179  1  0.07158095  0.35288853  -0.00121984  1
  O2-  O180  1  0.14398050  0.35594878  0.24350594  1
  O2-  O181  1  0.10582866  0.34821541  0.49060445  1
  O2-  O182  1  0.06844184  0.37600487  0.75076970  1
  O2-  O183  1  0.10414978  0.86220047  0.00421499  1
  O2-  O184  1  0.12831369  0.86854639  0.25087193  1
  O2-  O185  1  0.10782734  0.85701952  0.49949088  1
  O2-  O186  1  0.13635910  0.87500770  0.75072417  1
  O2-  O187  1  0.41277865  0.38910323  -0.00191156  1
  O2-  O188  1  0.39860063  0.35517055  0.25435813  1
  O2-  O189  1  0.40434834  0.38689699  0.50127555  1
  O2-  O190  1  0.39481218  0.37504337  0.73378833  1
  O2-  O191  1  0.33021381  0.87876785  -0.01994794  1
  O2-  O192  1  0.34583168  0.84389559  0.25022127  1
  O2-  O193  1  0.39914121  0.88785240  0.49245495  1
  O2-  O194  1  0.35745198  0.85684024  0.75713289  1
  O2-  O195  1  0.63296202  0.36129141  -0.01123456  1
  O2-  O196  1  0.59161968  0.37915139  0.26351192  1
  O2-  O197  1  0.62340354  0.36091734  0.48475892  1
  O2-  O198  1  0.59166524  0.40181925  0.75256023  1
  O2-  O199  1  0.64601029  0.84507273  0.00230064  1
  O2-  O200  1  0.66062436  0.90108329  0.22783866  1
  O2-  O201  1  0.64385891  0.86727094  0.48899444  1
  O2-  O202  1  0.63859475  0.85876213  0.74731570  1
  O2-  O203  1  0.88848483  0.35218401  0.00926792  1
  O2-  O204  1  0.92796238  0.35102093  0.26462884  1
  O2-  O205  1  0.91484405  0.36021740  0.50873296  1
  O2-  O206  1  0.89356026  0.33708722  0.75637839  1
  O2-  O207  1  0.87029637  0.86930860  0.02180940  1
  O2-  O208  1  0.87494124  0.84642315  0.26709359  1
  O2-  O209  1  0.83381867  0.86688115  0.49861624  1
  O2-  O210  1  0.86096273  0.84063583  0.73203155  1
  O2-  O211  1  0.00125129  0.10001562  -0.12733300  1
  O2-  O212  1  -0.00179076  -0.13820113  0.13914246  1
  O2-  O213  1  0.00513681  -0.19634682  0.64722032  1
  O2-  O214  1  -0.03753505  -0.06724589  0.81958555  1
  O2-  O215  1  0.00801947  0.62196084  -0.04934490  1
  O2-  O216  1  -0.00403892  0.63911646  0.10958341  1
  O2-  O217  1  -0.00287456  0.63200211  0.62127911  1
  O2-  O218  1  0.00748001  0.63757588  0.79485874  1
  O2-  O219  1  0.24785710  -0.13197654  0.11902752  1
  O2-  O220  1  0.23054216  -0.12005389  0.39432148  1
  O2-  O221  1  0.26402234  0.13963758  0.40041524  1
  O2-  O222  1  0.25935402  0.14422216  0.62507136  1
  O2-  O223  1  0.24833569  0.61542370  0.13870666  1
  O2-  O224  1  0.23944037  0.64876706  0.35923372  1
  O2-  O225  1  0.25740738  0.34125171  0.37464817  1
  O2-  O226  1  0.24096948  0.34202572  0.61797907  1
  O2-  O227  1  0.48124321  -0.11956355  0.03585867  1
  O2-  O228  1  0.48910931  -0.11211482  0.19272979  1
  O2-  O229  1  0.50328094  -0.14979515  0.62318229  1
  O2-  O230  1  0.51270841  -0.17752234  0.87376355  1
  O2-  O231  1  0.50665527  0.63145980  -0.13433119  1
  O2-  O232  1  0.48288795  0.65147541  0.38551417  1
  O2-  O233  1  0.49087194  0.66532174  0.56485710  1
  O2-  O234  1  0.49102314  0.56840785  0.68525188  1
  O2-  O235  1  0.76091516  -0.12299300  -0.13637918  1
  O2-  O236  1  0.72164220  0.01900235  0.38811298  1
  O2-  O237  1  0.76677679  0.09602207  0.54395450  1
  O2-  O238  1  0.78365283  0.01343794  0.70560858  1
  O2-  O239  1  0.74500801  0.60343352  0.14858335  1
  O2-  O240  1  0.69725262  0.51437507  0.35731903  1
  O2-  O241  1  0.75979661  0.35386594  0.35662828  1
  O2-  O242  1  0.75590812  0.36744072  0.65540012  1
