# generated using pymatgen
data_Gd19Ta56(WO20)8
_symmetry_space_group_name_H-M   'P 1'
_cell_length_a   15.51862337
_cell_length_b   15.47233201
_cell_length_c   15.29670821
_cell_angle_alpha   90.00115258
_cell_angle_beta   90.05791173
_cell_angle_gamma   90.05286367
_symmetry_Int_Tables_number   1
_chemical_formula_structural   Gd19Ta56(WO20)8
_chemical_formula_sum   'Gd19 Ta56 W8 O160'
_cell_volume   3672.87835398
_cell_formula_units_Z   1
loop_
 _symmetry_equiv_pos_site_id
 _symmetry_equiv_pos_as_xyz
  1  'x, y, z'
loop_
 _atom_type_symbol
 _atom_type_oxidation_number
  Gd3+  3.0
  Ta5+  5.0
  W6+  6.0
  O2-  -2.0
loop_
 _atom_site_type_symbol
 _atom_site_label
 _atom_site_symmetry_multiplicity
 _atom_site_fract_x
 _atom_site_fract_y
 _atom_site_fract_z
 _atom_site_occupancy
  Gd3+  Gd0  1  0.76733742  0.73191247  -0.00081509  1
  Gd3+  Gd1  1  0.25388629  0.24331441  -0.02199972  1
  Gd3+  Gd2  1  0.48980240  0.73973842  0.00077189  1
  Gd3+  Gd3  1  0.00535833  0.76311923  0.25248294  1
  Gd3+  Gd4  1  0.48167204  0.25411715  0.48664140  1
  Gd3+  Gd5  1  0.02731547  0.23973571  0.75984928  1
  Gd3+  Gd6  1  0.02365437  0.26615501  -0.00271453  1
  Gd3+  Gd7  1  0.48113673  0.23705496  0.00112642  1
  Gd3+  Gd8  1  0.48371800  0.75069800  0.50318770  1
  Gd3+  Gd9  1  0.50058720  0.23279327  0.24266928  1
  Gd3+  Gd10  1  0.77402674  0.26398755  0.24469047  1
  Gd3+  Gd11  1  -0.00159676  0.22671025  0.52205224  1
  Gd3+  Gd12  1  0.48597804  0.72456392  0.74251141  1
  Gd3+  Gd13  1  0.03715055  0.76678155  -0.01089439  1
  Gd3+  Gd14  1  0.23962771  0.26070552  0.48839961  1
  Gd3+  Gd15  1  0.72642496  0.77590309  0.49790992  1
  Gd3+  Gd16  1  0.71210297  0.25579065  0.78841291  1
  Gd3+  Gd17  1  0.00835956  0.26050962  0.24251612  1
  Gd3+  Gd18  1  0.75842587  0.74832656  0.25577488  1
  Ta5+  Ta19  1  0.34208390  0.63044497  0.87896873  1
  Ta5+  Ta20  1  0.61194011  0.37655069  0.62701157  1
  Ta5+  Ta21  1  0.87141078  0.42873383  0.10914911  1
  Ta5+  Ta22  1  0.88089285  0.62605823  0.39131868  1
  Ta5+  Ta23  1  0.16337541  0.64315909  0.62352848  1
  Ta5+  Ta24  1  0.35114776  0.85868791  0.87613676  1
  Ta5+  Ta25  1  0.64441185  0.87266151  0.11252481  1
  Ta5+  Ta26  1  0.87989548  0.11623254  0.86104095  1
  Ta5+  Ta27  1  0.63095324  0.86424441  0.86274035  1
  Ta5+  Ta28  1  0.88379612  0.62577639  0.86186917  1
  Ta5+  Ta29  1  0.38084322  0.62865450  0.14200929  1
  Ta5+  Ta30  1  0.58171525  0.87921486  0.62417116  1
  Ta5+  Ta31  1  0.18523824  0.86549303  0.87147674  1
  Ta5+  Ta32  1  0.89094365  0.86854477  0.11444996  1
  Ta5+  Ta33  1  0.63759368  0.11532085  0.09915103  1
  Ta5+  Ta34  1  0.12339394  0.09797456  0.88423411  1
  Ta5+  Ta35  1  0.66345317  0.62122696  0.62202919  1
  Ta5+  Ta36  1  0.14175302  0.39639699  0.87560385  1
  Ta5+  Ta37  1  0.19516413  0.87040920  0.62248592  1
  Ta5+  Ta38  1  0.63229861  0.60597037  0.12683787  1
  Ta5+  Ta39  1  0.63682915  0.61195850  0.86825813  1
  Ta5+  Ta40  1  0.39155060  0.86489419  0.13316838  1
  Ta5+  Ta41  1  0.38270652  0.87585316  0.36280603  1
  Ta5+  Ta42  1  0.39024695  0.38941322  0.87192018  1
  Ta5+  Ta43  1  0.16747883  0.11499543  0.63307998  1
  Ta5+  Ta44  1  0.90676901  0.96773496  0.45654778  1
  Ta5+  Ta45  1  0.13750630  0.09134329  0.13146035  1
  Ta5+  Ta46  1  0.08497265  0.40449909  0.63153663  1
  Ta5+  Ta47  1  0.56045156  0.38479525  0.87371221  1
  Ta5+  Ta48  1  0.87136203  0.37953779  0.63654922  1
  Ta5+  Ta49  1  0.11042179  0.39671100  0.38257070  1
  Ta5+  Ta50  1  0.88861883  0.37863975  0.86125617  1
  Ta5+  Ta51  1  0.36032501  0.11671462  0.36940801  1
  Ta5+  Ta52  1  0.87256269  0.86846555  0.85953703  1
  Ta5+  Ta53  1  0.12013081  0.88377022  0.38866408  1
  Ta5+  Ta54  1  0.83302889  0.62865069  0.62857529  1
  Ta5+  Ta55  1  0.64074183  0.36627190  0.10960462  1
  Ta5+  Ta56  1  0.17530117  0.63769578  0.87380450  1
  Ta5+  Ta57  1  0.13439418  0.63369846  0.12763398  1
  Ta5+  Ta58  1  0.33098942  0.62697637  0.61783387  1
  Ta5+  Ta59  1  0.34069486  0.08427108  0.12610044  1
  Ta5+  Ta60  1  0.36447547  0.38274657  0.62284622  1
  Ta5+  Ta61  1  0.90730003  0.61637804  0.12126594  1
  Ta5+  Ta62  1  0.60601681  0.61556249  0.36749036  1
  Ta5+  Ta63  1  0.38285851  0.38443181  0.12754816  1
  Ta5+  Ta64  1  0.62132180  0.12468313  0.38112158  1
  Ta5+  Ta65  1  0.35085102  0.37884173  0.33650269  1
  Ta5+  Ta66  1  0.16819412  0.38843663  0.13812108  1
  Ta5+  Ta67  1  0.86961398  0.38575284  0.42330392  1
  Ta5+  Ta68  1  0.15433038  0.88411680  0.13209778  1
  Ta5+  Ta69  1  0.36584932  0.88054903  0.62604098  1
  Ta5+  Ta70  1  0.39793029  0.61807711  0.36944769  1
  Ta5+  Ta71  1  0.87008992  0.11385473  0.11460062  1
  Ta5+  Ta72  1  0.60524369  0.11038815  0.89109770  1
  Ta5+  Ta73  1  0.87179769  0.88030501  0.63232147  1
  Ta5+  Ta74  1  0.59533274  0.12988209  0.63508725  1
  W6+  W75  1  0.11775645  0.12591823  0.37489306  1
  W6+  W76  1  0.13270535  0.63934007  0.37578037  1
  W6+  W77  1  0.62150712  0.87919350  0.36146912  1
  W6+  W78  1  0.84955333  0.11214880  0.65044648  1
  W6+  W79  1  0.86850480  0.12785691  0.38126945  1
  W6+  W80  1  0.63270938  0.37400173  0.37183029  1
  W6+  W81  1  0.33177217  0.13096993  0.62992817  1
  W6+  W82  1  0.37331324  0.10495488  0.87449951  1
  O2-  O83  1  0.07629731  -0.01871077  0.12354062  1
  O2-  O84  1  0.15036703  -0.00051325  0.37716805  1
  O2-  O85  1  0.16264814  -0.00278683  0.61892778  1
  O2-  O86  1  0.11227704  -0.01990951  0.88623501  1
  O2-  O87  1  0.16109973  0.50924667  0.12948196  1
  O2-  O88  1  0.14625164  0.50942752  0.38264060  1
  O2-  O89  1  0.09990357  0.52133310  0.62908168  1
  O2-  O90  1  0.13228367  0.51533679  0.87920680  1
  O2-  O91  1  0.41680952  -0.01121044  0.12172096  1
  O2-  O92  1  0.34165687  -0.00137105  0.37669136  1
  O2-  O93  1  0.36324795  -0.00046395  0.62684336  1
  O2-  O94  1  0.37216477  -0.02219614  0.89071599  1
  O2-  O95  1  0.39483788  0.50663266  0.12944579  1
  O2-  O96  1  0.37949136  0.49132599  0.37155340  1
  O2-  O97  1  0.32573004  0.49679486  0.61317302  1
  O2-  O98  1  0.36806987  0.51158466  0.88754767  1
  O2-  O99  1  0.66514991  -0.00499991  0.09872734  1
  O2-  O100  1  0.64285707  0.00982848  0.36974577  1
  O2-  O101  1  0.58803181  0.00878129  0.62967511  1
  O2-  O102  1  0.61700782  -0.01466212  0.87630933  1
  O2-  O103  1  0.61544670  0.48487090  0.13820714  1
  O2-  O104  1  0.64866754  0.50454107  0.37381895  1
  O2-  O105  1  0.65006235  0.49160702  0.62489053  1
  O2-  O106  1  0.57031444  0.51226049  0.87360614  1
  O2-  O107  1  0.88636375  -0.00384268  0.13565635  1
  O2-  O108  1  0.84718546  -0.00500209  0.35448160  1
  O2-  O109  1  0.81411036  -0.01961465  0.66432472  1
  O2-  O110  1  0.88479543  -0.00936148  0.86177140  1
  O2-  O111  1  0.96933530  0.50295986  0.12097254  1
  O2-  O112  1  0.85091098  0.50910415  0.39283057  1
  O2-  O113  1  0.85525980  0.50044292  0.63972093  1
  O2-  O114  1  0.88945179  0.50163977  0.85179448  1
  O2-  O115  1  0.10145801  0.28132572  0.12761451  1
  O2-  O116  1  0.08197226  0.25960326  0.38763621  1
  O2-  O117  1  0.09818897  0.24358417  0.63375547  1
  O2-  O118  1  0.13462269  0.25078027  0.88898576  1
  O2-  O119  1  0.10622420  0.76471671  0.13262029  1
  O2-  O120  1  0.07721942  0.75778183  0.37851463  1
  O2-  O121  1  0.13713357  0.76300156  0.63543254  1
  O2-  O122  1  0.12225861  0.75633853  0.86615981  1
  O2-  O123  1  0.40916729  0.25733955  0.12747036  1
  O2-  O124  1  0.39661178  0.26084014  0.35164357  1
  O2-  O125  1  0.29998762  0.27568131  0.62623219  1
  O2-  O126  1  0.37645773  0.25184990  0.89577569  1
  O2-  O127  1  0.42166339  0.74719984  0.15963907  1
  O2-  O128  1  0.40939759  0.74897939  0.36699135  1
  O2-  O129  1  0.39626375  0.74172355  0.61978746  1
  O2-  O130  1  0.41670637  0.74070294  0.87370961  1
  O2-  O131  1  0.59626531  0.24528599  0.09732918  1
  O2-  O132  1  0.57664651  0.25281076  0.37038145  1
  O2-  O133  1  0.65914337  0.25441872  0.64737814  1
  O2-  O134  1  0.58090162  0.24575117  0.88349815  1
  O2-  O135  1  0.67283837  0.73900178  0.11991452  1
  O2-  O136  1  0.63659302  0.74122410  0.36280755  1
  O2-  O137  1  0.60677451  0.74650309  0.61551065  1
  O2-  O138  1  0.59151394  0.73550103  0.88182328  1
  O2-  O139  1  0.95631050  0.19932100  0.10680459  1
  O2-  O140  1  0.89970582  0.26312397  0.41409600  1
  O2-  O141  1  0.89273097  0.24462065  0.63138441  1
  O2-  O142  1  0.86583470  0.25169772  0.87148538  1
  O2-  O143  1  0.92818862  0.74056850  0.09895932  1
  O2-  O144  1  0.81593107  0.73256341  0.38950550  1
  O2-  O145  1  0.81802841  0.76467120  0.61686261  1
  O2-  O146  1  0.92142461  0.75025947  0.89176107  1
  O2-  O147  1  0.10104152  0.12719534  0.01857709  1
  O2-  O148  1  0.08717968  0.13154974  0.23495521  1
  O2-  O149  1  0.14236742  0.14292239  0.51006026  1
  O2-  O150  1  0.12972724  0.12270140  0.75985826  1
  O2-  O151  1  0.12519486  0.64698327  0.00340889  1
  O2-  O152  1  0.08706859  0.63612951  0.24619243  1
  O2-  O153  1  0.16319372  0.64220177  0.50096671  1
  O2-  O154  1  0.17975946  0.63050785  0.75243127  1
  O2-  O155  1  0.37289408  0.12701024  0.01308183  1
  O2-  O156  1  0.38211873  0.12235474  0.23587114  1
  O2-  O157  1  0.35687035  0.15759149  0.49082792  1
  O2-  O158  1  0.33490668  0.13156164  0.76276279  1
  O2-  O159  1  0.36310832  0.65002289  0.01552106  1
  O2-  O160  1  0.33112701  0.62497115  0.25855180  1
  O2-  O161  1  0.34752433  0.63405594  0.48469270  1
  O2-  O162  1  0.36184627  0.63291444  0.74631009  1
  O2-  O163  1  0.54381578  0.10014713  0.01123082  1
  O2-  O164  1  0.60090096  0.12211534  0.21922451  1
  O2-  O165  1  0.61987394  0.13966044  0.50526005  1
  O2-  O166  1  0.61105260  0.12971716  0.76322954  1
  O2-  O167  1  0.66959836  0.61139001  0.00554590  1
  O2-  O168  1  0.67638978  0.62170103  0.24395052  1
  O2-  O169  1  0.67135694  0.63407743  0.49339874  1
  O2-  O170  1  0.61634500  0.63206619  0.74500754  1
  O2-  O171  1  0.86590045  0.10843891  -0.00997754  1
  O2-  O172  1  0.88168638  0.16260470  0.24501035  1
  O2-  O173  1  0.89834941  0.08314900  0.51747537  1
  O2-  O174  1  0.78748478  0.13096149  0.77650949  1
  O2-  O175  1  0.87859168  0.61538428  -0.00517017  1
  O2-  O176  1  0.89807605  0.64358730  0.25599949  1
  O2-  O177  1  0.89007612  0.63302314  0.51445629  1
  O2-  O178  1  0.88164339  0.65165937  0.74122954  1
  O2-  O179  1  0.11786773  0.38534082  0.00508627  1
  O2-  O180  1  0.10974450  0.38175088  0.25484394  1
  O2-  O181  1  0.13858480  0.37545372  0.51755370  1
  O2-  O182  1  0.14336786  0.38182729  0.74345405  1
  O2-  O183  1  0.16564112  0.86468877  0.00895163  1
  O2-  O184  1  0.14219253  0.86766631  0.26085640  1
  O2-  O185  1  0.18433429  0.86142104  0.48960706  1
  O2-  O186  1  0.18753628  0.88147237  0.75043838  1
  O2-  O187  1  0.43252738  0.38225970  0.00614320  1
  O2-  O188  1  0.44646582  0.37821553  0.24154135  1
  O2-  O189  1  0.36943631  0.35427991  0.49050441  1
  O2-  O190  1  0.37450425  0.38355487  0.75018078  1
  O2-  O191  1  0.36736692  0.83901968  0.01253733  1
  O2-  O192  1  0.33259436  0.87357757  0.24421901  1
  O2-  O193  1  0.38445065  0.86523073  0.49160492  1
  O2-  O194  1  0.38240205  0.85156132  0.75231739  1
  O2-  O195  1  0.61055077  0.38244294  -0.00964697  1
  O2-  O196  1  0.63740952  0.33477176  0.23461165  1
  O2-  O197  1  0.60378687  0.35510186  0.50416289  1
  O2-  O198  1  0.61136961  0.37174903  0.76002941  1
  O2-  O199  1  0.66873341  0.84724827  -0.01086792  1
  O2-  O200  1  0.67779303  0.87181308  0.23359754  1
  O2-  O201  1  0.58689881  0.86741303  0.49594568  1
  O2-  O202  1  0.57058104  0.85649313  0.75178974  1
  O2-  O203  1  0.89740897  0.38121660  -0.00584851  1
  O2-  O204  1  0.89803675  0.35331577  0.20327321  1
  O2-  O205  1  0.80268931  0.37350790  0.52937919  1
  O2-  O206  1  0.81302380  0.36342875  0.75426476  1
  O2-  O207  1  0.85024100  0.86599406  -0.00696156  1
  O2-  O208  1  0.87591051  0.83492381  0.23434408  1
  O2-  O209  1  0.81687418  0.89398850  0.50203564  1
  O2-  O210  1  0.92127511  0.85247574  0.74532902  1
  O2-  O211  1  0.00227233  0.15063596  -0.10950288  1
  O2-  O212  1  -0.00254602  -0.09293608  0.39617329  1
  O2-  O213  1  -0.03078581  -0.08330468  0.57204907  1
  O2-  O214  1  -0.05418664  0.11799567  0.74453126  1
  O2-  O215  1  0.01055709  0.35910318  -0.13134671  1
  O2-  O216  1  -0.01258020  0.40989644  0.37811386  1
  O2-  O217  1  -0.02750993  0.37718381  0.54868318  1
  O2-  O218  1  -0.01942023  0.38095692  0.70975401  1
  O2-  O219  1  0.23648433  0.00338248  0.13809341  1
  O2-  O220  1  0.23994043  0.16623094  0.11749182  1
  O2-  O221  1  0.24813223  0.16605004  0.35465332  1
  O2-  O222  1  0.24044293  0.10883727  0.91280098  1
  O2-  O223  1  0.27093942  0.35796342  0.07021119  1
  O2-  O224  1  0.28423012  0.38892612  0.22256690  1
  O2-  O225  1  0.23615494  0.35520046  0.37720080  1
  O2-  O226  1  0.25894171  0.37486263  0.89283560  1
  O2-  O227  1  0.52547131  -0.14059382  0.10173628  1
  O2-  O228  1  0.49199083  -0.09314317  0.33314143  1
  O2-  O229  1  0.48951631  0.11819686  0.37454628  1
  O2-  O230  1  0.48514698  0.17484321  0.61852383  1
  O2-  O231  1  0.51650241  0.63019153  0.10378464  1
  O2-  O232  1  0.50708188  0.60735206  0.28876223  1
  O2-  O233  1  0.50813056  0.61730345  0.44892014  1
  O2-  O234  1  0.48803263  0.37356770  0.62333440  1
  O2-  O235  1  0.69606975  0.13451441  -0.03322362  1
  O2-  O236  1  0.75454090  0.15906886  0.12970472  1
  O2-  O237  1  0.73234000  0.17129291  0.35189896  1
  O2-  O238  1  0.75424706  -0.15159164  0.83546697  1
  O2-  O239  1  0.75945631  0.35183201  0.10205483  1
  O2-  O240  1  0.80184398  0.52798691  0.13318721  1
  O2-  O241  1  0.77326717  0.36434276  0.35046245  1
  O2-  O242  1  0.76099143  0.65949172  0.86733751  1
