# generated using pymatgen
data_Gd19Ta56(WO20)8
_symmetry_space_group_name_H-M   'P 1'
_cell_length_a   15.50316343
_cell_length_b   15.45128650
_cell_length_c   15.27108782
_cell_angle_alpha   89.93092858
_cell_angle_beta   89.95090889
_cell_angle_gamma   89.89874855
_symmetry_Int_Tables_number   1
_chemical_formula_structural   Gd19Ta56(WO20)8
_chemical_formula_sum   'Gd19 Ta56 W8 O160'
_cell_volume   3658.08500282
_cell_formula_units_Z   1
loop_
 _symmetry_equiv_pos_site_id
 _symmetry_equiv_pos_as_xyz
  1  'x, y, z'
loop_
 _atom_type_symbol
 _atom_type_oxidation_number
  Gd3+  3.0
  Ta5+  5.0
  W6+  6.0
  O2-  -2.0
loop_
 _atom_site_type_symbol
 _atom_site_label
 _atom_site_symmetry_multiplicity
 _atom_site_fract_x
 _atom_site_fract_y
 _atom_site_fract_z
 _atom_site_occupancy
  Gd3+  Gd0  1  0.25870936  0.74436861  0.47801104  1
  Gd3+  Gd1  1  0.72880686  0.22504483  0.79593416  1
  Gd3+  Gd2  1  0.50505823  0.25493350  0.24840686  1
  Gd3+  Gd3  1  0.70232481  0.74544105  0.47342651  1
  Gd3+  Gd4  1  0.00950790  0.25453259  0.00541871  1
  Gd3+  Gd5  1  0.54994744  0.78016232  0.25017523  1
  Gd3+  Gd6  1  0.50776605  0.26501868  0.50540800  1
  Gd3+  Gd7  1  0.50821332  0.79881881  0.00163175  1
  Gd3+  Gd8  1  0.25801606  0.25492551  0.25296136  1
  Gd3+  Gd9  1  -0.00737751  0.74003716  0.75126767  1
  Gd3+  Gd10  1  -0.00889795  0.25458820  0.74881130  1
  Gd3+  Gd11  1  0.25880734  0.24510695  -0.00376292  1
  Gd3+  Gd12  1  0.27599079  0.24723167  0.48895185  1
  Gd3+  Gd13  1  0.75866894  0.23807825  0.50667050  1
  Gd3+  Gd14  1  0.26489697  0.75324375  0.23844810  1
  Gd3+  Gd15  1  0.48401036  0.75927056  0.77361828  1
  Gd3+  Gd16  1  -0.01353749  0.75658608  0.50401910  1
  Gd3+  Gd17  1  0.27657456  0.76632058  -0.03156725  1
  Gd3+  Gd18  1  0.73294807  0.74870648  0.01743163  1
  Ta5+  Ta19  1  0.40132671  0.43440647  0.37946865  1
  Ta5+  Ta20  1  0.13492509  0.61281694  0.86597352  1
  Ta5+  Ta21  1  0.61983763  0.11976902  0.64043367  1
  Ta5+  Ta22  1  0.63497257  0.38562188  0.38146831  1
  Ta5+  Ta23  1  0.35483021  0.91582442  0.11693949  1
  Ta5+  Ta24  1  0.86881923  0.12487993  0.12461820  1
  Ta5+  Ta25  1  0.60268080  0.12558834  0.37917228  1
  Ta5+  Ta26  1  0.88086949  0.62971598  0.11884406  1
  Ta5+  Ta27  1  0.87741859  0.62297771  0.37310207  1
  Ta5+  Ta28  1  0.14428387  0.37942408  0.12685737  1
  Ta5+  Ta29  1  0.88320458  0.38056484  0.62062709  1
  Ta5+  Ta30  1  0.59460827  0.93944298  0.40355792  1
  Ta5+  Ta31  1  0.63714037  0.61672974  0.63068001  1
  Ta5+  Ta32  1  0.39139174  0.38023370  0.12728118  1
  Ta5+  Ta33  1  0.36827262  0.89215125  0.37670105  1
  Ta5+  Ta34  1  0.12890801  0.11980578  0.61830958  1
  Ta5+  Ta35  1  0.40289321  0.15250309  0.87426538  1
  Ta5+  Ta36  1  0.42757108  0.11055890  0.37789929  1
  Ta5+  Ta37  1  0.64471687  0.87359891  0.63000255  1
  Ta5+  Ta38  1  0.56198925  0.60622434  0.38253882  1
  Ta5+  Ta39  1  0.64944122  0.12804797  0.12945820  1
  Ta5+  Ta40  1  0.39064913  0.10666744  0.12567048  1
  Ta5+  Ta41  1  0.41439381  0.34850421  0.87970857  1
  Ta5+  Ta42  1  0.39693817  0.62731190  0.11208004  1
  Ta5+  Ta43  1  0.13177256  0.11493045  0.37732747  1
  Ta5+  Ta44  1  0.12700330  0.87577941  0.86437537  1
  Ta5+  Ta45  1  0.62714564  0.37784908  0.12394969  1
  Ta5+  Ta46  1  0.34076473  0.57118974  0.87258982  1
  Ta5+  Ta47  1  0.14205504  0.88421108  0.62272233  1
  Ta5+  Ta48  1  0.84919522  0.62163738  0.63580218  1
  Ta5+  Ta49  1  0.87159022  0.38094849  0.12598468  1
  Ta5+  Ta50  1  0.13153076  0.61793902  0.61931493  1
  Ta5+  Ta51  1  0.83333319  0.88102217  0.86179050  1
  Ta5+  Ta52  1  0.11492952  0.12845162  0.86607382  1
  Ta5+  Ta53  1  0.11669340  0.86991540  0.36519128  1
  Ta5+  Ta54  1  0.88285719  0.11899979  0.62658878  1
  Ta5+  Ta55  1  0.87119337  0.87758142  0.11275425  1
  Ta5+  Ta56  1  0.89713766  0.13032526  0.36640030  1
  Ta5+  Ta57  1  0.11980473  0.61873840  0.11567014  1
  Ta5+  Ta58  1  0.11923441  0.61353506  0.35905926  1
  Ta5+  Ta59  1  0.11065327  0.86497525  0.11485393  1
  Ta5+  Ta60  1  0.86191472  0.38252352  0.88441732  1
  Ta5+  Ta61  1  0.57173637  0.11421462  0.89951110  1
  Ta5+  Ta62  1  0.34884476  0.89110854  0.63098991  1
  Ta5+  Ta63  1  0.63473712  0.36878867  0.64241102  1
  Ta5+  Ta64  1  0.39149509  0.12884064  0.63875307  1
  Ta5+  Ta65  1  0.71689902  0.95187407  0.20546439  1
  Ta5+  Ta66  1  0.13226526  0.37257556  0.61585146  1
  Ta5+  Ta67  1  0.10300884  0.36715848  0.38143323  1
  Ta5+  Ta68  1  0.63021398  0.61122273  0.87093931  1
  Ta5+  Ta69  1  0.37643751  0.62907353  0.62774834  1
  Ta5+  Ta70  1  0.58257020  0.36461337  0.88248389  1
  Ta5+  Ta71  1  0.57800625  0.61825676  0.11584037  1
  Ta5+  Ta72  1  0.15028734  0.39475265  0.86355526  1
  Ta5+  Ta73  1  0.39595762  0.62322293  0.36557423  1
  Ta5+  Ta74  1  0.38501390  0.37925108  0.63468509  1
  W6+  W75  1  0.79436579  0.62628649  0.85576121  1
  W6+  W76  1  0.15825681  0.11166628  0.12232498  1
  W6+  W77  1  0.36842219  0.93742326  0.86961042  1
  W6+  W78  1  0.84788258  0.37642165  0.37437077  1
  W6+  W79  1  0.86710650  0.87984598  0.38019231  1
  W6+  W80  1  0.91180627  0.11961289  0.88003632  1
  W6+  W81  1  0.85226511  0.87802858  0.63328290  1
  W6+  W82  1  0.67505547  0.92413274  0.82709150  1
  O2-  O83  1  0.12082040  -0.01807020  0.11050715  1
  O2-  O84  1  0.10572035  -0.00759595  0.37191884  1
  O2-  O85  1  0.09884277  -0.00287196  0.59505197  1
  O2-  O86  1  0.11400170  -0.00438364  0.87352922  1
  O2-  O87  1  0.10054434  0.49622318  0.11952802  1
  O2-  O88  1  0.11676779  0.49361708  0.37988969  1
  O2-  O89  1  0.11014981  0.50089624  0.59788050  1
  O2-  O90  1  0.07393620  0.49159818  0.87280652  1
  O2-  O91  1  0.28957269  0.03686160  0.14027466  1
  O2-  O92  1  0.34432219  0.01076723  0.38209686  1
  O2-  O93  1  0.38594814  0.00902673  0.60617252  1
  O2-  O94  1  0.46814443  0.03298746  0.88443835  1
  O2-  O95  1  0.39539862  0.50250988  0.11790515  1
  O2-  O96  1  0.31033149  0.51502496  0.38571337  1
  O2-  O97  1  0.38342646  0.50300872  0.62411624  1
  O2-  O98  1  0.41185683  0.47917464  0.89986755  1
  O2-  O99  1  0.61925367  0.00633505  0.15095248  1
  O2-  O100  1  0.68615875  0.02076701  0.39210510  1
  O2-  O101  1  0.63081815  0.00075728  0.62453174  1
  O2-  O102  1  0.65669783  0.01610418  0.90552314  1
  O2-  O103  1  0.60043592  0.49700627  0.12579748  1
  O2-  O104  1  0.64478569  0.50547330  0.38248358  1
  O2-  O105  1  0.64677560  0.48878464  0.63919187  1
  O2-  O106  1  0.60034511  0.49449409  0.86872171  1
  O2-  O107  1  0.88938126  0.00084319  0.11372816  1
  O2-  O108  1  0.88613620  0.01274481  0.36507853  1
  O2-  O109  1  0.83729448  0.01176237  0.64486611  1
  O2-  O110  1  0.85446555  -0.00212193  0.87004861  1
  O2-  O111  1  0.88561795  0.50648894  0.11325932  1
  O2-  O112  1  0.83863769  0.51220650  0.38134311  1
  O2-  O113  1  0.89003334  0.50547454  0.62885536  1
  O2-  O114  1  0.82922455  0.49483933  0.87245107  1
  O2-  O115  1  0.16336633  0.24929329  0.12632640  1
  O2-  O116  1  0.16330010  0.24934425  0.37674166  1
  O2-  O117  1  0.15540950  0.24534983  0.60781976  1
  O2-  O118  1  0.11155473  0.26716381  0.85610914  1
  O2-  O119  1  0.17515358  0.74175132  0.11542694  1
  O2-  O120  1  0.16613624  0.73529149  0.35404632  1
  O2-  O121  1  0.07678512  0.73643394  0.62485836  1
  O2-  O122  1  0.08707295  0.73614319  0.86526331  1
  O2-  O123  1  0.37472895  0.23965048  0.15403117  1
  O2-  O124  1  0.34945805  0.21570813  0.35699078  1
  O2-  O125  1  0.34069471  0.25379707  0.62832178  1
  O2-  O126  1  0.32153744  0.25232973  0.86488791  1
  O2-  O127  1  0.37199020  0.77925713  0.09609209  1
  O2-  O128  1  0.36152703  0.75433735  0.36413797  1
  O2-  O129  1  0.40397479  0.75148487  0.64351690  1
  O2-  O130  1  0.40419741  0.79933441  0.89694313  1
  O2-  O131  1  0.59788040  0.25080792  0.13138860  1
  O2-  O132  1  0.58785944  0.25520043  0.37759168  1
  O2-  O133  1  0.68570900  0.24031554  0.64922220  1
  O2-  O134  1  0.60942732  0.23319104  0.88917204  1
  O2-  O135  1  0.60806268  0.75493644  0.10968427  1
  O2-  O136  1  0.59106386  0.72812351  0.38193285  1
  O2-  O137  1  0.63572948  0.74633290  0.61679889  1
  O2-  O138  1  0.57456300  0.72714659  0.89058123  1
  O2-  O139  1  0.90791240  0.25905552  0.11306017  1
  O2-  O140  1  0.82732593  0.23544868  0.37109595  1
  O2-  O141  1  0.86927506  0.25331975  0.61620631  1
  O2-  O142  1  0.93333305  0.26165573  0.88371380  1
  O2-  O143  1  0.83678326  0.75200955  0.12499662  1
  O2-  O144  1  0.82828447  0.73982065  0.39209605  1
  O2-  O145  1  0.89126510  0.74136324  0.62467255  1
  O2-  O146  1  0.77239320  0.76388157  0.87220159  1
  O2-  O147  1  0.13158688  0.14623778  -0.00909368  1
  O2-  O148  1  0.18411041  0.12106637  0.26508486  1
  O2-  O149  1  0.18700363  0.11478987  0.49053313  1
  O2-  O150  1  0.14646743  0.12016660  0.74024888  1
  O2-  O151  1  0.14196280  0.61696798  -0.00602193  1
  O2-  O152  1  0.16500113  0.61276230  0.23915987  1
  O2-  O153  1  0.13523638  0.64330389  0.48726322  1
  O2-  O154  1  0.09931703  0.61169709  0.74144850  1
  O2-  O155  1  0.37510995  0.14477120  0.00457413  1
  O2-  O156  1  0.43400495  0.10676128  0.24727281  1
  O2-  O157  1  0.40056135  0.15582689  0.50339752  1
  O2-  O158  1  0.36316189  0.11621832  0.75706039  1
  O2-  O159  1  0.33262797  0.62564923  -0.01290739  1
  O2-  O160  1  0.36499545  0.64439001  0.23447099  1
  O2-  O161  1  0.36955950  0.64317543  0.50164336  1
  O2-  O162  1  0.38947470  0.61971889  0.76628562  1
  O2-  O163  1  0.58197098  0.11892814  0.02583248  1
  O2-  O164  1  0.61501301  0.14570432  0.25324308  1
  O2-  O165  1  0.62895276  0.15624329  0.51256391  1
  O2-  O166  1  0.61939493  0.12046565  0.76786448  1
  O2-  O167  1  0.65309734  0.61947235  -0.00014718  1
  O2-  O168  1  0.58097919  0.63438733  0.24175753  1
  O2-  O169  1  0.57607449  0.61033100  0.51975927  1
  O2-  O170  1  0.57845398  0.63392988  0.74307592  1
  O2-  O171  1  0.93895648  0.12709376  0.02042536  1
  O2-  O172  1  0.91708854  0.14202929  0.24014141  1
  O2-  O173  1  0.86580555  0.12648479  0.49973641  1
  O2-  O174  1  0.86713422  0.15726909  0.75095681  1
  O2-  O175  1  0.83543194  0.63996816  -0.00005987  1
  O2-  O176  1  0.85965187  0.62914406  0.24384748  1
  O2-  O177  1  0.91578337  0.62721856  0.49868192  1
  O2-  O178  1  0.90213290  0.63076714  0.75547342  1
  O2-  O179  1  0.16168660  0.37209017  -0.00750039  1
  O2-  O180  1  0.11820448  0.36564988  0.25616713  1
  O2-  O181  1  0.17391355  0.36981871  0.49245587  1
  O2-  O182  1  0.16670859  0.38794034  0.73422042  1
  O2-  O183  1  0.13476448  0.84799365  -0.01061940  1
  O2-  O184  1  0.14420259  0.86013571  0.24020353  1
  O2-  O185  1  0.11513307  0.84569913  0.49933205  1
  O2-  O186  1  0.09320554  0.86590667  0.73705348  1
  O2-  O187  1  0.36930825  0.34537341  0.00889192  1
  O2-  O188  1  0.39966814  0.37543333  0.26460930  1
  O2-  O189  1  0.36737617  0.36494450  0.49408844  1
  O2-  O190  1  0.39492848  0.37044618  0.75592496  1
  O2-  O191  1  0.31441036  0.91588715  -0.00135804  1
  O2-  O192  1  0.33984148  0.88325379  0.24237373  1
  O2-  O193  1  0.37528475  0.86680010  0.50455358  1
  O2-  O194  1  0.40540981  0.89205600  0.74041502  1
  O2-  O195  1  0.59767480  0.37130890  0.00401920  1
  O2-  O196  1  0.61126374  0.37248325  0.25568206  1
  O2-  O197  1  0.65039885  0.34806296  0.51129784  1
  O2-  O198  1  0.64459053  0.35061224  0.76633295  1
  O2-  O199  1  0.74034493  0.89368961  0.09725576  1
  O2-  O200  1  0.65100281  0.88283868  0.29051920  1
  O2-  O201  1  0.58677585  0.87302150  0.50698106  1
  O2-  O202  1  0.58442713  0.86214116  0.74226665  1
  O2-  O203  1  0.92343108  0.38420416  -0.00147919  1
  O2-  O204  1  0.89165983  0.38105927  0.24403045  1
  O2-  O205  1  0.82457587  0.37849302  0.51267552  1
  O2-  O206  1  0.88529036  0.36405041  0.75554710  1
  O2-  O207  1  0.86751481  0.85962984  -0.01384067  1
  O2-  O208  1  0.83002173  0.88924438  0.24009867  1
  O2-  O209  1  0.91590330  0.87789777  0.50956500  1
  O2-  O210  1  0.91042744  0.85825406  0.76532414  1
  O2-  O211  1  -0.00689309  -0.15570075  0.12749379  1
  O2-  O212  1  0.00226924  -0.17401744  0.36169404  1
  O2-  O213  1  0.01694409  0.15052642  0.39591486  1
  O2-  O214  1  0.00927705  0.14737491  0.62827991  1
  O2-  O215  1  0.00302901  0.65348310  0.11860889  1
  O2-  O216  1  0.00214108  0.63379402  0.34437528  1
  O2-  O217  1  -0.00893621  0.34984961  0.40837757  1
  O2-  O218  1  0.01047475  0.35607212  0.62666898  1
  O2-  O219  1  0.24417411  -0.13835474  -0.15317275  1
  O2-  O220  1  0.24197815  -0.12798646  0.39347754  1
  O2-  O221  1  0.24547752  -0.19323250  0.60858037  1
  O2-  O222  1  0.24116814  -0.04955391  0.66442808  1
  O2-  O223  1  0.23253773  0.50634855  -0.13522934  1
  O2-  O224  1  0.26350679  0.38763996  0.15324428  1
  O2-  O225  1  0.25039952  0.62915486  0.63415233  1
  O2-  O226  1  0.24309473  0.67067344  0.85028863  1
  O2-  O227  1  0.44916571  -0.00983539  0.10266648  1
  O2-  O228  1  0.48971057  -0.11374421  0.34275303  1
  O2-  O229  1  0.51771125  0.03166777  0.44130212  1
  O2-  O230  1  0.50676117  0.17809993  0.64264677  1
  O2-  O231  1  0.48841333  0.65747595  0.02863250  1
  O2-  O232  1  0.47289747  0.52469828  0.31896029  1
  O2-  O233  1  0.51259442  0.39264812  0.42284950  1
  O2-  O234  1  0.51066703  0.36202092  0.62298357  1
  O2-  O235  1  0.75897076  0.16706838  0.07696436  1
  O2-  O236  1  0.76332804  0.06814571  0.20289125  1
  O2-  O237  1  0.74708626  -0.13632851  0.54790639  1
  O2-  O238  1  0.74457406  -0.12819711  0.72313363  1
  O2-  O239  1  0.75981757  0.32505314  -0.09602097  1
  O2-  O240  1  0.75165494  0.37177347  0.11552661  1
  O2-  O241  1  0.74909957  0.62921761  0.55387081  1
  O2-  O242  1  0.74789250  0.62008250  0.71483195  1
