# generated using pymatgen
data_Gd19Ta56(WO20)8
_symmetry_space_group_name_H-M   'P 1'
_cell_length_a   15.54027132
_cell_length_b   15.52093008
_cell_length_c   15.37447537
_cell_angle_alpha   90.21774820
_cell_angle_beta   89.81259755
_cell_angle_gamma   89.99694779
_symmetry_Int_Tables_number   1
_chemical_formula_structural   Gd19Ta56(WO20)8
_chemical_formula_sum   'Gd19 Ta56 W8 O160'
_cell_volume   3708.26860259
_cell_formula_units_Z   1
loop_
 _symmetry_equiv_pos_site_id
 _symmetry_equiv_pos_as_xyz
  1  'x, y, z'
loop_
 _atom_type_symbol
 _atom_type_oxidation_number
  Gd3+  3.0
  Ta5+  5.0
  W6+  6.0
  O2-  -2.0
loop_
 _atom_site_type_symbol
 _atom_site_label
 _atom_site_symmetry_multiplicity
 _atom_site_fract_x
 _atom_site_fract_y
 _atom_site_fract_z
 _atom_site_occupancy
  Gd3+  Gd0  1  0.25517887  0.24533371  0.72940939  1
  Gd3+  Gd1  1  0.76519077  0.24495783  0.49622996  1
  Gd3+  Gd2  1  0.02126493  0.73100252  0.74109911  1
  Gd3+  Gd3  1  0.50801369  0.75465613  0.51578490  1
  Gd3+  Gd4  1  0.50138373  0.26665155  0.00711735  1
  Gd3+  Gd5  1  0.25813129  0.74638231  -0.00314756  1
  Gd3+  Gd6  1  0.28219334  0.73802481  0.48699685  1
  Gd3+  Gd7  1  0.47850324  0.27782896  0.25222790  1
  Gd3+  Gd8  1  0.73457536  0.74334784  0.24138982  1
  Gd3+  Gd9  1  0.73685766  0.25565938  0.74964360  1
  Gd3+  Gd10  1  0.22461967  0.73408526  0.26195905  1
  Gd3+  Gd11  1  0.49053718  0.27412761  0.75727145  1
  Gd3+  Gd12  1  0.00318495  0.24037165  0.00227537  1
  Gd3+  Gd13  1  0.25093124  0.23471510  -0.03179838  1
  Gd3+  Gd14  1  0.46324964  0.74090613  0.26304298  1
  Gd3+  Gd15  1  0.73682098  0.74379434  -0.01288040  1
  Gd3+  Gd16  1  0.43739412  0.28867477  0.52379886  1
  Gd3+  Gd17  1  0.01279855  0.73814843  0.48228257  1
  Gd3+  Gd18  1  0.75548214  0.23592957  0.00510344  1
  Ta5+  Ta19  1  0.37783230  0.89257189  0.12421946  1
  Ta5+  Ta20  1  0.62229248  0.88574439  0.12072857  1
  Ta5+  Ta21  1  0.57428260  0.63423981  0.87876153  1
  Ta5+  Ta22  1  0.61491042  0.88279973  0.38097373  1
  Ta5+  Ta23  1  0.38037599  0.12972440  0.12243326  1
  Ta5+  Ta24  1  0.41669668  0.86348080  0.87998684  1
  Ta5+  Ta25  1  0.11684774  0.11266148  0.85537315  1
  Ta5+  Ta26  1  0.87020787  0.11156266  0.86414418  1
  Ta5+  Ta27  1  0.13363402  0.87409806  0.12714477  1
  Ta5+  Ta28  1  0.62463736  0.12988748  0.13715074  1
  Ta5+  Ta29  1  0.38797895  0.10803743  0.86209134  1
  Ta5+  Ta30  1  0.61564248  0.12178464  0.87579535  1
  Ta5+  Ta31  1  0.12124485  0.60641080  0.12296447  1
  Ta5+  Ta32  1  0.85875968  0.86530366  0.37555025  1
  Ta5+  Ta33  1  0.37702776  0.86796007  0.63811022  1
  Ta5+  Ta34  1  0.87435105  0.11294973  0.62273603  1
  Ta5+  Ta35  1  0.88700197  0.86527308  0.12385887  1
  Ta5+  Ta36  1  0.36479149  0.39692447  0.87344827  1
  Ta5+  Ta37  1  0.87425474  0.86623838  0.62339933  1
  Ta5+  Ta38  1  0.85407237  0.62462844  0.37236981  1
  Ta5+  Ta39  1  0.62881960  0.88128421  0.64042278  1
  Ta5+  Ta40  1  0.87867165  0.61367435  0.11874910  1
  Ta5+  Ta41  1  0.59639879  0.61942611  0.12180090  1
  Ta5+  Ta42  1  0.40820726  0.63503180  0.88270440  1
  Ta5+  Ta43  1  0.15368803  0.36281826  0.11857450  1
  Ta5+  Ta44  1  0.13545129  0.86680687  0.87326221  1
  Ta5+  Ta45  1  0.60244465  0.62040217  0.38001433  1
  Ta5+  Ta46  1  0.61651127  0.12604460  0.61624074  1
  Ta5+  Ta47  1  0.14893030  0.36576738  0.36737900  1
  Ta5+  Ta48  1  0.12510796  0.37668512  0.61997494  1
  Ta5+  Ta49  1  0.86883608  0.37648017  0.36441304  1
  Ta5+  Ta50  1  0.58196616  0.87369095  0.88307716  1
  Ta5+  Ta51  1  0.39667885  0.10808868  0.62758268  1
  Ta5+  Ta52  1  0.12612027  0.12272570  0.36897862  1
  Ta5+  Ta53  1  0.34803083  0.45846706  0.63521213  1
  Ta5+  Ta54  1  0.87878259  0.36613427  0.13563224  1
  Ta5+  Ta55  1  0.63235317  0.12340721  0.37260407  1
  Ta5+  Ta56  1  0.63806845  0.38035544  0.39294032  1
  Ta5+  Ta57  1  0.13699377  0.89477486  0.38404577  1
  Ta5+  Ta58  1  0.86969737  0.62332390  0.62146271  1
  Ta5+  Ta59  1  0.86526705  0.11463760  0.36025109  1
  Ta5+  Ta60  1  0.37851576  0.89969312  0.37744477  1
  Ta5+  Ta61  1  0.87980524  0.37330680  0.87237219  1
  Ta5+  Ta62  1  0.15306565  0.60343672  0.60070190  1
  Ta5+  Ta63  1  0.12572242  0.61720835  0.86961376  1
  Ta5+  Ta64  1  0.10550088  0.12299180  0.62104751  1
  Ta5+  Ta65  1  0.36506511  0.13194982  0.38087301  1
  Ta5+  Ta66  1  0.31962884  0.36961724  0.12626879  1
  Ta5+  Ta67  1  0.39954093  0.59346443  0.11918145  1
  Ta5+  Ta68  1  0.63915495  0.39594595  0.14148615  1
  Ta5+  Ta69  1  0.13455927  0.12430001  0.12340053  1
  Ta5+  Ta70  1  0.89058410  0.86364613  0.87424703  1
  Ta5+  Ta71  1  0.11700242  0.37377792  0.85912315  1
  Ta5+  Ta72  1  0.13529667  0.87772745  0.61882188  1
  Ta5+  Ta73  1  0.63505801  0.62908373  0.63814038  1
  Ta5+  Ta74  1  0.13527388  0.56201457  0.38682853  1
  W6+  W75  1  0.44657123  0.56665455  0.38752601  1
  W6+  W76  1  0.62055941  0.39184932  0.88124427  1
  W6+  W77  1  0.40103374  0.62345671  0.63043563  1
  W6+  W78  1  0.88295537  0.11274076  0.12899765  1
  W6+  W79  1  0.62882513  0.38187529  0.61049445  1
  W6+  W80  1  0.31991452  0.37791190  0.37908263  1
  W6+  W81  1  0.87408037  0.37191529  0.62003550  1
  W6+  W82  1  0.87159003  0.62066924  0.87068380  1
  O2-  O83  1  0.13784545  -0.00554913  0.11852025  1
  O2-  O84  1  0.07724811  0.00079454  0.37215213  1
  O2-  O85  1  0.10068966  -0.00731771  0.63011575  1
  O2-  O86  1  0.12654613  -0.00986268  0.86614131  1
  O2-  O87  1  0.12432046  0.48689565  0.11182938  1
  O2-  O88  1  0.06253649  0.46851866  0.36906880  1
  O2-  O89  1  0.09393710  0.49934291  0.62344702  1
  O2-  O90  1  0.10279640  0.49512760  0.87438506  1
  O2-  O91  1  0.34852016  0.00900152  0.12149490  1
  O2-  O92  1  0.41222081  0.02023840  0.38758891  1
  O2-  O93  1  0.41153531  -0.01179278  0.61592369  1
  O2-  O94  1  0.39383495  -0.00959185  0.88050938  1
  O2-  O95  1  0.32861522  0.49422220  0.12365772  1
  O2-  O96  1  0.43548705  0.45021205  0.36312491  1
  O2-  O97  1  0.46026099  0.49888892  0.61500145  1
  O2-  O98  1  0.37829315  0.50888436  0.90767841  1
  O2-  O99  1  0.64508136  0.00500989  0.14310453  1
  O2-  O100  1  0.59823896  0.00109908  0.36664001  1
  O2-  O101  1  0.62584436  0.00646733  0.63554196  1
  O2-  O102  1  0.59677771  0.00551420  0.88075148  1
  O2-  O103  1  0.67349756  0.51216087  0.14458965  1
  O2-  O104  1  0.63725410  0.50434686  0.37836364  1
  O2-  O105  1  0.64726349  0.51125103  0.63023788  1
  O2-  O106  1  0.57458377  0.51347854  0.87708908  1
  O2-  O107  1  0.85605540  -0.02114365  0.12825336  1
  O2-  O108  1  0.88006243  -0.01752901  0.37773273  1
  O2-  O109  1  0.89748615  -0.01563069  0.61776262  1
  O2-  O110  1  0.87141326  -0.01631058  0.87108623  1
  O2-  O111  1  0.87774418  0.49180758  0.12215021  1
  O2-  O112  1  0.87309251  0.50530773  0.37464444  1
  O2-  O113  1  0.87110150  0.50766162  0.61196523  1
  O2-  O114  1  0.89802636  0.48919660  0.88134441  1
  O2-  O115  1  0.09249744  0.24262038  0.12029595  1
  O2-  O116  1  0.11650862  0.24410846  0.37391631  1
  O2-  O117  1  0.14202169  0.24157728  0.62388273  1
  O2-  O118  1  0.15561921  0.23844516  0.84909852  1
  O2-  O119  1  0.14612798  0.73479511  0.13605716  1
  O2-  O120  1  0.14843150  0.76392103  0.39686134  1
  O2-  O121  1  0.12422433  0.73471684  0.59923766  1
  O2-  O122  1  0.17086636  0.74275819  0.87129789  1
  O2-  O123  1  0.40664707  0.26027289  0.12110821  1
  O2-  O124  1  0.40908222  0.25625394  0.38397302  1
  O2-  O125  1  0.38591129  0.24091816  0.65663891  1
  O2-  O126  1  0.34624664  0.24659408  0.84638616  1
  O2-  O127  1  0.26153476  0.84820349  0.15012394  1
  O2-  O128  1  0.33751078  0.77346580  0.35365855  1
  O2-  O129  1  0.33640937  0.74749335  0.62515808  1
  O2-  O130  1  0.35122792  0.74809830  0.87981317  1
  O2-  O131  1  0.59264519  0.25975999  0.12883716  1
  O2-  O132  1  0.64641170  0.24970237  0.38731831  1
  O2-  O133  1  0.66262171  0.24791103  0.60965186  1
  O2-  O134  1  0.66196917  0.25667565  0.88749796  1
  O2-  O135  1  0.65874489  0.75454969  0.11692522  1
  O2-  O136  1  0.56692698  0.75987562  0.37708208  1
  O2-  O137  1  0.60072595  0.75898086  0.62880245  1
  O2-  O138  1  0.62549513  0.75457043  0.89150115  1
  O2-  O139  1  0.91197428  0.24724829  0.12218131  1
  O2-  O140  1  0.85492395  0.23895166  0.36560277  1
  O2-  O141  1  0.83995478  0.23554841  0.62792796  1
  O2-  O142  1  0.83832966  0.23921758  0.86405717  1
  O2-  O143  1  0.83528605  0.74482553  0.12268488  1
  O2-  O144  1  0.91735915  0.74141475  0.36073002  1
  O2-  O145  1  0.93926319  0.74698382  0.61681887  1
  O2-  O146  1  0.83011210  0.75469822  0.86546320  1
  O2-  O147  1  0.11756173  0.13443960  -0.01345712  1
  O2-  O148  1  0.11442800  0.11710053  0.24507487  1
  O2-  O149  1  0.10671309  0.11411856  0.49836440  1
  O2-  O150  1  0.16552411  0.11393944  0.73539797  1
  O2-  O151  1  0.15074173  0.62473622  -0.00016461  1
  O2-  O152  1  0.13559882  0.61139840  0.26750481  1
  O2-  O153  1  0.21544593  0.60925292  0.48367148  1
  O2-  O154  1  0.12957411  0.62691243  0.73984823  1
  O2-  O155  1  0.37301711  0.14689917  -0.01055274  1
  O2-  O156  1  0.38557317  0.14396681  0.25081929  1
  O2-  O157  1  0.35215155  0.14492105  0.50809042  1
  O2-  O158  1  0.34385324  0.10018482  0.74236874  1
  O2-  O159  1  0.35969024  0.64331908  0.01505346  1
  O2-  O160  1  0.34079208  0.66820625  0.20249207  1
  O2-  O161  1  0.40105100  0.65007309  0.48895449  1
  O2-  O162  1  0.40735966  0.62197356  0.76400178  1
  O2-  O163  1  0.63793873  0.13523824  0.00331991  1
  O2-  O164  1  0.58166130  0.14860020  0.25826367  1
  O2-  O165  1  0.67058578  0.11670205  0.49572202  1
  O2-  O166  1  0.60822402  0.15163776  0.74612582  1
  O2-  O167  1  0.63095649  0.62901647  0.00376750  1
  O2-  O168  1  0.61399856  0.64966249  0.24953342  1
  O2-  O169  1  0.60690094  0.64009831  0.50853915  1
  O2-  O170  1  0.60080214  0.64135031  0.75334522  1
  O2-  O171  1  0.86444986  0.13204659  -0.00924210  1
  O2-  O172  1  0.92760797  0.10840551  0.25911472  1
  O2-  O173  1  0.87073357  0.11911818  0.49536331  1
  O2-  O174  1  0.82794042  0.10714825  0.74273140  1
  O2-  O175  1  0.83121621  0.62415565  0.00519478  1
  O2-  O176  1  0.84014334  0.62678048  0.23996970  1
  O2-  O177  1  0.88379106  0.64508098  0.49450309  1
  O2-  O178  1  0.91250265  0.63209143  0.73781941  1
  O2-  O179  1  0.12853046  0.33862013  -0.01463418  1
  O2-  O180  1  0.14878540  0.36450910  0.24372920  1
  O2-  O181  1  0.13479810  0.37276763  0.49924106  1
  O2-  O182  1  0.07903264  0.36126140  0.74087478  1
  O2-  O183  1  0.15129225  0.85953095  0.00235833  1
  O2-  O184  1  0.13105036  0.86555809  0.26200655  1
  O2-  O185  1  0.07836020  0.87456188  0.50144473  1
  O2-  O186  1  0.11464823  0.85056291  0.73900383  1
  O2-  O187  1  0.34443938  0.35034550  -0.00647197  1
  O2-  O188  1  0.34326656  0.34776387  0.24611405  1
  O2-  O189  1  0.33943953  0.40033666  0.52540216  1
  O2-  O190  1  0.38997025  0.39938231  0.74390213  1
  O2-  O191  1  0.36670211  0.85400370  0.00723164  1
  O2-  O192  1  0.41099449  0.88577589  0.25422579  1
  O2-  O193  1  0.39515376  0.85601257  0.49795543  1
  O2-  O194  1  0.41711282  0.85845045  0.75003579  1
  O2-  O195  1  0.59982884  0.38809386  0.02383001  1
  O2-  O196  1  0.59267204  0.37588787  0.25901797  1
  O2-  O197  1  0.71372241  0.38273667  0.49596939  1
  O2-  O198  1  0.61572812  0.35427054  0.74653681  1
  O2-  O199  1  0.65996487  0.88226291  0.00166535  1
  O2-  O200  1  0.63597560  0.85862700  0.24887446  1
  O2-  O201  1  0.59972277  0.87992179  0.50674706  1
  O2-  O202  1  0.60847352  0.87650814  0.75964601  1
  O2-  O203  1  0.85833766  0.35116325  -0.00122924  1
  O2-  O204  1  0.92520666  0.37148605  0.25278279  1
  O2-  O205  1  0.89314305  0.35556379  0.48275295  1
  O2-  O206  1  0.83107999  0.37149218  0.75700882  1
  O2-  O207  1  0.86143385  0.85430855  -0.00005662  1
  O2-  O208  1  0.84709804  0.85111821  0.24875846  1
  O2-  O209  1  0.89442824  0.84710233  0.49641642  1
  O2-  O210  1  0.91092993  0.85317895  0.74307527  1
  O2-  O211  1  0.00995124  -0.15242503  -0.11294401  1
  O2-  O212  1  0.00743525  -0.14227934  0.12731436  1
  O2-  O213  1  -0.00985949  0.14018627  0.65183286  1
  O2-  O214  1  -0.00675562  0.13184254  0.85637437  1
  O2-  O215  1  0.01236719  0.65946379  -0.12312213  1
  O2-  O216  1  -0.00290164  0.63326737  0.12259893  1
  O2-  O217  1  0.06199047  0.60315216  0.48840682  1
  O2-  O218  1  -0.00635510  0.32653757  0.88196166  1
  O2-  O219  1  0.25112765  0.15430953  0.11196929  1
  O2-  O220  1  0.24521343  0.10810318  0.36867078  1
  O2-  O221  1  0.25183598  -0.07928952  0.40326605  1
  O2-  O222  1  0.25080655  -0.10716209  0.60075352  1
  O2-  O223  1  0.24076802  0.38502275  -0.15307149  1
  O2-  O224  1  0.22620206  0.47991826  0.37088225  1
  O2-  O225  1  0.26295992  0.55722111  0.63620153  1
  O2-  O226  1  0.23899224  0.37864065  0.66284664  1
  O2-  O227  1  0.50072160  0.11136766  0.10399402  1
  O2-  O228  1  0.50436381  -0.11243516  0.11147805  1
  O2-  O229  1  0.50729735  0.15528347  0.56775448  1
  O2-  O230  1  0.49899400  0.17885710  0.87817630  1
  O2-  O231  1  0.50868543  0.52736301  0.12943944  1
  O2-  O232  1  0.49267253  0.69358755  0.12574117  1
  O2-  O233  1  0.55372065  0.36575516  0.48654335  1
  O2-  O234  1  0.48606758  0.35108546  0.88501795  1
  O2-  O235  1  0.74529028  0.15868548  0.13664447  1
  O2-  O236  1  0.74847193  0.09769802  0.33223470  1
  O2-  O237  1  0.74038976  -0.14823421  0.39307230  1
  O2-  O238  1  0.75541486  -0.13727174  0.62754388  1
  O2-  O239  1  0.75270200  0.34908382  0.13652240  1
  O2-  O240  1  0.75446619  0.37934823  0.32932700  1
  O2-  O241  1  0.73894986  0.65991273  0.37773474  1
  O2-  O242  1  0.75685843  0.66366490  0.63417389  1
