# generated using pymatgen
data_Gd19Ta56(WO20)8
_symmetry_space_group_name_H-M   'P 1'
_cell_length_a   15.52769054
_cell_length_b   15.58431829
_cell_length_c   15.20490309
_cell_angle_alpha   90.00867147
_cell_angle_beta   90.15228139
_cell_angle_gamma   90.06223545
_symmetry_Int_Tables_number   1
_chemical_formula_structural   Gd19Ta56(WO20)8
_chemical_formula_sum   'Gd19 Ta56 W8 O160'
_cell_volume   3679.39605085
_cell_formula_units_Z   1
loop_
 _symmetry_equiv_pos_site_id
 _symmetry_equiv_pos_as_xyz
  1  'x, y, z'
loop_
 _atom_type_symbol
 _atom_type_oxidation_number
  Gd3+  3.0
  Ta5+  5.0
  W6+  6.0
  O2-  -2.0
loop_
 _atom_site_type_symbol
 _atom_site_label
 _atom_site_symmetry_multiplicity
 _atom_site_fract_x
 _atom_site_fract_y
 _atom_site_fract_z
 _atom_site_occupancy
  Gd3+  Gd0  1  0.70912183  0.23355832  -0.00677016  1
  Gd3+  Gd1  1  0.73949401  0.25623863  0.49303320  1
  Gd3+  Gd2  1  0.01394231  0.75448697  0.48323394  1
  Gd3+  Gd3  1  -0.01516145  0.74772308  0.24499735  1
  Gd3+  Gd4  1  0.49503440  0.24016595  0.77462691  1
  Gd3+  Gd5  1  0.27941697  0.25056741  0.03887246  1
  Gd3+  Gd6  1  0.75075628  0.74493516  0.00130949  1
  Gd3+  Gd7  1  0.25638891  0.75649131  0.24631912  1
  Gd3+  Gd8  1  0.00759891  0.74614978  -0.00976378  1
  Gd3+  Gd9  1  -0.00242839  0.25128578  0.50192859  1
  Gd3+  Gd10  1  0.73841538  0.25814402  0.24251785  1
  Gd3+  Gd11  1  0.25556414  0.75534826  -0.00067742  1
  Gd3+  Gd12  1  0.73124510  0.73275748  0.24839487  1
  Gd3+  Gd13  1  0.74397934  0.74777652  0.53089499  1
  Gd3+  Gd14  1  0.01136769  0.25339022  0.74778419  1
  Gd3+  Gd15  1  -0.00937038  0.26288172  -0.01927012  1
  Gd3+  Gd16  1  0.50148883  0.24828445  0.50312550  1
  Gd3+  Gd17  1  0.26842315  0.75060344  0.74863222  1
  Gd3+  Gd18  1  0.25474196  0.75836335  0.51743482  1
  Ta5+  Ta19  1  0.12029558  0.88552579  0.36731855  1
  Ta5+  Ta20  1  0.65464513  0.38819811  0.63600521  1
  Ta5+  Ta21  1  0.64838881  0.10748576  0.62678846  1
  Ta5+  Ta22  1  0.58191688  0.61593925  0.08529586  1
  Ta5+  Ta23  1  0.88749918  0.88898858  0.11713227  1
  Ta5+  Ta24  1  0.87741606  0.61685416  0.37715047  1
  Ta5+  Ta25  1  0.09769174  0.89074416  0.11665505  1
  Ta5+  Ta26  1  0.89544328  0.60418050  0.11735572  1
  Ta5+  Ta27  1  0.40927075  0.87871390  0.62543993  1
  Ta5+  Ta28  1  0.61138297  0.61630932  0.39461619  1
  Ta5+  Ta29  1  0.42313562  0.12901629  0.12322750  1
  Ta5+  Ta30  1  0.10013614  0.37223018  0.11785092  1
  Ta5+  Ta31  1  0.43830616  0.37649739  0.12359341  1
  Ta5+  Ta32  1  0.12630972  0.87815415  0.85118224  1
  Ta5+  Ta33  1  0.37751134  0.37926375  0.37069301  1
  Ta5+  Ta34  1  0.09903606  0.62858819  0.62540235  1
  Ta5+  Ta35  1  0.36771288  0.13228809  0.36611899  1
  Ta5+  Ta36  1  0.34101222  0.12016696  0.87847581  1
  Ta5+  Ta37  1  0.92898769  0.62787174  0.62108544  1
  Ta5+  Ta38  1  0.90428659  0.13254999  0.12724332  1
  Ta5+  Ta39  1  0.60351259  0.37639476  0.12552507  1
  Ta5+  Ta40  1  0.58926713  0.11721245  0.13459986  1
  Ta5+  Ta41  1  0.12735312  0.62068169  0.86466121  1
  Ta5+  Ta42  1  0.39199928  0.91649570  0.12773176  1
  Ta5+  Ta43  1  0.87995646  0.62235770  0.86427494  1
  Ta5+  Ta44  1  0.61268029  0.86698514  0.38191722  1
  Ta5+  Ta45  1  0.35946401  0.38084780  0.88041805  1
  Ta5+  Ta46  1  0.62597202  0.62578534  0.84547570  1
  Ta5+  Ta47  1  0.85855066  0.11171450  0.61613823  1
  Ta5+  Ta48  1  0.39807300  0.62390017  0.89183099  1
  Ta5+  Ta49  1  0.86378922  0.11747046  0.37740296  1
  Ta5+  Ta50  1  0.60140956  0.90604903  0.13096483  1
  Ta5+  Ta51  1  0.07213314  0.13129230  0.11737279  1
  Ta5+  Ta52  1  0.13585154  0.37158860  0.36615823  1
  Ta5+  Ta53  1  0.40733306  0.62807901  0.63467711  1
  Ta5+  Ta54  1  0.37211530  0.12206199  0.62901011  1
  Ta5+  Ta55  1  0.12725428  0.13127586  0.36584978  1
  Ta5+  Ta56  1  0.62201445  0.11109459  0.37308558  1
  Ta5+  Ta57  1  0.13725572  0.11649342  0.87534316  1
  Ta5+  Ta58  1  0.86330478  0.12524260  0.86388958  1
  Ta5+  Ta59  1  0.84794566  0.38030123  0.85244598  1
  Ta5+  Ta60  1  0.12835893  0.10855413  0.62543007  1
  Ta5+  Ta61  1  0.37604008  0.62693276  0.38058398  1
  Ta5+  Ta62  1  0.15474413  0.38088484  0.87081810  1
  Ta5+  Ta63  1  0.12661638  0.61861880  0.36687946  1
  Ta5+  Ta64  1  0.91212852  0.87135649  0.62444448  1
  Ta5+  Ta65  1  0.87080806  0.37744248  0.37220984  1
  Ta5+  Ta66  1  0.61900558  0.38424962  0.38049635  1
  Ta5+  Ta67  1  0.86944763  0.87839443  0.37425281  1
  Ta5+  Ta68  1  0.57549312  0.62486144  0.62334623  1
  Ta5+  Ta69  1  0.08231212  0.86550424  0.64761631  1
  Ta5+  Ta70  1  0.10732782  0.61166350  0.12233672  1
  Ta5+  Ta71  1  0.86357548  0.38900409  0.62457309  1
  Ta5+  Ta72  1  0.61011936  0.86200029  0.86864800  1
  Ta5+  Ta73  1  0.14305143  0.38396280  0.62083814  1
  Ta5+  Ta74  1  0.57578683  0.86805389  0.61894918  1
  W6+  W75  1  0.87113134  0.87862151  0.86620645  1
  W6+  W76  1  0.37730630  0.88507636  0.88075106  1
  W6+  W77  1  0.60876658  0.10166486  0.87643114  1
  W6+  W78  1  0.39685434  0.38027134  0.63398756  1
  W6+  W79  1  0.61058423  0.37635579  0.87320006  1
  W6+  W80  1  0.36525672  0.89050102  0.38068326  1
  W6+  W81  1  0.87092136  0.35686100  0.11370062  1
  W6+  W82  1  0.38757885  0.62214903  0.11976237  1
  O2-  O83  1  0.10682330  0.00952649  0.11136400  1
  O2-  O84  1  0.12498841  0.00799738  0.37401992  1
  O2-  O85  1  0.10843636  -0.00783368  0.62678875  1
  O2-  O86  1  0.10734262  -0.00117931  0.87899085  1
  O2-  O87  1  0.13535503  0.49364612  0.11792036  1
  O2-  O88  1  0.13774296  0.49341869  0.37221426  1
  O2-  O89  1  0.11970655  0.50075380  0.61188772  1
  O2-  O90  1  0.12748228  0.49915479  0.88240625  1
  O2-  O91  1  0.34312091  0.02665716  0.12072746  1
  O2-  O92  1  0.40414029  0.02011259  0.38252051  1
  O2-  O93  1  0.41029853  0.01004779  0.62498671  1
  O2-  O94  1  0.39890897  0.01633966  0.88999074  1
  O2-  O95  1  0.41405096  0.49208914  0.11960158  1
  O2-  O96  1  0.36939998  0.50336189  0.38062711  1
  O2-  O97  1  0.39710283  0.51036130  0.62871060  1
  O2-  O98  1  0.39333508  0.50302137  0.88326560  1
  O2-  O99  1  0.65955117  0.00928714  0.16241410  1
  O2-  O100  1  0.63307206  -0.00943568  0.37383915  1
  O2-  O101  1  0.60846766  -0.00543033  0.61371193  1
  O2-  O102  1  0.65142725  -0.02693357  0.87401598  1
  O2-  O103  1  0.61514919  0.50537656  0.11462561  1
  O2-  O104  1  0.57481054  0.49697734  0.39114016  1
  O2-  O105  1  0.61199117  0.49806258  0.63149508  1
  O2-  O106  1  0.62395625  0.50740000  0.84519871  1
  O2-  O107  1  0.88581317  0.00950541  0.12901548  1
  O2-  O108  1  0.84125872  -0.00184063  0.36848282  1
  O2-  O109  1  0.90323699  0.00151368  0.61536971  1
  O2-  O110  1  0.88783566  0.01047764  0.86014201  1
  O2-  O111  1  0.87743365  0.49064743  0.12902330  1
  O2-  O112  1  0.87631457  0.49675379  0.35074930  1
  O2-  O113  1  0.90591151  0.49957075  0.62345208  1
  O2-  O114  1  0.84059859  0.50232468  0.85416224  1
  O2-  O115  1  0.13762114  0.25200135  0.10168616  1
  O2-  O116  1  0.07966019  0.25066365  0.37731582  1
  O2-  O117  1  0.09032416  0.24974482  0.62182276  1
  O2-  O118  1  0.11410826  0.25331399  0.86599643  1
  O2-  O119  1  0.09131219  0.74969663  0.12957634  1
  O2-  O120  1  0.10083572  0.75155589  0.34945985  1
  O2-  O121  1  0.14556359  0.75292210  0.64019582  1
  O2-  O122  1  0.15463723  0.74944180  0.85987946  1
  O2-  O123  1  0.39397445  0.25360819  0.13499118  1
  O2-  O124  1  0.42055493  0.24717090  0.37584716  1
  O2-  O125  1  0.43243891  0.24094922  0.63486747  1
  O2-  O126  1  0.34904709  0.24952633  0.87453614  1
  O2-  O127  1  0.32470764  0.74412206  0.12395460  1
  O2-  O128  1  0.32535667  0.75450729  0.38118231  1
  O2-  O129  1  0.35909304  0.75392191  0.62686030  1
  O2-  O130  1  0.34541069  0.74926326  0.88159911  1
  O2-  O131  1  0.62826881  0.24034423  0.13862938  1
  O2-  O132  1  0.62398220  0.25004875  0.38503332  1
  O2-  O133  1  0.65400153  0.23831648  0.61022743  1
  O2-  O134  1  0.58867012  0.23820203  0.89019600  1
  O2-  O135  1  0.67461018  0.69609181  0.12282926  1
  O2-  O136  1  0.66500047  0.74622542  0.38740727  1
  O2-  O137  1  0.58480822  0.74531817  0.59285735  1
  O2-  O138  1  0.68157725  0.75954116  0.86953692  1
  O2-  O139  1  0.81061674  0.22923149  0.11690897  1
  O2-  O140  1  0.86150749  0.24694557  0.40314142  1
  O2-  O141  1  0.87101963  0.25019158  0.60090467  1
  O2-  O142  1  0.90837127  0.25054562  0.85902186  1
  O2-  O143  1  0.90207334  0.74825524  0.10710258  1
  O2-  O144  1  0.89786756  0.74766518  0.37913854  1
  O2-  O145  1  0.89528644  0.74784443  0.59473098  1
  O2-  O146  1  0.87841796  0.74615434  0.90011983  1
  O2-  O147  1  0.06634573  0.13416566  -0.01670767  1
  O2-  O148  1  0.10748757  0.13571529  0.24504895  1
  O2-  O149  1  0.10443742  0.13042542  0.50304512  1
  O2-  O150  1  0.08755816  0.12661500  0.74710294  1
  O2-  O151  1  0.14379551  0.65040769  -0.00103684  1
  O2-  O152  1  0.16491140  0.62900296  0.24125397  1
  O2-  O153  1  0.13706926  0.64968958  0.49477932  1
  O2-  O154  1  0.15985147  0.61870256  0.74487053  1
  O2-  O155  1  0.39371210  0.14958580  0.00201096  1
  O2-  O156  1  0.37395546  0.13108556  0.24524153  1
  O2-  O157  1  0.38771554  0.14521516  0.50598785  1
  O2-  O158  1  0.39434556  0.13371659  0.75663517  1
  O2-  O159  1  0.31819951  0.62095022  -0.00964483  1
  O2-  O160  1  0.34381336  0.63389944  0.26009211  1
  O2-  O161  1  0.35089462  0.63830366  0.50699860  1
  O2-  O162  1  0.36706847  0.63422707  0.76107734  1
  O2-  O163  1  0.62456172  0.11173726  0.01290783  1
  O2-  O164  1  0.55942728  0.12265812  0.26965226  1
  O2-  O165  1  0.58404697  0.12272060  0.49434190  1
  O2-  O166  1  0.58699246  0.12635493  0.73253872  1
  O2-  O167  1  0.65347279  0.63225881  -0.02831278  1
  O2-  O168  1  0.68354019  0.60376936  0.29929744  1
  O2-  O169  1  0.66157156  0.61932916  0.50891390  1
  O2-  O170  1  0.65513113  0.64934508  0.72629863  1
  O2-  O171  1  0.88382003  0.14021512  -0.00963075  1
  O2-  O172  1  0.90302189  0.13951921  0.26224327  1
  O2-  O173  1  0.92649358  0.11917757  0.48970293  1
  O2-  O174  1  0.90301953  0.14304881  0.73405366  1
  O2-  O175  1  0.83756486  0.61860903  0.00097911  1
  O2-  O176  1  0.85346578  0.64751274  0.24231091  1
  O2-  O177  1  0.84868078  0.62078881  0.49770409  1
  O2-  O178  1  0.88866384  0.64034313  0.74306666  1
  O2-  O179  1  0.07954085  0.37675069  -0.01093740  1
  O2-  O180  1  0.09769591  0.36637415  0.24713441  1
  O2-  O181  1  0.11093277  0.36334741  0.49585836  1
  O2-  O182  1  0.10227679  0.37332196  0.74391952  1
  O2-  O183  1  0.14298199  0.85717784  -0.00515070  1
  O2-  O184  1  0.15677418  0.87911098  0.24036285  1
  O2-  O185  1  0.12985960  0.85375797  0.49689654  1
  O2-  O186  1  0.19416997  0.88427846  0.74753310  1
  O2-  O187  1  0.41796193  0.35975611  -0.00814282  1
  O2-  O188  1  0.43233028  0.37999250  0.26246679  1
  O2-  O189  1  0.41329308  0.36978027  0.49133984  1
  O2-  O190  1  0.42236779  0.36787841  0.77243509  1
  O2-  O191  1  0.34517522  0.88065821  0.01906187  1
  O2-  O192  1  0.34632234  0.88174984  0.23753206  1
  O2-  O193  1  0.34228058  0.87910961  0.51419359  1
  O2-  O194  1  0.38322146  0.87006693  0.74646809  1
  O2-  O195  1  0.64129017  0.36432724  0.00658076  1
  O2-  O196  1  0.63327351  0.37319643  0.25375121  1
  O2-  O197  1  0.60115992  0.36438695  0.51227179  1
  O2-  O198  1  0.59170417  0.34713312  0.73331810  1
  O2-  O199  1  0.64341785  0.86016326  0.02551669  1
  O2-  O200  1  0.63841083  0.85393181  0.24697408  1
  O2-  O201  1  0.65445740  0.86689713  0.50257495  1
  O2-  O202  1  0.58851752  0.85690046  0.74582367  1
  O2-  O203  1  0.88856579  0.37516547  -0.03000633  1
  O2-  O204  1  0.86192814  0.33907125  0.25317006  1
  O2-  O205  1  0.92146545  0.38006783  0.49308050  1
  O2-  O206  1  0.91859062  0.36851242  0.74280502  1
  O2-  O207  1  0.82313721  0.87835733  0.00888097  1
  O2-  O208  1  0.83729837  0.85214948  0.24448128  1
  O2-  O209  1  0.84389646  0.86907031  0.49777155  1
  O2-  O210  1  0.86364428  0.86082027  0.73547626  1
  O2-  O211  1  -0.00984354  -0.11467456  0.03591459  1
  O2-  O212  1  -0.00467159  -0.11586441  0.19590678  1
  O2-  O213  1  -0.00613580  -0.11442278  0.38088729  1
  O2-  O214  1  0.03342688  -0.14398447  0.77390983  1
  O2-  O215  1  -0.00068120  0.60647163  0.04346118  1
  O2-  O216  1  0.00418522  0.60929201  0.19973903  1
  O2-  O217  1  0.00268958  0.61516318  0.38182737  1
  O2-  O218  1  0.00434421  0.63102925  0.87100561  1
  O2-  O219  1  0.23401964  0.13686379  -0.04058225  1
  O2-  O220  1  0.24597333  0.15196888  0.37881664  1
  O2-  O221  1  0.24937144  0.12131316  0.62564402  1
  O2-  O222  1  0.24125637  0.09233475  0.80616987  1
  O2-  O223  1  0.24768549  0.36778052  -0.03913995  1
  O2-  O224  1  0.25639418  0.34982763  0.36232323  1
  O2-  O225  1  0.25828732  0.36739138  0.61513737  1
  O2-  O226  1  0.25575164  0.40060367  0.80335748  1
  O2-  O227  1  0.50317762  0.00005907  0.11423530  1
  O2-  O228  1  0.49463597  -0.15640042  0.14010785  1
  O2-  O229  1  0.49795918  -0.14637383  0.38550862  1
  O2-  O230  1  0.50251347  -0.15113952  0.91581107  1
  O2-  O231  1  0.48081294  0.62811825  0.00763482  1
  O2-  O232  1  0.51073131  0.64644887  0.17909332  1
  O2-  O233  1  0.49549069  0.65672481  0.38098950  1
  O2-  O234  1  0.51173635  0.66125437  0.84738710  1
  O2-  O235  1  0.74598216  0.13950363  -0.12792200  1
  O2-  O236  1  0.73964827  0.13757852  0.33829403  1
  O2-  O237  1  0.76111180  0.11521390  0.52508487  1
  O2-  O238  1  0.75466344  0.08783548  0.68558135  1
  O2-  O239  1  0.74250290  0.32836664  -0.12604059  1
  O2-  O240  1  0.74504070  0.37686484  0.38082697  1
  O2-  O241  1  0.75916650  0.38838806  0.55177619  1
  O2-  O242  1  0.76355299  0.39401620  0.71039904  1
