# generated using pymatgen
data_Gd19Ta56(WO20)8
_symmetry_space_group_name_H-M   'P 1'
_cell_length_a   15.53402075
_cell_length_b   15.24521778
_cell_length_c   15.23560601
_cell_angle_alpha   89.86378837
_cell_angle_beta   89.76706261
_cell_angle_gamma   89.20819508
_symmetry_Int_Tables_number   1
_chemical_formula_structural   Gd19Ta56(WO20)8
_chemical_formula_sum   'Gd19 Ta56 W8 O160'
_cell_volume   3607.70497450
_cell_formula_units_Z   1
loop_
 _symmetry_equiv_pos_site_id
 _symmetry_equiv_pos_as_xyz
  1  'x, y, z'
loop_
 _atom_type_symbol
 _atom_type_oxidation_number
  Gd3+  3.0
  Ta5+  5.0
  W6+  6.0
  O2-  -2.0
loop_
 _atom_site_type_symbol
 _atom_site_label
 _atom_site_symmetry_multiplicity
 _atom_site_fract_x
 _atom_site_fract_y
 _atom_site_fract_z
 _atom_site_occupancy
  Gd3+  Gd0  1  0.49633439  0.74708371  0.24980970  1
  Gd3+  Gd1  1  -0.02985906  0.25331400  0.48577838  1
  Gd3+  Gd2  1  0.75722853  0.77261052  0.49406996  1
  Gd3+  Gd3  1  0.25310893  0.27807805  0.77013300  1
  Gd3+  Gd4  1  0.47157906  0.73963813  0.77416707  1
  Gd3+  Gd5  1  0.75746372  0.20071891  -0.01445625  1
  Gd3+  Gd6  1  0.74075457  0.20096359  0.51559020  1
  Gd3+  Gd7  1  -0.00707636  0.75262213  0.00101750  1
  Gd3+  Gd8  1  0.48564649  0.73486472  0.51028403  1
  Gd3+  Gd9  1  0.24139761  0.75597751  -0.02974103  1
  Gd3+  Gd10  1  -0.00289086  0.75962146  0.24366483  1
  Gd3+  Gd11  1  0.50688891  0.28530809  0.48730009  1
  Gd3+  Gd12  1  0.77658191  0.76050464  0.23659972  1
  Gd3+  Gd13  1  0.22982790  0.79251104  0.74281507  1
  Gd3+  Gd14  1  0.75008742  0.68050391  -0.01526365  1
  Gd3+  Gd15  1  0.01127417  0.25190824  0.24480698  1
  Gd3+  Gd16  1  0.24697346  0.29572178  0.22594340  1
  Gd3+  Gd17  1  0.73683113  0.75473138  0.75871256  1
  Gd3+  Gd18  1  0.25530710  0.27299256  0.50298508  1
  Ta5+  Ta19  1  0.13779426  0.63673541  0.63166603  1
  Ta5+  Ta20  1  0.82602927  0.35611526  0.34390994  1
  Ta5+  Ta21  1  0.91078080  0.09406895  0.61398523  1
  Ta5+  Ta22  1  0.64074701  0.36071831  0.64443902  1
  Ta5+  Ta23  1  0.37657478  0.62965795  0.09662876  1
  Ta5+  Ta24  1  0.39735340  0.15107119  0.63118774  1
  Ta5+  Ta25  1  0.34714728  0.88378570  0.37760333  1
  Ta5+  Ta26  1  0.38911242  0.55497292  0.89392224  1
  Ta5+  Ta27  1  0.43523167  0.35114943  0.88700101  1
  Ta5+  Ta28  1  0.65630908  0.60131397  0.17838138  1
  Ta5+  Ta29  1  0.86049570  0.60865879  0.59484579  1
  Ta5+  Ta30  1  0.86943571  0.34644029  0.86587220  1
  Ta5+  Ta31  1  0.10712001  0.92882250  0.87765389  1
  Ta5+  Ta32  1  0.61496811  0.12755589  0.14169017  1
  Ta5+  Ta33  1  0.65633438  0.34772117  0.14666471  1
  Ta5+  Ta34  1  0.89260049  0.10337155  0.34510938  1
  Ta5+  Ta35  1  0.84855875  0.36142992  0.61661961  1
  Ta5+  Ta36  1  0.90394305  0.57446702  0.82815667  1
  Ta5+  Ta37  1  0.86968391  0.91193690  0.10998471  1
  Ta5+  Ta38  1  0.12408408  0.40755919  0.37706569  1
  Ta5+  Ta39  1  0.09934682  0.38352351  0.63224911  1
  Ta5+  Ta40  1  0.56381435  0.14117250  0.89039551  1
  Ta5+  Ta41  1  0.63162702  0.61540855  0.63224508  1
  Ta5+  Ta42  1  0.56343338  0.14418267  0.64114727  1
  Ta5+  Ta43  1  0.92012783  0.35784846  0.09341270  1
  Ta5+  Ta44  1  0.21018861  0.08775978  0.32902029  1
  Ta5+  Ta45  1  0.42497405  0.38172367  0.13685207  1
  Ta5+  Ta46  1  0.56922371  0.13447771  0.37318966  1
  Ta5+  Ta47  1  0.66293026  0.36477073  0.37641044  1
  Ta5+  Ta48  1  0.89555348  0.57731158  0.12777541  1
  Ta5+  Ta49  1  0.60925370  0.35594121  0.89208853  1
  Ta5+  Ta50  1  0.37245793  0.13055632  0.13098733  1
  Ta5+  Ta51  1  0.92814741  0.13019972  0.85715921  1
  Ta5+  Ta52  1  0.13956527  0.61561868  0.12431035  1
  Ta5+  Ta53  1  0.38110928  0.38789296  0.36220138  1
  Ta5+  Ta54  1  0.36139995  0.62794444  0.36828058  1
  Ta5+  Ta55  1  0.63629181  0.61148115  0.39347108  1
  Ta5+  Ta56  1  0.39808548  0.38483133  0.63745187  1
  Ta5+  Ta57  1  0.12188808  0.63998968  0.38028184  1
  Ta5+  Ta58  1  0.62520734  0.87917416  0.14089667  1
  Ta5+  Ta59  1  0.60793354  0.88817165  0.39815915  1
  Ta5+  Ta60  1  0.35791668  0.87543822  0.12608155  1
  Ta5+  Ta61  1  0.89239947  0.92576468  0.85954321  1
  Ta5+  Ta62  1  0.09311345  0.15299277  0.89203831  1
  Ta5+  Ta63  1  0.11740005  0.90137908  0.12409046  1
  Ta5+  Ta64  1  0.40004744  0.12975186  0.37629221  1
  Ta5+  Ta65  1  0.40366026  0.89926321  0.61770056  1
  Ta5+  Ta66  1  0.10340873  0.60262710  0.86867450  1
  Ta5+  Ta67  1  0.61324095  0.89597852  0.62591982  1
  Ta5+  Ta68  1  0.15060331  0.15129063  0.10373955  1
  Ta5+  Ta69  1  0.13980152  0.89099409  0.37131455  1
  Ta5+  Ta70  1  0.85172526  0.60577084  0.37320869  1
  Ta5+  Ta71  1  0.39449566  0.14869479  0.88133735  1
  Ta5+  Ta72  1  0.36450537  0.89797513  0.87018655  1
  Ta5+  Ta73  1  0.84602725  0.92333865  0.36590916  1
  Ta5+  Ta74  1  0.07810058  0.39428959  0.88656193  1
  W6+  W75  1  0.94504441  0.09707932  0.09848424  1
  W6+  W76  1  0.86085559  0.89253985  0.62518360  1
  W6+  W77  1  0.57534932  0.53010384  0.97338026  1
  W6+  W78  1  0.07992247  0.40704466  0.11582250  1
  W6+  W79  1  0.08285615  0.89840339  0.61935923  1
  W6+  W80  1  0.12515554  0.12945368  0.65455559  1
  W6+  W81  1  0.61587925  0.89288947  0.88890618  1
  W6+  W82  1  0.37685863  0.60365609  0.63509788  1
  O2-  O83  1  0.15428611  0.01826126  0.12308508  1
  O2-  O84  1  0.11320942  0.01917775  0.35698774  1
  O2-  O85  1  0.14726105  0.01278482  0.62599406  1
  O2-  O86  1  0.15532308  0.03829323  0.90819342  1
  O2-  O87  1  0.18452771  0.50468270  0.11518240  1
  O2-  O88  1  0.07260009  0.52131143  0.37788899  1
  O2-  O89  1  0.12100621  0.50271156  0.62183712  1
  O2-  O90  1  0.15776932  0.49481137  0.90457933  1
  O2-  O91  1  0.37089784  -0.00424187  0.12944272  1
  O2-  O92  1  0.39678582  -0.00382320  0.39179692  1
  O2-  O93  1  0.40265283  0.02069714  0.61509691  1
  O2-  O94  1  0.37198782  0.01971112  0.86973793  1
  O2-  O95  1  0.40353673  0.51226284  0.12310760  1
  O2-  O96  1  0.40884090  0.51474052  0.36880878  1
  O2-  O97  1  0.32026595  0.47848929  0.63596168  1
  O2-  O98  1  0.33038155  0.45240183  0.89040074  1
  O2-  O99  1  0.63464889  0.00346526  0.13779199  1
  O2-  O100  1  0.58377627  0.00633807  0.39491742  1
  O2-  O101  1  0.59384363  0.01757122  0.62976991  1
  O2-  O102  1  0.57493246  0.01938842  0.88476733  1
  O2-  O103  1  0.65934290  0.47974292  0.16696633  1
  O2-  O104  1  0.64606520  0.48935021  0.39593309  1
  O2-  O105  1  0.64296621  0.49379967  0.63534717  1
  O2-  O106  1  0.66280146  0.47261947  0.89857044  1
  O2-  O107  1  0.83533605  0.02557006  0.13993717  1
  O2-  O108  1  0.94748249  -0.00875190  0.37747701  1
  O2-  O109  1  0.97181481  -0.01983120  0.60921238  1
  O2-  O110  1  0.83369285  0.02890001  0.83611244  1
  O2-  O111  1  0.84779212  0.47117620  0.10051749  1
  O2-  O112  1  0.84768396  0.48334230  0.35574392  1
  O2-  O113  1  0.83543422  0.48505497  0.58649226  1
  O2-  O114  1  0.85111088  0.47696418  0.87957174  1
  O2-  O115  1  0.15052874  0.28061344  0.10768929  1
  O2-  O116  1  0.04600692  0.31198714  0.37788510  1
  O2-  O117  1  0.15992963  0.26519132  0.63155869  1
  O2-  O118  1  0.11572884  0.27584779  0.90808460  1
  O2-  O119  1  0.07993595  0.76244650  0.12352828  1
  O2-  O120  1  0.07070710  0.75441269  0.37224966  1
  O2-  O121  1  0.11863830  0.76150958  0.63656997  1
  O2-  O122  1  0.17674983  0.70223421  0.85106084  1
  O2-  O123  1  0.37136004  0.26115571  0.15078781  1
  O2-  O124  1  0.37243572  0.26018554  0.34797038  1
  O2-  O125  1  0.32950346  0.27500218  0.63445531  1
  O2-  O126  1  0.33475770  0.26520137  0.89264102  1
  O2-  O127  1  0.42131903  0.75282100  0.11323024  1
  O2-  O128  1  0.41459764  0.75347402  0.37958864  1
  O2-  O129  1  0.41153784  0.74156368  0.63900253  1
  O2-  O130  1  0.34335281  0.76413413  0.84751996  1
  O2-  O131  1  0.70428816  0.22369975  0.13268730  1
  O2-  O132  1  0.58881664  0.26539716  0.35648351  1
  O2-  O133  1  0.66625818  0.23191261  0.64227358  1
  O2-  O134  1  0.65607249  0.23980696  0.88211035  1
  O2-  O135  1  0.63522355  0.74522432  0.18006616  1
  O2-  O136  1  0.60511888  0.74953942  0.40272265  1
  O2-  O137  1  0.64068760  0.75643542  0.60325485  1
  O2-  O138  1  0.68913422  0.77867223  0.89691216  1
  O2-  O139  1  0.93605864  0.23472218  0.10893425  1
  O2-  O140  1  0.88874007  0.23458945  0.33896689  1
  O2-  O141  1  0.85629999  0.22658779  0.61057124  1
  O2-  O142  1  0.83673863  0.22708255  0.84814096  1
  O2-  O143  1  0.90161186  0.77991080  0.12165313  1
  O2-  O144  1  0.85042942  0.73933892  0.36821645  1
  O2-  O145  1  0.85800711  0.74003845  0.59810045  1
  O2-  O146  1  0.80845697  0.65274509  0.84824809  1
  O2-  O147  1  0.05930971  0.14045231  0.02221257  1
  O2-  O148  1  0.15675422  0.16710749  0.23919781  1
  O2-  O149  1  0.19980896  0.17391844  0.41515673  1
  O2-  O150  1  0.16063268  0.16320981  0.77647302  1
  O2-  O151  1  0.11323369  0.65023485  -0.00149901  1
  O2-  O152  1  0.10867542  0.63913199  0.24597961  1
  O2-  O153  1  0.12431860  0.63591203  0.50395488  1
  O2-  O154  1  0.08704700  0.61528315  0.74284783  1
  O2-  O155  1  0.37085146  0.13898527  0.00982163  1
  O2-  O156  1  0.32429646  0.11462848  0.26088641  1
  O2-  O157  1  0.38020964  0.16840445  0.49883591  1
  O2-  O158  1  0.35935350  0.16091421  0.75448853  1
  O2-  O159  1  0.31169408  0.62080681  -0.02145719  1
  O2-  O160  1  0.38366046  0.64629907  0.24272975  1
  O2-  O161  1  0.37349225  0.63482523  0.49499404  1
  O2-  O162  1  0.39807129  0.60064475  0.77929046  1
  O2-  O163  1  0.61864813  0.14043737  0.01232067  1
  O2-  O164  1  0.63202310  0.12693419  0.26486568  1
  O2-  O165  1  0.59656687  0.15644898  0.50233293  1
  O2-  O166  1  0.55782143  0.15609688  0.76355374  1
  O2-  O167  1  0.63520419  0.62178501  0.05418919  1
  O2-  O168  1  0.57102556  0.61418169  0.28029338  1
  O2-  O169  1  0.57694432  0.61510628  0.51297219  1
  O2-  O170  1  0.59222346  0.65525149  0.74258855  1
  O2-  O171  1  0.88395583  0.11885188  -0.02053701  1
  O2-  O172  1  0.96546427  0.11019902  0.24161712  1
  O2-  O173  1  0.87895299  0.12762567  0.47553858  1
  O2-  O174  1  0.94368057  0.12356723  0.72833718  1
  O2-  O175  1  0.89354343  0.63621406  0.01821201  1
  O2-  O176  1  0.90938282  0.62483328  0.25217541  1
  O2-  O177  1  0.92138586  0.60693975  0.47890676  1
  O2-  O178  1  0.91807423  0.58916474  0.70320287  1
  O2-  O179  1  0.00663653  0.39825801  -0.00543565  1
  O2-  O180  1  0.12753151  0.38667379  0.25162420  1
  O2-  O181  1  0.13879544  0.37524403  0.50388208  1
  O2-  O182  1  0.11934245  0.37482221  0.75911530  1
  O2-  O183  1  0.12371477  0.86715591  -0.00271311  1
  O2-  O184  1  0.08994312  0.87944741  0.24975306  1
  O2-  O185  1  0.09553688  0.89079586  0.48224257  1
  O2-  O186  1  0.11196712  0.89435110  0.75791046  1
  O2-  O187  1  0.43138693  0.36085425  0.01722201  1
  O2-  O188  1  0.34240892  0.40604366  0.23886824  1
  O2-  O189  1  0.37639589  0.36934134  0.49385944  1
  O2-  O190  1  0.41112987  0.35976543  0.75763527  1
  O2-  O191  1  0.35069378  0.86850849  -0.00357300  1
  O2-  O192  1  0.38438799  0.85884372  0.25271116  1
  O2-  O193  1  0.34823839  0.86524723  0.50886217  1
  O2-  O194  1  0.33928570  0.89422763  0.72813849  1
  O2-  O195  1  0.63724327  0.35025244  0.02561504  1
  O2-  O196  1  0.73056905  0.34117661  0.25693084  1
  O2-  O197  1  0.65735113  0.33639919  0.50424970  1
  O2-  O198  1  0.60924937  0.36013249  0.76150050  1
  O2-  O199  1  0.57999077  0.86623536  0.03089354  1
  O2-  O200  1  0.57039418  0.87964915  0.26165601  1
  O2-  O201  1  0.67715047  0.89835113  0.50865462  1
  O2-  O202  1  0.65952525  0.88167996  0.74577048  1
  O2-  O203  1  0.83662847  0.33020384  -0.00896860  1
  O2-  O204  1  0.91241340  0.36411763  0.22333233  1
  O2-  O205  1  0.84408176  0.33409687  0.47583845  1
  O2-  O206  1  0.86329497  0.36730467  0.73740589  1
  O2-  O207  1  0.86158043  0.90296280  -0.01652122  1
  O2-  O208  1  0.88251761  0.87582720  0.25193215  1
  O2-  O209  1  0.85253231  0.88519541  0.48308126  1
  O2-  O210  1  0.85121245  0.85311045  0.76788223  1
  O2-  O211  1  0.00049489  -0.15042033  -0.11157498  1
  O2-  O212  1  -0.00667689  -0.05689389  0.10462873  1
  O2-  O213  1  0.02787497  0.14801732  0.56647015  1
  O2-  O214  1  -0.00193818  0.00931589  0.86854898  1
  O2-  O215  1  -0.01358662  0.65725240  -0.12002415  1
  O2-  O216  1  0.01809950  0.55017584  0.12146916  1
  O2-  O217  1  -0.01676961  0.36308163  0.59905077  1
  O2-  O218  1  0.01195860  0.49980130  0.83835552  1
  O2-  O219  1  0.23917258  -0.14250100  0.13634591  1
  O2-  O220  1  0.23870444  -0.19052268  0.37960659  1
  O2-  O221  1  0.25189980  -0.04280712  0.32751682  1
  O2-  O222  1  0.23157181  -0.11761343  0.87134156  1
  O2-  O223  1  0.25432932  0.66934042  0.12143095  1
  O2-  O224  1  0.24110516  0.61560161  0.36250617  1
  O2-  O225  1  0.24670229  0.38942083  0.37679275  1
  O2-  O226  1  0.25064275  0.65356304  0.66505467  1
  O2-  O227  1  0.48287938  -0.13861035  -0.13501343  1
  O2-  O228  1  0.49441925  0.13292120  0.14620810  1
  O2-  O229  1  0.51776833  -0.11910774  0.52252262  1
  O2-  O230  1  0.50547675  -0.13324373  0.68700478  1
  O2-  O231  1  0.46458823  0.61000241  -0.00700337  1
  O2-  O232  1  0.53512161  0.35006424  0.17888615  1
  O2-  O233  1  0.51873851  0.38225602  0.60214103  1
  O2-  O234  1  0.49358702  0.47482324  0.87889083  1
  O2-  O235  1  0.74791330  -0.13586661  0.12776299  1
  O2-  O236  1  0.72405054  -0.13104456  0.34443454  1
  O2-  O237  1  0.78937705  0.03479688  0.33613834  1
  O2-  O238  1  0.81057290  0.02806593  0.62247899  1
  O2-  O239  1  0.77522146  0.64036679  0.13882206  1
  O2-  O240  1  0.73180401  0.62392933  0.29986916  1
  O2-  O241  1  0.75316474  0.62114801  0.46720973  1
  O2-  O242  1  0.75051692  0.62963448  0.65991810  1
