# generated using pymatgen
data_Gd19Ta56(WO20)8
_symmetry_space_group_name_H-M   'P 1'
_cell_length_a   15.56557150
_cell_length_b   15.56603133
_cell_length_c   15.04776808
_cell_angle_alpha   89.85241141
_cell_angle_beta   89.57416656
_cell_angle_gamma   90.51412286
_symmetry_Int_Tables_number   1
_chemical_formula_structural   Gd19Ta56(WO20)8
_chemical_formula_sum   'Gd19 Ta56 W8 O160'
_cell_volume   3645.72632545
_cell_formula_units_Z   1
loop_
 _symmetry_equiv_pos_site_id
 _symmetry_equiv_pos_as_xyz
  1  'x, y, z'
loop_
 _atom_type_symbol
 _atom_type_oxidation_number
  Gd3+  3.0
  Ta5+  5.0
  W6+  6.0
  O2-  -2.0
loop_
 _atom_site_type_symbol
 _atom_site_label
 _atom_site_symmetry_multiplicity
 _atom_site_fract_x
 _atom_site_fract_y
 _atom_site_fract_z
 _atom_site_occupancy
  Gd3+  Gd0  1  -0.01015607  0.26008928  0.75080132  1
  Gd3+  Gd1  1  0.25528766  0.74424576  0.49857116  1
  Gd3+  Gd2  1  0.22065742  0.22357300  0.23962825  1
  Gd3+  Gd3  1  0.75205947  0.70396437  0.26480030  1
  Gd3+  Gd4  1  0.77957039  0.22025268  0.51157588  1
  Gd3+  Gd5  1  0.78495671  0.23795869  -0.02357702  1
  Gd3+  Gd6  1  0.73014908  0.75582562  0.49977748  1
  Gd3+  Gd7  1  0.49788574  0.73917923  0.50523249  1
  Gd3+  Gd8  1  0.02197611  0.75294241  0.49971039  1
  Gd3+  Gd9  1  0.71408291  0.71107073  0.02902512  1
  Gd3+  Gd10  1  0.70238725  0.75001768  0.72708212  1
  Gd3+  Gd11  1  0.02036981  0.75523716  0.00933795  1
  Gd3+  Gd12  1  0.51848032  0.74880821  0.24542657  1
  Gd3+  Gd13  1  0.00733619  0.76853857  0.74669127  1
  Gd3+  Gd14  1  -0.01470011  0.25908815  0.25137459  1
  Gd3+  Gd15  1  0.23300211  0.25839289  0.76962193  1
  Gd3+  Gd16  1  0.47317507  0.25577548  0.75004091  1
  Gd3+  Gd17  1  0.51711139  0.27710913  0.24684931  1
  Gd3+  Gd18  1  0.50593223  0.75465803  -0.04768595  1
  Ta5+  Ta19  1  0.86868389  0.88119265  0.88554655  1
  Ta5+  Ta20  1  0.13842370  0.61961721  0.33685609  1
  Ta5+  Ta21  1  0.35779298  0.37958642  0.89043531  1
  Ta5+  Ta22  1  0.35905920  0.62694391  0.85156328  1
  Ta5+  Ta23  1  0.36798635  0.88138999  0.36002367  1
  Ta5+  Ta24  1  0.12003451  0.57860005  0.64047029  1
  Ta5+  Ta25  1  0.67099259  0.36474064  0.12125348  1
  Ta5+  Ta26  1  0.41015912  0.38320285  0.09372725  1
  Ta5+  Ta27  1  0.66557844  0.90897180  0.89651577  1
  Ta5+  Ta28  1  0.89405896  0.61812832  0.13036874  1
  Ta5+  Ta29  1  0.37239645  0.87665992  0.82515610  1
  Ta5+  Ta30  1  0.60183811  0.53758329  0.15062627  1
  Ta5+  Ta31  1  0.09265511  0.12765584  0.09936187  1
  Ta5+  Ta32  1  0.85541395  0.61137261  0.64268208  1
  Ta5+  Ta33  1  0.12626673  0.38825769  0.12903389  1
  Ta5+  Ta34  1  0.58255472  0.36671041  0.89658010  1
  Ta5+  Ta35  1  0.10708459  0.13132384  0.88538530  1
  Ta5+  Ta36  1  0.88049491  0.11383249  0.36724320  1
  Ta5+  Ta37  1  0.91990069  0.38097719  0.88901459  1
  Ta5+  Ta38  1  0.13652081  0.87332193  0.35790458  1
  Ta5+  Ta39  1  0.85140409  0.36923162  0.37818173  1
  Ta5+  Ta40  1  0.31104433  0.11126309  0.61346762  1
  Ta5+  Ta41  1  0.38760226  0.59669547  0.61388035  1
  Ta5+  Ta42  1  0.09915925  0.10330664  0.37053081  1
  Ta5+  Ta43  1  0.61702921  0.57291697  0.59368501  1
  Ta5+  Ta44  1  0.61752573  0.14069362  0.11225868  1
  Ta5+  Ta45  1  0.16409835  0.63167964  0.13315883  1
  Ta5+  Ta46  1  0.38202887  0.87972858  0.62179405  1
  Ta5+  Ta47  1  0.11067796  0.37584122  0.36955614  1
  Ta5+  Ta48  1  0.15040388  0.89194718  0.11615260  1
  Ta5+  Ta49  1  0.67158961  0.58467964  0.84532889  1
  Ta5+  Ta50  1  0.12951926  0.62871722  0.88136792  1
  Ta5+  Ta51  1  0.56944853  0.13064771  0.90136366  1
  Ta5+  Ta52  1  0.09190416  0.14166336  0.62032249  1
  Ta5+  Ta53  1  0.83515358  0.36278973  0.64400018  1
  Ta5+  Ta54  1  0.35378389  0.12183851  0.36455424  1
  Ta5+  Ta55  1  0.14757864  0.89128669  0.86992670  1
  Ta5+  Ta56  1  0.61219316  0.90048353  0.37852331  1
  Ta5+  Ta57  1  0.92282209  0.11682008  0.10809690  1
  Ta5+  Ta58  1  0.85839017  0.88116491  0.62804348  1
  Ta5+  Ta59  1  0.93990920  0.11083738  0.89069928  1
  Ta5+  Ta60  1  0.64139533  0.89595702  0.13127902  1
  Ta5+  Ta61  1  0.12243677  0.39001163  0.62237833  1
  Ta5+  Ta62  1  0.66086834  0.34485709  0.64410518  1
  Ta5+  Ta63  1  0.62730721  0.14812617  0.64360601  1
  Ta5+  Ta64  1  0.88688046  0.37375286  0.11625567  1
  Ta5+  Ta65  1  0.08872808  0.38637203  0.88155426  1
  Ta5+  Ta66  1  0.39137080  0.63198887  0.09819165  1
  Ta5+  Ta67  1  0.35699108  0.62505632  0.34903336  1
  Ta5+  Ta68  1  0.39979507  0.12737631  0.10150068  1
  Ta5+  Ta69  1  0.87873100  0.62441798  0.87395978  1
  Ta5+  Ta70  1  0.88056112  0.87543253  0.13917779  1
  Ta5+  Ta71  1  0.90164159  0.92030140  0.37924192  1
  Ta5+  Ta72  1  0.67486723  0.36200649  0.38244576  1
  Ta5+  Ta73  1  0.39329162  0.87975943  0.10166764  1
  Ta5+  Ta74  1  0.91819891  0.11390817  0.62969820  1
  W6+  W75  1  0.32864226  0.36036089  0.61007155  1
  W6+  W76  1  0.37660370  0.38023187  0.35904165  1
  W6+  W77  1  0.10394134  0.93835362  0.60548599  1
  W6+  W78  1  0.57145481  0.55906621  0.38272304  1
  W6+  W79  1  0.62660471  0.14755962  0.37636273  1
  W6+  W80  1  0.90442994  0.60574739  0.39550667  1
  W6+  W81  1  0.35368576  0.12267313  0.87087158  1
  W6+  W82  1  0.60309061  0.90051983  0.63089913  1
  O2-  O83  1  0.14959556  0.01190954  0.10565022  1
  O2-  O84  1  0.13623798  -0.00869422  0.39689789  1
  O2-  O85  1  0.20035668  0.05406828  0.60636012  1
  O2-  O86  1  0.15269795  0.00967597  0.87567151  1
  O2-  O87  1  0.16430402  0.50733028  0.12493758  1
  O2-  O88  1  0.11963708  0.49867180  0.34958679  1
  O2-  O89  1  0.20842584  0.50089165  0.61813228  1
  O2-  O90  1  0.11435233  0.51174974  0.86811151  1
  O2-  O91  1  0.42012600  -0.00531403  0.11534483  1
  O2-  O92  1  0.39661825  0.00649640  0.35561266  1
  O2-  O93  1  0.36605022  0.00220957  0.62034220  1
  O2-  O94  1  0.37365391  -0.00870070  0.84716849  1
  O2-  O95  1  0.39674806  0.51375807  0.10304079  1
  O2-  O96  1  0.40017029  0.51189755  0.35004378  1
  O2-  O97  1  0.39204031  0.48138178  0.61694567  1
  O2-  O98  1  0.36346660  0.50641852  0.86605050  1
  O2-  O99  1  0.62810093  0.01320123  0.10621647  1
  O2-  O100  1  0.62856462  0.01597605  0.36557299  1
  O2-  O101  1  0.60326403  0.03185735  0.64384917  1
  O2-  O102  1  0.59362080  0.00513537  0.90084017  1
  O2-  O103  1  0.54218474  0.42586409  0.12235302  1
  O2-  O104  1  0.67769791  0.48053924  0.37834603  1
  O2-  O105  1  0.65657127  0.46869682  0.64347223  1
  O2-  O106  1  0.60557266  0.49352670  0.88673054  1
  O2-  O107  1  0.92432998  -0.01471515  0.13597551  1
  O2-  O108  1  0.81357283  0.00441047  0.36316719  1
  O2-  O109  1  0.86303979  0.00013014  0.62889639  1
  O2-  O110  1  0.94208748  -0.02373324  0.89004410  1
  O2-  O111  1  0.88629836  0.50173572  0.11863560  1
  O2-  O112  1  0.86319659  0.48939012  0.38514641  1
  O2-  O113  1  0.84418579  0.49260189  0.64638712  1
  O2-  O114  1  0.91389131  0.51141831  0.87498905  1
  O2-  O115  1  0.11014710  0.25355381  0.14467481  1
  O2-  O116  1  0.10869923  0.24488690  0.34336958  1
  O2-  O117  1  0.08065859  0.27015367  0.62293588  1
  O2-  O118  1  0.10107494  0.26100409  0.86498164  1
  O2-  O119  1  0.13264275  0.76148730  0.11268451  1
  O2-  O120  1  0.15445265  0.74936170  0.36147047  1
  O2-  O121  1  -0.00983434  0.84769572  0.61255736  1
  O2-  O122  1  0.09177916  0.75731745  0.87740828  1
  O2-  O123  1  0.41477543  0.25446507  0.10213183  1
  O2-  O124  1  0.40024244  0.23365634  0.34381633  1
  O2-  O125  1  0.27211018  0.23436533  0.62412999  1
  O2-  O126  1  0.33434335  0.25741541  0.88808597  1
  O2-  O127  1  0.45389966  0.75669376  0.09869527  1
  O2-  O128  1  0.34262939  0.75366983  0.37167612  1
  O2-  O129  1  0.37047190  0.75196607  0.59945048  1
  O2-  O130  1  0.41134249  0.74506306  0.83873729  1
  O2-  O131  1  0.59238693  0.26393353  0.10917606  1
  O2-  O132  1  0.58025828  0.27242032  0.38021608  1
  O2-  O133  1  0.55632586  0.25217156  0.62852020  1
  O2-  O134  1  0.52858045  0.25021865  0.90318056  1
  O2-  O135  1  0.65191120  0.76719764  0.15762924  1
  O2-  O136  1  0.68346433  0.80377395  0.34743695  1
  O2-  O137  1  0.61702380  0.76495238  0.61317505  1
  O2-  O138  1  0.62604970  0.68742420  0.89634766  1
  O2-  O139  1  0.91021731  0.24692056  0.10095554  1
  O2-  O140  1  0.86992146  0.23687374  0.37501775  1
  O2-  O141  1  0.87385513  0.23450608  0.64140262  1
  O2-  O142  1  0.91607814  0.24510871  0.89811756  1
  O2-  O143  1  0.83109671  0.73739124  0.13058457  1
  O2-  O144  1  0.81669273  0.69797387  0.40007609  1
  O2-  O145  1  0.83172809  0.74879330  0.63315758  1
  O2-  O146  1  0.91713515  0.75253240  0.87195983  1
  O2-  O147  1  0.15728450  0.16649170  -0.00510877  1
  O2-  O148  1  0.10337467  0.11236657  0.23967293  1
  O2-  O149  1  0.08703843  0.14000122  0.48971687  1
  O2-  O150  1  0.13194838  0.14771683  0.74946013  1
  O2-  O151  1  0.10801148  0.63031751  0.00908756  1
  O2-  O152  1  0.07501317  0.63361235  0.22158932  1
  O2-  O153  1  0.13160121  0.67501905  0.56278744  1
  O2-  O154  1  0.11893344  0.64726746  0.74775922  1
  O2-  O155  1  0.32821953  0.11196807  0.01059715  1
  O2-  O156  1  0.34155496  0.12711323  0.21927482  1
  O2-  O157  1  0.35272858  0.12942240  0.49499033  1
  O2-  O158  1  0.37192053  0.14755017  0.72370240  1
  O2-  O159  1  0.42410317  0.63677777  -0.03000937  1
  O2-  O160  1  0.40451573  0.65112145  0.22538259  1
  O2-  O161  1  0.37708302  0.62750733  0.49138132  1
  O2-  O162  1  0.33389170  0.62373058  0.72651917  1
  O2-  O163  1  0.66600643  0.15325372  -0.01905320  1
  O2-  O164  1  0.59428536  0.14728807  0.23657206  1
  O2-  O165  1  0.65104466  0.14983433  0.51626705  1
  O2-  O166  1  0.58633242  0.15006703  0.77618593  1
  O2-  O167  1  0.58655663  0.62421863  0.06656619  1
  O2-  O168  1  0.61631341  0.61736978  0.25286542  1
  O2-  O169  1  0.62104114  0.65497352  0.47749323  1
  O2-  O170  1  0.62469282  0.61247779  0.73233567  1
  O2-  O171  1  0.85123867  0.10831082  -0.00194580  1
  O2-  O172  1  0.90479306  0.13072338  0.23839666  1
  O2-  O173  1  0.89322737  0.11658242  0.49851205  1
  O2-  O174  1  0.91964824  0.12071492  0.76665757  1
  O2-  O175  1  0.91876753  0.64464223  0.00191801  1
  O2-  O176  1  0.88049846  0.62436760  0.25679144  1
  O2-  O177  1  0.92675653  0.62828573  0.54111212  1
  O2-  O178  1  0.93742142  0.63480275  0.74110374  1
  O2-  O179  1  0.11843923  0.37707591  0.00569651  1
  O2-  O180  1  0.18399920  0.36802279  0.25286606  1
  O2-  O181  1  0.13703079  0.37606164  0.48956389  1
  O2-  O182  1  0.14163253  0.37832761  0.75065113  1
  O2-  O183  1  0.09928980  0.88344317  -0.00548036  1
  O2-  O184  1  0.10218442  0.88836599  0.23410369  1
  O2-  O185  1  0.14714132  0.84687559  0.49879111  1
  O2-  O186  1  0.10647715  0.88072231  0.75078844  1
  O2-  O187  1  0.31288829  0.38456810  0.01728213  1
  O2-  O188  1  0.39777321  0.37336685  0.22337556  1
  O2-  O189  1  0.33551040  0.36072985  0.47292571  1
  O2-  O190  1  0.35340610  0.35771345  0.75711581  1
  O2-  O191  1  0.41414110  0.86615197  -0.02718172  1
  O2-  O192  1  0.40650109  0.85266318  0.23133404  1
  O2-  O193  1  0.33711050  0.87882958  0.48643279  1
  O2-  O194  1  0.29814093  0.86518880  0.72376702  1
  O2-  O195  1  0.67039419  0.35305393  -0.02014298  1
  O2-  O196  1  0.66468419  0.35275882  0.24739128  1
  O2-  O197  1  0.67094531  0.34031586  0.51342410  1
  O2-  O198  1  0.61064038  0.34523960  0.77628035  1
  O2-  O199  1  0.61176767  0.85388085  0.00867833  1
  O2-  O200  1  0.57939555  0.89569385  0.23955730  1
  O2-  O201  1  0.65592237  0.88893192  0.49479155  1
  O2-  O202  1  0.62089804  0.84641279  0.80391841  1
  O2-  O203  1  0.84411778  0.37925467  -0.00342399  1
  O2-  O204  1  0.86255763  0.35376046  0.24371113  1
  O2-  O205  1  0.85333068  0.35436008  0.51193858  1
  O2-  O206  1  0.88395265  0.36516301  0.76462358  1
  O2-  O207  1  0.90719614  0.85308630  0.01417497  1
  O2-  O208  1  0.87353570  0.85827457  0.27271559  1
  O2-  O209  1  0.85527306  0.87218713  0.48931134  1
  O2-  O210  1  0.88919410  0.86560570  0.75725043  1
  O2-  O211  1  0.01343350  0.08540027  0.00409957  1
  O2-  O212  1  0.00976550  -0.14496950  0.39006115  1
  O2-  O213  1  -0.02006406  0.02607316  0.36624134  1
  O2-  O214  1  0.02595992  0.03634660  0.65411103  1
  O2-  O215  1  0.01101940  0.39124001  0.16823375  1
  O2-  O216  1  0.02847490  0.64456672  0.39746560  1
  O2-  O217  1  -0.00923251  0.36532517  0.36632025  1
  O2-  O218  1  0.03876975  0.48812894  0.62836272  1
  O2-  O219  1  0.27186154  -0.12207356  0.10669407  1
  O2-  O220  1  0.25504293  -0.10294097  0.31934407  1
  O2-  O221  1  0.23275883  0.12933095  0.36155032  1
  O2-  O222  1  0.25719592  -0.14915309  0.88977972  1
  O2-  O223  1  0.27870671  0.66387403  0.07961628  1
  O2-  O224  1  0.23689898  0.62599239  0.24657820  1
  O2-  O225  1  0.24222506  0.61418935  0.41325688  1
  O2-  O226  1  0.24920226  0.65253721  0.89099972  1
  O2-  O227  1  0.51194479  0.12171369  0.03285683  1
  O2-  O228  1  0.49845398  -0.15379293  0.38449666  1
  O2-  O229  1  0.49137167  -0.12158038  0.55900068  1
  O2-  O230  1  0.45950489  -0.12054365  0.72789962  1
  O2-  O231  1  0.46762550  0.39331846  -0.03794227  1
  O2-  O232  1  0.48354862  0.66636214  0.36941474  1
  O2-  O233  1  0.55206357  0.51012838  0.51015922  1
  O2-  O234  1  0.50321943  0.63196812  0.62472755  1
  O2-  O235  1  0.75832156  -0.18423117  -0.06853540  1
  O2-  O236  1  0.76198624  -0.09759983  0.13073560  1
  O2-  O237  1  0.73880944  -0.11740671  0.66044428  1
  O2-  O238  1  0.77147724  -0.03955309  0.86111748  1
  O2-  O239  1  0.76699968  0.60266738  -0.06204524  1
  O2-  O240  1  0.70581646  0.49156540  0.11309473  1
  O2-  O241  1  0.73703814  0.62310054  0.59277765  1
  O2-  O242  1  0.78341816  0.62843414  0.77600948  1
