# generated using pymatgen
data_Gd19Ta56(WO20)8
_symmetry_space_group_name_H-M   'P 1'
_cell_length_a   15.45896588
_cell_length_b   15.42963403
_cell_length_c   15.29001748
_cell_angle_alpha   89.97154842
_cell_angle_beta   90.01724614
_cell_angle_gamma   89.94263590
_symmetry_Int_Tables_number   1
_chemical_formula_structural   Gd19Ta56(WO20)8
_chemical_formula_sum   'Gd19 Ta56 W8 O160'
_cell_volume   3647.06710969
_cell_formula_units_Z   1
loop_
 _symmetry_equiv_pos_site_id
 _symmetry_equiv_pos_as_xyz
  1  'x, y, z'
loop_
 _atom_type_symbol
 _atom_type_oxidation_number
  Gd3+  3.0
  Ta5+  5.0
  W6+  6.0
  O2-  -2.0
loop_
 _atom_site_type_symbol
 _atom_site_label
 _atom_site_symmetry_multiplicity
 _atom_site_fract_x
 _atom_site_fract_y
 _atom_site_fract_z
 _atom_site_occupancy
  Gd3+  Gd0  1  0.75060278  0.75297498  -0.00470364  1
  Gd3+  Gd1  1  0.01353667  0.75506475  0.24451182  1
  Gd3+  Gd2  1  0.23608014  0.74787922  0.00219694  1
  Gd3+  Gd3  1  0.01339801  0.23281490  0.25072993  1
  Gd3+  Gd4  1  0.03399527  0.26556872  -0.00946338  1
  Gd3+  Gd5  1  0.24472318  0.74167266  0.75876095  1
  Gd3+  Gd6  1  0.23618499  0.74438102  0.50298304  1
  Gd3+  Gd7  1  0.74135472  0.75273474  0.50326890  1
  Gd3+  Gd8  1  0.48694243  0.25586401  -0.01490700  1
  Gd3+  Gd9  1  0.50144681  0.74223067  -0.00625591  1
  Gd3+  Gd10  1  0.25994309  0.74944559  0.25609801  1
  Gd3+  Gd11  1  0.49975533  0.74590679  0.27314086  1
  Gd3+  Gd12  1  0.71884580  0.22894038  0.75097057  1
  Gd3+  Gd13  1  0.73526474  0.24598478  0.26140791  1
  Gd3+  Gd14  1  0.01196930  0.24687263  0.49839977  1
  Gd3+  Gd15  1  -0.01318314  0.77112836  0.75808444  1
  Gd3+  Gd16  1  0.47730112  0.74483612  0.51330275  1
  Gd3+  Gd17  1  -0.00758879  0.75923030  -0.00518407  1
  Gd3+  Gd18  1  0.71352984  0.22912726  0.49576781  1
  Ta5+  Ta19  1  0.59650314  0.61655774  0.62323794  1
  Ta5+  Ta20  1  0.83984407  0.36831956  0.62699276  1
  Ta5+  Ta21  1  0.18126443  0.14306148  0.87504730  1
  Ta5+  Ta22  1  0.12286833  0.89141676  0.37266148  1
  Ta5+  Ta23  1  0.40498699  0.13493023  0.63053500  1
  Ta5+  Ta24  1  0.86872145  0.61547480  0.86639546  1
  Ta5+  Ta25  1  0.86737536  0.11068406  0.36894306  1
  Ta5+  Ta26  1  0.59572858  0.87943043  0.14301301  1
  Ta5+  Ta27  1  0.12679710  0.37211046  0.36655384  1
  Ta5+  Ta28  1  0.37421582  0.61311942  0.88194801  1
  Ta5+  Ta29  1  0.38876339  0.13675915  0.37671574  1
  Ta5+  Ta30  1  0.62536580  0.62045919  0.86656831  1
  Ta5+  Ta31  1  0.57418235  0.12786374  0.62145507  1
  Ta5+  Ta32  1  0.60270909  0.89560964  0.61064153  1
  Ta5+  Ta33  1  0.36278014  0.90058265  0.11377780  1
  Ta5+  Ta34  1  0.11780295  0.89815994  0.88084476  1
  Ta5+  Ta35  1  0.13914810  0.61319791  0.36577620  1
  Ta5+  Ta36  1  0.64953532  0.37259712  0.88036243  1
  Ta5+  Ta37  1  0.15590022  0.36352196  0.62588393  1
  Ta5+  Ta38  1  0.86695073  0.89579789  0.62432686  1
  Ta5+  Ta39  1  0.36201036  0.34908906  0.38149039  1
  Ta5+  Ta40  1  0.63764082  0.62084436  0.13848545  1
  Ta5+  Ta41  1  0.62569260  0.37862183  0.38022552  1
  Ta5+  Ta42  1  0.19032560  0.35686572  0.12423963  1
  Ta5+  Ta43  1  0.56091719  0.13618116  0.36489420  1
  Ta5+  Ta44  1  0.11741790  0.60580989  0.87554890  1
  Ta5+  Ta45  1  0.11275958  0.89630840  0.62173579  1
  Ta5+  Ta46  1  0.18380016  0.36273169  0.86974941  1
  Ta5+  Ta47  1  0.34987466  0.13114187  0.87045642  1
  Ta5+  Ta48  1  0.88625359  0.11818173  0.10743457  1
  Ta5+  Ta49  1  0.41546443  0.35958527  0.62111726  1
  Ta5+  Ta50  1  0.87017486  0.13218293  0.88481051  1
  Ta5+  Ta51  1  0.81907481  0.36891214  0.87939710  1
  Ta5+  Ta52  1  0.39353135  0.60127038  0.38465290  1
  Ta5+  Ta53  1  0.34498501  0.60659553  0.12931890  1
  Ta5+  Ta54  1  0.62285608  0.89862734  0.37110049  1
  Ta5+  Ta55  1  0.61063790  0.61367087  0.38743882  1
  Ta5+  Ta56  1  0.12423688  0.14125009  0.63767584  1
  Ta5+  Ta57  1  0.35192643  0.36763383  0.86366699  1
  Ta5+  Ta58  1  0.15941035  0.90363601  0.12772389  1
  Ta5+  Ta59  1  0.39853774  0.90733207  0.63421079  1
  Ta5+  Ta60  1  0.13008565  0.60221418  0.12899250  1
  Ta5+  Ta61  1  0.62180322  0.87334628  0.83673614  1
  Ta5+  Ta62  1  0.58517223  0.36645409  0.63344949  1
  Ta5+  Ta63  1  0.35853747  0.35761274  0.12945723  1
  Ta5+  Ta64  1  0.37464029  0.88066398  0.87513921  1
  Ta5+  Ta65  1  0.90413029  0.59608177  0.62027884  1
  Ta5+  Ta66  1  0.87846770  0.88917774  0.36627442  1
  Ta5+  Ta67  1  0.34796851  0.15043798  0.12709979  1
  Ta5+  Ta68  1  0.87436394  0.12348909  0.62895874  1
  Ta5+  Ta69  1  0.87243344  0.36564511  0.11283861  1
  Ta5+  Ta70  1  0.17843754  0.15304539  0.12447733  1
  Ta5+  Ta71  1  0.88649520  0.60602786  0.12711708  1
  Ta5+  Ta72  1  0.64183293  0.38048296  0.11807468  1
  Ta5+  Ta73  1  0.64276884  0.12375368  0.11791513  1
  Ta5+  Ta74  1  0.10871220  0.60104357  0.61973262  1
  W6+  W75  1  0.35644138  0.58656569  0.63075653  1
  W6+  W76  1  0.83969931  0.93644648  0.16086257  1
  W6+  W77  1  0.86356770  0.62948144  0.37622407  1
  W6+  W78  1  0.88056486  0.37310867  0.37342569  1
  W6+  W79  1  0.86320551  0.89272384  0.89155998  1
  W6+  W80  1  0.37585579  0.88946479  0.39903157  1
  W6+  W81  1  0.18550610  0.13838039  0.37846428  1
  W6+  W82  1  0.60329474  0.11426545  0.88014043  1
  O2-  O83  1  0.15865493  0.02264359  0.11940675  1
  O2-  O84  1  0.13938394  0.00868521  0.37872153  1
  O2-  O85  1  0.14368716  0.01109094  0.62455541  1
  O2-  O86  1  0.15133688  0.01363007  0.88236413  1
  O2-  O87  1  0.12584267  0.48265800  0.12047355  1
  O2-  O88  1  0.15127990  0.49298784  0.38454942  1
  O2-  O89  1  0.15759377  0.48680654  0.62431307  1
  O2-  O90  1  0.14880054  0.48958334  0.87467215  1
  O2-  O91  1  0.36723334  0.01969042  0.11948552  1
  O2-  O92  1  0.37502338  0.01601070  0.37374123  1
  O2-  O93  1  0.34770868  0.01233335  0.61929190  1
  O2-  O94  1  0.34834143  -0.00260571  0.88612034  1
  O2-  O95  1  0.36834050  0.48818616  0.13855356  1
  O2-  O96  1  0.36732191  0.48393441  0.38330674  1
  O2-  O97  1  0.37069143  0.47284524  0.58645277  1
  O2-  O98  1  0.34588368  0.49743590  0.89061348  1
  O2-  O99  1  0.61646518  -0.00616695  0.12901635  1
  O2-  O100  1  0.61492360  0.01645694  0.36060101  1
  O2-  O101  1  0.62456970  0.01478196  0.59688528  1
  O2-  O102  1  0.61643819  -0.01625497  0.88393531  1
  O2-  O103  1  0.60253814  0.50625676  0.13111128  1
  O2-  O104  1  0.65570989  0.50038900  0.38225261  1
  O2-  O105  1  0.58349182  0.49759989  0.62367801  1
  O2-  O106  1  0.64470023  0.50250724  0.88566240  1
  O2-  O107  1  0.94573895  0.01576410  0.12266331  1
  O2-  O108  1  0.93969172  0.01381801  0.37370587  1
  O2-  O109  1  0.82045979  0.01250781  0.63556427  1
  O2-  O110  1  0.82512982  0.02451318  0.90435755  1
  O2-  O111  1  0.91331667  0.48921850  0.13050068  1
  O2-  O112  1  0.87080477  0.50586215  0.37614409  1
  O2-  O113  1  0.83335294  0.49210365  0.62919437  1
  O2-  O114  1  0.84114463  0.49829966  0.87437445  1
  O2-  O115  1  0.09500696  0.26418194  0.12926497  1
  O2-  O116  1  0.09636377  0.24251750  0.37516516  1
  O2-  O117  1  0.07456036  0.26438181  0.64187558  1
  O2-  O118  1  0.11726134  0.25365900  0.85999097  1
  O2-  O119  1  0.15375953  0.75170771  0.14310672  1
  O2-  O120  1  0.12838809  0.74410800  0.34309603  1
  O2-  O121  1  0.19580179  0.80694059  0.63733467  1
  O2-  O122  1  0.08853710  0.75379596  0.87166586  1
  O2-  O123  1  0.43278153  0.25108260  0.12275163  1
  O2-  O124  1  0.29487639  0.24040948  0.38814275  1
  O2-  O125  1  0.36421190  0.24938047  0.64348272  1
  O2-  O126  1  0.39997184  0.24999716  0.85919392  1
  O2-  O127  1  0.34007152  0.75016319  0.11724283  1
  O2-  O128  1  0.39927771  0.74831694  0.38183116  1
  O2-  O129  1  0.23356115  0.64352709  0.61978759  1
  O2-  O130  1  0.37297523  0.74744383  0.90584737  1
  O2-  O131  1  0.67370472  0.25042599  0.11639007  1
  O2-  O132  1  0.59544436  0.25615675  0.35684152  1
  O2-  O133  1  0.63058008  0.24383210  0.62814765  1
  O2-  O134  1  0.61896255  0.24649715  0.88284474  1
  O2-  O135  1  0.55252474  0.71673292  0.13884888  1
  O2-  O136  1  0.60094955  0.74619477  0.39766841  1
  O2-  O137  1  0.60664218  0.76348286  0.59553852  1
  O2-  O138  1  0.59816052  0.75111757  0.87368100  1
  O2-  O139  1  0.92426213  0.24692622  0.11383646  1
  O2-  O140  1  0.91739388  0.22992648  0.37482812  1
  O2-  O141  1  0.80510963  0.23659281  0.61944626  1
  O2-  O142  1  0.81299734  0.23947331  0.90344808  1
  O2-  O143  1  1.00023464  0.66530999  0.11972234  1
  O2-  O144  1  0.83089838  0.76918829  0.38335883  1
  O2-  O145  1  0.80487802  0.79304785  0.62519953  1
  O2-  O146  1  0.89999473  0.75325989  0.87629098  1
  O2-  O147  1  0.14811890  0.15962385  -0.00074163  1
  O2-  O148  1  0.14689892  0.14944572  0.24963482  1
  O2-  O149  1  0.14754688  0.15677592  0.51641888  1
  O2-  O150  1  0.18670059  0.14609821  0.74161729  1
  O2-  O151  1  0.10105664  0.64091600  -0.00091308  1
  O2-  O152  1  0.07250071  0.60686601  0.25758392  1
  O2-  O153  1  0.11423699  0.63857156  0.49201359  1
  O2-  O154  1  0.12432674  0.63319332  0.74627498  1
  O2-  O155  1  0.38022306  0.14722426  -0.00576334  1
  O2-  O156  1  0.36003511  0.14902763  0.24895059  1
  O2-  O157  1  0.39753604  0.14057821  0.50358368  1
  O2-  O158  1  0.39791535  0.10991136  0.75772762  1
  O2-  O159  1  0.40944475  0.62160512  0.01783310  1
  O2-  O160  1  0.37805621  0.64855114  0.24885314  1
  O2-  O161  1  0.35631737  0.64232888  0.50458788  1
  O2-  O162  1  0.35159474  0.63671644  0.75876730  1
  O2-  O163  1  0.57333364  0.13236497  0.01790995  1
  O2-  O164  1  0.60320665  0.13969899  0.23287147  1
  O2-  O165  1  0.58516749  0.14796052  0.48996120  1
  O2-  O166  1  0.61453438  0.12227552  0.74415028  1
  O2-  O167  1  0.62526683  0.64565107  0.00465560  1
  O2-  O168  1  0.65553121  0.63979027  0.26193635  1
  O2-  O169  1  0.66733652  0.62354391  0.51505658  1
  O2-  O170  1  0.64138027  0.62883934  0.73811804  1
  O2-  O171  1  0.94659269  0.13926238  -0.01113507  1
  O2-  O172  1  0.87164590  0.13992885  0.23914582  1
  O2-  O173  1  0.87030100  0.12861499  0.50212692  1
  O2-  O174  1  0.85109589  0.14524557  0.75694158  1
  O2-  O175  1  0.88162396  0.64259937  0.00147913  1
  O2-  O176  1  0.88605009  0.65023937  0.24180518  1
  O2-  O177  1  0.85633757  0.64361142  0.51875809  1
  O2-  O178  1  0.87272768  0.63538534  0.73869120  1
  O2-  O179  1  0.16308379  0.35240644  -0.00224238  1
  O2-  O180  1  0.18072798  0.36253237  0.25628360  1
  O2-  O181  1  0.11709206  0.35573580  0.49822766  1
  O2-  O182  1  0.19789383  0.35333547  0.73982551  1
  O2-  O183  1  0.10534724  0.86235384  0.01600724  1
  O2-  O184  1  0.09906012  0.88685107  0.23975915  1
  O2-  O185  1  0.12699786  0.86417376  0.49888906  1
  O2-  O186  1  0.09898700  0.88062056  0.75380046  1
  O2-  O187  1  0.37272625  0.35718774  -0.00170813  1
  O2-  O188  1  0.38260447  0.34718142  0.25986348  1
  O2-  O189  1  0.42245928  0.33677663  0.48742587  1
  O2-  O190  1  0.38823755  0.38720815  0.74708643  1
  O2-  O191  1  0.42441863  0.87557247  0.00397685  1
  O2-  O192  1  0.47606307  0.87050151  0.17531571  1
  O2-  O193  1  0.34900931  0.83004907  0.54287052  1
  O2-  O194  1  0.35012861  0.85623500  0.74292405  1
  O2-  O195  1  0.58803167  0.37156308  0.00465662  1
  O2-  O196  1  0.64699219  0.37315166  0.24465469  1
  O2-  O197  1  0.61824729  0.35945509  0.50394632  1
  O2-  O198  1  0.62439676  0.36898445  0.75583606  1
  O2-  O199  1  0.62799692  0.83208822  0.03573912  1
  O2-  O200  1  0.65068685  0.84913733  0.25177942  1
  O2-  O201  1  0.66948160  0.88619853  0.48697994  1
  O2-  O202  1  0.66611060  0.87999485  0.72171902  1
  O2-  O203  1  0.90381100  0.36461359  -0.01101789  1
  O2-  O204  1  0.84862846  0.34327247  0.23851322  1
  O2-  O205  1  0.90428755  0.35288378  0.51652488  1
  O2-  O206  1  0.83237688  0.35000358  0.75260205  1
  O2-  O207  1  0.86074688  0.84964952  0.03205432  1
  O2-  O208  1  0.90106029  0.84543909  0.23783186  1
  O2-  O209  1  0.85680450  0.90242868  0.49179418  1
  O2-  O210  1  0.89012392  0.88565853  0.74923455  1
  O2-  O211  1  -0.00241529  -0.09405778  -0.10163520  1
  O2-  O212  1  0.00119709  -0.14632628  0.37663410  1
  O2-  O213  1  -0.00925792  -0.12544381  0.61215715  1
  O2-  O214  1  -0.00568995  0.11172370  0.63812199  1
  O2-  O215  1  -0.00648897  0.59829407  -0.13613319  1
  O2-  O216  1  0.01192765  0.37895797  0.32289435  1
  O2-  O217  1  0.00571975  0.68492047  0.63581212  1
  O2-  O218  1  0.00255468  0.52732029  0.59666148  1
  O2-  O219  1  0.25976626  -0.10835918  0.04070793  1
  O2-  O220  1  0.26777539  -0.10943331  0.20356128  1
  O2-  O221  1  0.24563664  -0.14992068  0.38036369  1
  O2-  O222  1  0.23883392  -0.15563415  0.87446582  1
  O2-  O223  1  0.24282984  0.60643475  0.05546352  1
  O2-  O224  1  0.22813237  0.60690668  0.21118889  1
  O2-  O225  1  0.25976588  0.63956000  0.37513280  1
  O2-  O226  1  0.23975119  0.65095477  0.88424212  1
  O2-  O227  1  0.49289473  -0.12896559  -0.14824404  1
  O2-  O228  1  0.50433978  -0.11777485  0.35532944  1
  O2-  O229  1  0.49413077  -0.10556318  0.53674158  1
  O2-  O230  1  0.50763659  -0.08049174  0.69408602  1
  O2-  O231  1  0.49781251  0.61278438  -0.13224089  1
  O2-  O232  1  0.50735704  0.59871089  0.31344534  1
  O2-  O233  1  0.50780846  0.60407535  0.46785831  1
  O2-  O234  1  0.47924824  0.65151475  0.63696534  1
  O2-  O235  1  0.76576929  0.08275001  0.10791048  1
  O2-  O236  1  0.79886631  -0.03677919  0.30234125  1
  O2-  O237  1  0.74447425  0.14597594  0.37334006  1
  O2-  O238  1  0.73267371  -0.15057602  0.88829981  1
  O2-  O239  1  0.75724888  0.41080480  0.09336850  1
  O2-  O240  1  0.76020892  0.63053351  0.11426838  1
  O2-  O241  1  0.74850603  0.33301091  0.39025030  1
  O2-  O242  1  0.74892214  0.65635462  0.88127609  1
