# generated using pymatgen
data_Gd19Ta56(WO20)8
_symmetry_space_group_name_H-M   'P 1'
_cell_length_a   15.46119354
_cell_length_b   15.51014025
_cell_length_c   15.35704995
_cell_angle_alpha   90.09624233
_cell_angle_beta   89.90187498
_cell_angle_gamma   90.02819475
_symmetry_Int_Tables_number   1
_chemical_formula_structural   Gd19Ta56(WO20)8
_chemical_formula_sum   'Gd19 Ta56 W8 O160'
_cell_volume   3682.69062931
_cell_formula_units_Z   1
loop_
 _symmetry_equiv_pos_site_id
 _symmetry_equiv_pos_as_xyz
  1  'x, y, z'
loop_
 _atom_type_symbol
 _atom_type_oxidation_number
  Gd3+  3.0
  Ta5+  5.0
  W6+  6.0
  O2-  -2.0
loop_
 _atom_site_type_symbol
 _atom_site_label
 _atom_site_symmetry_multiplicity
 _atom_site_fract_x
 _atom_site_fract_y
 _atom_site_fract_z
 _atom_site_occupancy
  Gd3+  Gd0  1  0.50917260  0.25986384  0.50455223  1
  Gd3+  Gd1  1  0.23902410  0.73545095  0.49760086  1
  Gd3+  Gd2  1  -0.00822491  0.75281490  0.24656809  1
  Gd3+  Gd3  1  0.48613022  0.74603002  0.52378061  1
  Gd3+  Gd4  1  0.22899838  0.75651716  -0.00883627  1
  Gd3+  Gd5  1  0.51649775  0.25174074  0.25069403  1
  Gd3+  Gd6  1  0.21159685  0.73694193  0.74789648  1
  Gd3+  Gd7  1  0.77774709  0.24022685  0.77273930  1
  Gd3+  Gd8  1  -0.02105271  0.27190743  0.50329821  1
  Gd3+  Gd9  1  0.74412817  0.76284801  0.24196179  1
  Gd3+  Gd10  1  0.25080117  0.24649282  0.24128392  1
  Gd3+  Gd11  1  0.72659339  0.75740804  0.51127288  1
  Gd3+  Gd12  1  -0.00915704  0.74865299  -0.00819138  1
  Gd3+  Gd13  1  0.77244528  0.22733420  0.22758424  1
  Gd3+  Gd14  1  -0.02127474  0.73382027  0.74879232  1
  Gd3+  Gd15  1  0.00692786  0.74379413  0.51558189  1
  Gd3+  Gd16  1  0.00854571  0.27489304  0.25754104  1
  Gd3+  Gd17  1  0.50115788  0.75145851  0.25378188  1
  Gd3+  Gd18  1  0.26381693  0.25340430  0.77618190  1
  Ta5+  Ta19  1  0.40072098  0.12579087  0.88023260  1
  Ta5+  Ta20  1  0.12503261  0.39480903  0.39143902  1
  Ta5+  Ta21  1  0.12937459  0.13751616  0.89043707  1
  Ta5+  Ta22  1  0.64627516  0.36842300  0.88724998  1
  Ta5+  Ta23  1  0.69165582  0.86188121  0.87733666  1
  Ta5+  Ta24  1  0.61550057  0.61569547  0.63921196  1
  Ta5+  Ta25  1  0.91759258  0.12297953  0.88027421  1
  Ta5+  Ta26  1  0.86806162  0.88306193  0.62654424  1
  Ta5+  Ta27  1  0.62409472  0.61848553  0.12524431  1
  Ta5+  Ta28  1  0.88820503  0.37666870  0.11531926  1
  Ta5+  Ta29  1  0.87133048  0.89148777  0.11489190  1
  Ta5+  Ta30  1  0.63512828  0.61132795  0.36883387  1
  Ta5+  Ta31  1  0.64105311  0.11177750  0.88317332  1
  Ta5+  Ta32  1  0.86443247  0.62060752  0.11795697  1
  Ta5+  Ta33  1  0.82770319  0.62827155  0.87164806  1
  Ta5+  Ta34  1  0.38533824  0.37843339  0.12472052  1
  Ta5+  Ta35  1  0.62312100  0.11257002  0.12838463  1
  Ta5+  Ta36  1  0.37271371  0.62570358  0.11459341  1
  Ta5+  Ta37  1  0.37449633  0.61269242  0.37020247  1
  Ta5+  Ta38  1  0.84650935  0.61266024  0.36433551  1
  Ta5+  Ta39  1  0.92973974  0.11849030  0.12839934  1
  Ta5+  Ta40  1  0.85835105  0.88746360  0.87190612  1
  Ta5+  Ta41  1  0.11240403  0.13376891  0.63223039  1
  Ta5+  Ta42  1  0.63510887  0.37329129  0.12340782  1
  Ta5+  Ta43  1  0.65460164  0.37028638  0.62981238  1
  Ta5+  Ta44  1  0.12323604  0.88573784  0.37747941  1
  Ta5+  Ta45  1  0.12205466  0.38487318  0.13215135  1
  Ta5+  Ta46  1  0.12922525  0.61916338  0.13381500  1
  Ta5+  Ta47  1  0.82312172  0.36869614  0.61757062  1
  Ta5+  Ta48  1  0.08791109  0.13260274  0.38081437  1
  Ta5+  Ta49  1  0.09892712  0.12468369  0.13738079  1
  Ta5+  Ta50  1  0.36611776  0.88086680  0.63610603  1
  Ta5+  Ta51  1  0.86561052  0.61430136  0.61430692  1
  Ta5+  Ta52  1  0.35396285  0.91785463  0.38054874  1
  Ta5+  Ta53  1  0.66600801  0.36729200  0.38127691  1
  Ta5+  Ta54  1  0.40683663  0.38542395  0.88460935  1
  Ta5+  Ta55  1  0.91452720  0.11992104  0.36988903  1
  Ta5+  Ta56  1  0.08676817  0.57677702  0.89474419  1
  Ta5+  Ta57  1  0.37951989  0.11758610  0.12900601  1
  Ta5+  Ta58  1  0.37464654  0.11417511  0.37762886  1
  Ta5+  Ta59  1  0.10333193  0.38003403  0.64173620  1
  Ta5+  Ta60  1  0.11056945  0.56760399  0.65009573  1
  Ta5+  Ta61  1  0.36147460  0.61497501  0.63736632  1
  Ta5+  Ta62  1  0.09759835  0.95098954  0.88291817  1
  Ta5+  Ta63  1  0.61575434  0.12288621  0.63914756  1
  Ta5+  Ta64  1  0.88237565  0.11584927  0.62724283  1
  Ta5+  Ta65  1  0.87566565  0.87737885  0.37413015  1
  Ta5+  Ta66  1  0.37470991  0.57731068  0.87793134  1
  Ta5+  Ta67  1  0.37437341  0.11730154  0.63045621  1
  Ta5+  Ta68  1  0.37060652  0.88406713  0.88319539  1
  Ta5+  Ta69  1  0.65892255  0.13398242  0.39079546  1
  Ta5+  Ta70  1  0.66040885  0.61463445  0.88406682  1
  Ta5+  Ta71  1  0.62407362  0.89308093  0.36927351  1
  Ta5+  Ta72  1  0.11360185  0.89741359  0.63516253  1
  Ta5+  Ta73  1  0.12255913  0.88758438  0.12642486  1
  Ta5+  Ta74  1  0.36765212  0.86934167  0.13139665  1
  W6+  W75  1  0.36706623  0.36546515  0.63446207  1
  W6+  W76  1  0.61960429  0.87826054  0.11241953  1
  W6+  W77  1  0.14931914  0.57309530  0.36094061  1
  W6+  W78  1  0.61811036  0.87603205  0.64105244  1
  W6+  W79  1  0.35150316  0.36982142  0.37889959  1
  W6+  W80  1  0.11922404  0.38244049  0.88021755  1
  W6+  W81  1  0.82872418  0.36499621  0.36610759  1
  W6+  W82  1  0.90192147  0.38877941  0.86438499  1
  O2-  O83  1  0.14449150  0.00364165  0.14711761  1
  O2-  O84  1  0.10719157  0.00127511  0.37921974  1
  O2-  O85  1  0.15354669  0.01124735  0.62292477  1
  O2-  O86  1  0.19683806  0.02191454  0.88298271  1
  O2-  O87  1  0.16037998  0.50409367  0.15998644  1
  O2-  O88  1  0.04717110  0.48009255  0.35861303  1
  O2-  O89  1  0.18315661  0.47627472  0.60878452  1
  O2-  O90  1  0.18052580  0.51037502  0.86983150  1
  O2-  O91  1  0.37895055  -0.01071492  0.12645520  1
  O2-  O92  1  0.44459826  0.00532204  0.37044457  1
  O2-  O93  1  0.33789350  0.00109405  0.60979184  1
  O2-  O94  1  0.38866630  0.00071735  0.90286332  1
  O2-  O95  1  0.38547117  0.50561906  0.10734442  1
  O2-  O96  1  0.40340817  0.49807061  0.38095467  1
  O2-  O97  1  0.36311727  0.49815616  0.63592667  1
  O2-  O98  1  0.32660355  0.47821083  0.92491781  1
  O2-  O99  1  0.66367171  0.00144239  0.13686327  1
  O2-  O100  1  0.62872137  0.01202406  0.38361444  1
  O2-  O101  1  0.63840483  0.00600625  0.62976299  1
  O2-  O102  1  0.67214188  -0.00362202  0.87659970  1
  O2-  O103  1  0.64402868  0.49785624  0.13791030  1
  O2-  O104  1  0.64222718  0.49037800  0.37307104  1
  O2-  O105  1  0.62969490  0.49623941  0.62365852  1
  O2-  O106  1  0.65481880  0.49087858  0.88521600  1
  O2-  O107  1  0.86137707  0.00898450  0.11268298  1
  O2-  O108  1  0.90545682  -0.00870104  0.38700666  1
  O2-  O109  1  0.83816880  0.00227259  0.60464531  1
  O2-  O110  1  0.86096802  0.00753267  0.88575919  1
  O2-  O111  1  0.86086434  0.50167018  0.11261265  1
  O2-  O112  1  0.84993056  0.49553023  0.36962469  1
  O2-  O113  1  0.84877933  0.49774151  0.60885304  1
  O2-  O114  1  0.84388706  0.51025898  0.87151246  1
  O2-  O115  1  0.10916398  0.25627534  0.13592724  1
  O2-  O116  1  0.08051631  0.26561590  0.39181203  1
  O2-  O117  1  0.06264662  0.25656231  0.63111322  1
  O2-  O118  1  0.17139970  0.25269348  0.89528337  1
  O2-  O119  1  0.10506383  0.74741103  0.09831280  1
  O2-  O120  1  0.00261627  0.83219847  0.38491424  1
  O2-  O121  1  0.09107290  0.76727973  0.65537901  1
  O2-  O122  1  0.11662670  0.70648894  0.90707260  1
  O2-  O123  1  0.38324795  0.24591779  0.15370994  1
  O2-  O124  1  0.40974541  0.23677723  0.35684676  1
  O2-  O125  1  0.32488918  0.23024907  0.64001767  1
  O2-  O126  1  0.38093204  0.24868787  0.87194859  1
  O2-  O127  1  0.41548761  0.74810969  0.13177624  1
  O2-  O128  1  0.44988151  0.71129111  0.38433596  1
  O2-  O129  1  0.36680012  0.75161799  0.63040044  1
  O2-  O130  1  0.26863846  0.81062988  0.86132183  1
  O2-  O131  1  0.64577276  0.24168627  0.12672802  1
  O2-  O132  1  0.59241686  0.24819525  0.38079064  1
  O2-  O133  1  0.59512266  0.25548435  0.63448781  1
  O2-  O134  1  0.68305124  0.23549323  0.89039611  1
  O2-  O135  1  0.61003221  0.74502301  0.15116535  1
  O2-  O136  1  0.63730376  0.75242555  0.35119960  1
  O2-  O137  1  0.60768180  0.74276864  0.61141784  1
  O2-  O138  1  0.72749112  0.72685180  0.88195300  1
  O2-  O139  1  0.90499437  0.24793033  0.14279713  1
  O2-  O140  1  0.89786770  0.25033791  0.35882893  1
  O2-  O141  1  0.83004459  0.23099474  0.62234013  1
  O2-  O142  1  0.89220481  0.24513906  0.86586178  1
  O2-  O143  1  0.91055250  0.74548452  0.12347557  1
  O2-  O144  1  0.85933038  0.74434885  0.34369646  1
  O2-  O145  1  0.89998672  0.75092212  0.62467352  1
  O2-  O146  1  0.90277242  0.75403315  0.86984575  1
  O2-  O147  1  0.11346408  0.12629144  0.01088537  1
  O2-  O148  1  0.13947475  0.14588513  0.26546804  1
  O2-  O149  1  0.12321386  0.14359597  0.50845999  1
  O2-  O150  1  0.15606097  0.14812416  0.75019543  1
  O2-  O151  1  0.06717509  0.59304743  0.02624981  1
  O2-  O152  1  0.09785127  0.65220679  0.25111600  1
  O2-  O153  1  0.11570148  0.67145388  0.45683746  1
  O2-  O154  1  0.09713835  0.62432111  0.76444963  1
  O2-  O155  1  0.37113962  0.13343603  0.00769466  1
  O2-  O156  1  0.33308621  0.11455276  0.25375923  1
  O2-  O157  1  0.39989367  0.13626866  0.50509320  1
  O2-  O158  1  0.34816954  0.11209119  0.76570823  1
  O2-  O159  1  0.36081849  0.65132631  -0.02003710  1
  O2-  O160  1  0.38236472  0.62402834  0.24440230  1
  O2-  O161  1  0.36088232  0.63666505  0.50857632  1
  O2-  O162  1  0.33242592  0.63096147  0.76898105  1
  O2-  O163  1  0.60952924  0.11326311  0.00550399  1
  O2-  O164  1  0.64983819  0.14166302  0.26013294  1
  O2-  O165  1  0.61116412  0.13937535  0.51057800  1
  O2-  O166  1  0.66833186  0.13553180  0.75193354  1
  O2-  O167  1  0.60753586  0.62526689  0.00461704  1
  O2-  O168  1  0.57060144  0.61691584  0.25463043  1
  O2-  O169  1  0.58314051  0.63258057  0.48258240  1
  O2-  O170  1  0.63209445  0.62359938  0.75821783  1
  O2-  O171  1  0.92877490  0.13041445  0.00134937  1
  O2-  O172  1  0.87132121  0.11627410  0.24867501  1
  O2-  O173  1  0.91866079  0.13453752  0.50349156  1
  O2-  O174  1  0.86269280  0.11766336  0.75318029  1
  O2-  O175  1  0.88163313  0.64117195  -0.00663565  1
  O2-  O176  1  0.90945395  0.62145362  0.24075972  1
  O2-  O177  1  0.89676709  0.64120976  0.48385776  1
  O2-  O178  1  0.86900578  0.63240951  0.74216783  1
  O2-  O179  1  0.12040295  0.39341914  0.01439635  1
  O2-  O180  1  0.14649029  0.35527655  0.26706480  1
  O2-  O181  1  0.07834894  0.38348372  0.51171973  1
  O2-  O182  1  0.16037100  0.35363949  0.74863090  1
  O2-  O183  1  0.12359105  0.88558918  -0.00976060  1
  O2-  O184  1  0.11289323  0.85107081  0.25509124  1
  O2-  O185  1  0.13227796  0.85210722  0.50336390  1
  O2-  O186  1  0.09657937  0.90612923  0.76256785  1
  O2-  O187  1  0.37778572  0.34977786  0.00563530  1
  O2-  O188  1  0.32711832  0.37955189  0.23724350  1
  O2-  O189  1  0.39588136  0.34866278  0.50641216  1
  O2-  O190  1  0.35341496  0.37679500  0.77223534  1
  O2-  O191  1  0.36997580  0.84945151  0.00319133  1
  O2-  O192  1  0.38022576  0.86617953  0.26567120  1
  O2-  O193  1  0.36786774  0.85477817  0.48781001  1
  O2-  O194  1  0.38247307  0.89351839  0.75532051  1
  O2-  O195  1  0.68354644  0.37054794  0.01035366  1
  O2-  O196  1  0.63594858  0.34875827  0.25436514  1
  O2-  O197  1  0.62685227  0.35930908  0.50181522  1
  O2-  O198  1  0.66785618  0.35885853  0.76295191  1
  O2-  O199  1  0.64164669  0.84958894  -0.01279597  1
  O2-  O200  1  0.57429405  0.88429070  0.25564501  1
  O2-  O201  1  0.60743735  0.85732446  0.48848083  1
  O2-  O202  1  0.63988699  0.85169123  0.76727117  1
  O2-  O203  1  0.90151071  0.36838562  -0.00265934  1
  O2-  O204  1  0.81544920  0.36734235  0.22342374  1
  O2-  O205  1  0.86278504  0.35579281  0.49966754  1
  O2-  O206  1  0.85654730  0.36671908  0.73856280  1
  O2-  O207  1  0.89927942  0.86675745  -0.00577689  1
  O2-  O208  1  0.87933326  0.87251471  0.24607266  1
  O2-  O209  1  0.85443213  0.84250043  0.49380736  1
  O2-  O210  1  0.90058503  0.87843548  0.74578387  1
  O2-  O211  1  0.02607016  0.05587336  -0.15003117  1
  O2-  O212  1  0.00091366  -0.11186054  0.12839860  1
  O2-  O213  1  -0.00524339  -0.10118223  0.59261438  1
  O2-  O214  1  -0.00001736  0.09130753  0.65353803  1
  O2-  O215  1  0.01280844  0.47828230  -0.12308706  1
  O2-  O216  1  -0.00042322  0.40083598  0.17186181  1
  O2-  O217  1  0.00343668  0.61769261  0.60990193  1
  O2-  O218  1  0.03284088  0.46922601  0.68499621  1
  O2-  O219  1  0.24736404  -0.15502711  0.12303092  1
  O2-  O220  1  0.24096442  -0.15352892  0.37515537  1
  O2-  O221  1  0.28651150  0.01713242  0.40324724  1
  O2-  O222  1  0.23604149  -0.15043528  0.64747515  1
  O2-  O223  1  0.24864893  0.65276646  0.11307179  1
  O2-  O224  1  0.26057547  0.65736814  0.37083651  1
  O2-  O225  1  0.22976750  0.45873611  0.40645391  1
  O2-  O226  1  0.22374820  0.64347648  0.62906422  1
  O2-  O227  1  0.51888508  0.12338549  -0.14434235  1
  O2-  O228  1  0.50190962  0.12137403  0.16937943  1
  O2-  O229  1  0.48612117  -0.12016042  0.61216266  1
  O2-  O230  1  0.49218645  0.11357707  0.65901330  1
  O2-  O231  1  0.52689995  0.34867737  -0.10763897  1
  O2-  O232  1  0.50794512  0.36766739  0.14191109  1
  O2-  O233  1  0.48737907  0.62404418  0.63961297  1
  O2-  O234  1  0.46662982  0.50468405  0.84762671  1
  O2-  O235  1  0.75675505  -0.15483648  0.12216893  1
  O2-  O236  1  0.74699483  -0.11633747  0.35705711  1
  O2-  O237  1  0.77574549  0.13064357  0.39646185  1
  O2-  O238  1  0.75054534  -0.15363743  0.63075295  1
  O2-  O239  1  0.74661592  0.65109875  0.11793927  1
  O2-  O240  1  0.74159362  0.62027286  0.28226362  1
  O2-  O241  1  0.74294126  0.63311208  0.43752799  1
  O2-  O242  1  0.74380156  0.64410793  0.60872841  1
