# generated using pymatgen
data_Gd19Ta56(WO20)8
_symmetry_space_group_name_H-M   'P 1'
_cell_length_a   15.54601033
_cell_length_b   15.37864253
_cell_length_c   15.22642402
_cell_angle_alpha   89.87253154
_cell_angle_beta   89.85201781
_cell_angle_gamma   90.36403157
_symmetry_Int_Tables_number   1
_chemical_formula_structural   Gd19Ta56(WO20)8
_chemical_formula_sum   'Gd19 Ta56 W8 O160'
_cell_volume   3640.18594605
_cell_formula_units_Z   1
loop_
 _symmetry_equiv_pos_site_id
 _symmetry_equiv_pos_as_xyz
  1  'x, y, z'
loop_
 _atom_type_symbol
 _atom_type_oxidation_number
  Gd3+  3.0
  Ta5+  5.0
  W6+  6.0
  O2-  -2.0
loop_
 _atom_site_type_symbol
 _atom_site_label
 _atom_site_symmetry_multiplicity
 _atom_site_fract_x
 _atom_site_fract_y
 _atom_site_fract_z
 _atom_site_occupancy
  Gd3+  Gd0  1  0.02912597  0.23973575  0.74185035  1
  Gd3+  Gd1  1  0.47903317  0.25693482  0.26297109  1
  Gd3+  Gd2  1  0.03673853  0.72691562  0.00357394  1
  Gd3+  Gd3  1  -0.02762212  0.24041787  0.24905297  1
  Gd3+  Gd4  1  0.52766557  0.27294956  -0.01042509  1
  Gd3+  Gd5  1  0.51251013  0.77211498  0.01186002  1
  Gd3+  Gd6  1  0.76417585  0.23557024  0.76330904  1
  Gd3+  Gd7  1  0.22254018  0.27014180  0.53650073  1
  Gd3+  Gd8  1  0.53593651  0.26393422  0.75149304  1
  Gd3+  Gd9  1  0.53935029  0.78530450  0.75412477  1
  Gd3+  Gd10  1  0.47658551  0.78127236  0.27442576  1
  Gd3+  Gd11  1  0.49989107  0.24899477  0.52112139  1
  Gd3+  Gd12  1  0.32099674  0.73620198  0.74215435  1
  Gd3+  Gd13  1  -0.01986857  0.71943446  0.49528308  1
  Gd3+  Gd14  1  0.74585979  0.22980895  0.51507583  1
  Gd3+  Gd15  1  -0.02158163  0.68478404  0.75563974  1
  Gd3+  Gd16  1  0.22751764  0.25893311  0.00397827  1
  Gd3+  Gd17  1  0.73747621  0.74974435  0.21895602  1
  Gd3+  Gd18  1  0.22665473  0.26480298  0.26147152  1
  Ta5+  Ta19  1  0.14092658  0.60309640  0.62612420  1
  Ta5+  Ta20  1  0.61223575  0.13167155  0.13597113  1
  Ta5+  Ta21  1  0.90574386  0.38378898  0.85967232  1
  Ta5+  Ta22  1  0.59367057  0.39516914  0.39452911  1
  Ta5+  Ta23  1  0.15790980  0.87735267  0.12312229  1
  Ta5+  Ta24  1  0.36902410  0.62895782  0.38066534  1
  Ta5+  Ta25  1  0.82615285  0.41589642  0.62033208  1
  Ta5+  Ta26  1  0.36633569  0.11558064  0.13192137  1
  Ta5+  Ta27  1  0.88127674  0.61695237  0.12480158  1
  Ta5+  Ta28  1  0.07227273  0.08322063  0.60716403  1
  Ta5+  Ta29  1  0.13376581  0.38449960  0.87015827  1
  Ta5+  Ta30  1  0.65544790  0.65156426  0.88592602  1
  Ta5+  Ta31  1  0.13562322  0.86134118  0.37376204  1
  Ta5+  Ta32  1  0.09146723  0.40508620  0.38859955  1
  Ta5+  Ta33  1  0.64855275  0.44197160  0.62737627  1
  Ta5+  Ta34  1  0.90621516  0.09902516  0.87049623  1
  Ta5+  Ta35  1  0.60523327  0.09329984  0.63669226  1
  Ta5+  Ta36  1  0.37970804  0.37872682  0.86202321  1
  Ta5+  Ta37  1  0.82462597  0.61707275  0.37584159  1
  Ta5+  Ta38  1  0.12473738  0.39876349  0.12835759  1
  Ta5+  Ta39  1  0.15341053  0.11859798  0.85142325  1
  Ta5+  Ta40  1  0.91166966  0.85916569  0.13286291  1
  Ta5+  Ta41  1  0.15332115  0.63681342  0.37354674  1
  Ta5+  Ta42  1  0.18311362  0.62904874  0.86928072  1
  Ta5+  Ta43  1  0.66217980  0.90705451  0.62564107  1
  Ta5+  Ta44  1  0.12282207  0.10890000  0.11833941  1
  Ta5+  Ta45  1  0.61507707  0.89545535  0.14533838  1
  Ta5+  Ta46  1  0.63886355  0.38147887  0.14769246  1
  Ta5+  Ta47  1  0.36842068  0.88009142  0.60771214  1
  Ta5+  Ta48  1  0.10440144  0.10732529  0.37841167  1
  Ta5+  Ta49  1  0.20309184  0.64061053  0.12790935  1
  Ta5+  Ta50  1  0.64819029  0.64971145  0.63162211  1
  Ta5+  Ta51  1  0.35676572  0.12014149  0.38331680  1
  Ta5+  Ta52  1  0.65552213  0.90376778  0.89048042  1
  Ta5+  Ta53  1  0.37692744  0.39372308  0.39194544  1
  Ta5+  Ta54  1  0.57350248  0.11068878  0.38303122  1
  Ta5+  Ta55  1  0.39723263  0.39971661  0.61213554  1
  Ta5+  Ta56  1  0.34135689  0.88020378  0.11835632  1
  Ta5+  Ta57  1  0.89219125  0.85105828  0.88533013  1
  Ta5+  Ta58  1  0.86678023  0.07443354  0.60807051  1
  Ta5+  Ta59  1  0.59782467  0.08469897  0.88773199  1
  Ta5+  Ta60  1  0.30246190  0.87574297  0.36744236  1
  Ta5+  Ta61  1  0.12663124  0.84708818  0.62463995  1
  Ta5+  Ta62  1  0.34423058  0.13668181  0.87388107  1
  Ta5+  Ta63  1  0.87733770  0.36848906  0.11355251  1
  Ta5+  Ta64  1  0.84799831  0.85077054  0.37966565  1
  Ta5+  Ta65  1  0.81131672  0.60547098  0.62351275  1
  Ta5+  Ta66  1  0.42947319  0.61836802  0.87834265  1
  Ta5+  Ta67  1  0.68047274  0.87927766  0.37944392  1
  Ta5+  Ta68  1  0.61710409  0.44916270  0.87272925  1
  Ta5+  Ta69  1  0.81949479  0.61596212  0.88434226  1
  Ta5+  Ta70  1  0.65706921  0.64072183  0.38846518  1
  Ta5+  Ta71  1  0.85513468  0.10638927  0.11629994  1
  Ta5+  Ta72  1  0.37811498  0.39340324  0.12599583  1
  Ta5+  Ta73  1  0.37091099  0.64375252  0.12721419  1
  Ta5+  Ta74  1  0.15785495  0.87073136  0.86418093  1
  W6+  W75  1  0.35388644  0.13120218  0.62529493  1
  W6+  W76  1  0.86734420  0.83619375  0.63678077  1
  W6+  W77  1  0.40483033  0.89497333  0.87519536  1
  W6+  W78  1  0.06682173  0.42636527  0.64500513  1
  W6+  W79  1  0.85760714  0.09876898  0.37216426  1
  W6+  W80  1  0.59991617  0.62654083  0.13554279  1
  W6+  W81  1  0.46538519  0.63261418  0.60646759  1
  W6+  W82  1  0.84833969  0.36459107  0.37551676  1
  O2-  O83  1  0.08998098  -0.00775494  0.10919016  1
  O2-  O84  1  0.11137226  -0.01067267  0.39244941  1
  O2-  O85  1  0.12295120  -0.02542613  0.60891464  1
  O2-  O86  1  0.16428353  -0.00706824  0.86677743  1
  O2-  O87  1  0.15274576  0.51638021  0.12503407  1
  O2-  O88  1  0.10201230  0.52522046  0.35222904  1
  O2-  O89  1  0.18913367  0.49395969  0.61952227  1
  O2-  O90  1  0.15416518  0.50986095  0.85836598  1
  O2-  O91  1  0.39404534  0.00180455  0.14160575  1
  O2-  O92  1  0.31987554  0.00664644  0.36394672  1
  O2-  O93  1  0.35100592  -0.00276481  0.62900724  1
  O2-  O94  1  0.36255601  0.02016488  0.88252867  1
  O2-  O95  1  0.37703078  0.51099452  0.13055719  1
  O2-  O96  1  0.33570837  0.50396613  0.35585038  1
  O2-  O97  1  0.38897913  0.51832956  0.62047948  1
  O2-  O98  1  0.38073284  0.49988841  0.87777352  1
  O2-  O99  1  0.57834609  0.01314979  0.14700571  1
  O2-  O100  1  0.62508096  0.00360213  0.37824687  1
  O2-  O101  1  0.55962995  -0.02321600  0.60575937  1
  O2-  O102  1  0.53709111  -0.03541977  0.89085197  1
  O2-  O103  1  0.60475656  0.49316071  0.12612095  1
  O2-  O104  1  0.62413026  0.51137618  0.39945481  1
  O2-  O105  1  0.56810324  0.53786829  0.61234663  1
  O2-  O106  1  0.54482768  0.55167931  0.88164422  1
  O2-  O107  1  0.88215973  -0.01514318  0.11950595  1
  O2-  O108  1  0.87740556  -0.03086397  0.36874502  1
  O2-  O109  1  0.86628649  -0.03362002  0.66295152  1
  O2-  O110  1  0.91739058  -0.02616081  0.87172311  1
  O2-  O111  1  0.89345190  0.49354923  0.12129424  1
  O2-  O112  1  0.84540271  0.49785576  0.36662223  1
  O2-  O113  1  0.90085744  0.50677812  0.64661605  1
  O2-  O114  1  0.89467008  0.50374515  0.87066687  1
  O2-  O115  1  0.13952894  0.24763718  0.13034774  1
  O2-  O116  1  0.21941208  0.15206256  0.35640485  1
  O2-  O117  1  0.11598844  0.29796601  0.63581469  1
  O2-  O118  1  0.13204498  0.25423043  0.85236391  1
  O2-  O119  1  0.14490996  0.75199623  0.12276394  1
  O2-  O120  1  0.08666098  0.73749029  0.35876986  1
  O2-  O121  1  0.07943752  0.73163015  0.64540921  1
  O2-  O122  1  0.10535873  0.72802188  0.85479502  1
  O2-  O123  1  0.49704753  0.35348447  0.14248489  1
  O2-  O124  1  0.38129822  0.26273447  0.39123947  1
  O2-  O125  1  0.36347160  0.26984816  0.59844166  1
  O2-  O126  1  0.42241046  0.24528884  0.87014779  1
  O2-  O127  1  0.41093096  0.76607613  0.13587567  1
  O2-  O128  1  0.36317922  0.75624174  0.37108696  1
  O2-  O129  1  0.39753622  0.75058076  0.61114966  1
  O2-  O130  1  0.44702626  0.75760226  0.87642973  1
  O2-  O131  1  0.62747582  0.25864177  0.10447867  1
  O2-  O132  1  0.56626982  0.25408075  0.38600769  1
  O2-  O133  1  0.65242785  0.21538792  0.66566797  1
  O2-  O134  1  0.62087693  0.21394832  0.86669495  1
  O2-  O135  1  0.58876305  0.76712882  0.16057880  1
  O2-  O136  1  0.62442435  0.76955526  0.35671818  1
  O2-  O137  1  0.64066000  0.78376600  0.63923106  1
  O2-  O138  1  0.61940312  0.78057203  0.88476638  1
  O2-  O139  1  0.89356101  0.23245568  0.11282438  1
  O2-  O140  1  0.81872601  0.22950041  0.38390073  1
  O2-  O141  1  0.82569655  0.19216683  0.63654537  1
  O2-  O142  1  0.90991194  0.24594750  0.83739954  1
  O2-  O143  1  0.94835994  0.72891997  0.12924198  1
  O2-  O144  1  0.89892742  0.72655085  0.37013260  1
  O2-  O145  1  0.90520575  0.70627910  0.62726305  1
  O2-  O146  1  0.92143701  0.71626841  0.89878460  1
  O2-  O147  1  0.14424548  0.13353648  -0.00914438  1
  O2-  O148  1  0.08952424  0.12492303  0.24485036  1
  O2-  O149  1  0.12184325  0.14609206  0.50931107  1
  O2-  O150  1  0.13356071  0.12246097  0.71794649  1
  O2-  O151  1  0.16939890  0.63939376  -0.00679626  1
  O2-  O152  1  0.20479421  0.64083663  0.26005705  1
  O2-  O153  1  0.10202697  0.62832964  0.50560008  1
  O2-  O154  1  0.20686917  0.64557680  0.72990762  1
  O2-  O155  1  0.34399883  0.16133076  0.01322326  1
  O2-  O156  1  0.34502437  0.17548551  0.24513225  1
  O2-  O157  1  0.30465716  0.14176882  0.49883554  1
  O2-  O158  1  0.32305041  0.15158614  0.75436277  1
  O2-  O159  1  0.42117503  0.63806974  0.00478961  1
  O2-  O160  1  0.41754562  0.63980251  0.25970656  1
  O2-  O161  1  0.44811596  0.61790338  0.46744503  1
  O2-  O162  1  0.43975131  0.64442941  0.75050534  1
  O2-  O163  1  0.56922179  0.12482016  0.00526873  1
  O2-  O164  1  0.61669561  0.15272085  0.25923677  1
  O2-  O165  1  0.61846227  0.14115870  0.50777190  1
  O2-  O166  1  0.58264628  0.08345831  0.76195594  1
  O2-  O167  1  0.61190887  0.65502442  0.00633888  1
  O2-  O168  1  0.64658232  0.63012344  0.25744835  1
  O2-  O169  1  0.63300980  0.66861078  0.50653098  1
  O2-  O170  1  0.62013346  0.66069401  0.76288937  1
  O2-  O171  1  0.87468762  0.11331792  -0.01248563  1
  O2-  O172  1  0.88840359  0.11824785  0.23778048  1
  O2-  O173  1  0.80743511  0.09173389  0.49855841  1
  O2-  O174  1  0.81245738  0.10552532  0.79585955  1
  O2-  O175  1  0.82797271  0.62642087  0.01618623  1
  O2-  O176  1  0.83419631  0.63502830  0.23846549  1
  O2-  O177  1  0.84923511  0.62150733  0.50044671  1
  O2-  O178  1  0.83726364  0.63352667  0.76131128  1
  O2-  O179  1  0.11836901  0.37667775  -0.00705738  1
  O2-  O180  1  0.13721936  0.38420160  0.25316203  1
  O2-  O181  1  0.18406726  0.32216131  0.40196397  1
  O2-  O182  1  0.02382328  0.38991209  0.79581628  1
  O2-  O183  1  0.11504804  0.85112795  -0.01973803  1
  O2-  O184  1  0.14820840  0.87925273  0.24687261  1
  O2-  O185  1  0.09158390  0.83349534  0.50392012  1
  O2-  O186  1  0.10173057  0.86942744  0.75307895  1
  O2-  O187  1  0.39582918  0.35770524  0.00276003  1
  O2-  O188  1  0.34790554  0.35536495  0.24968125  1
  O2-  O189  1  0.31262336  0.39469462  0.50541395  1
  O2-  O190  1  0.36619493  0.37862110  0.73698729  1
  O2-  O191  1  0.41440003  0.88187425  0.01118603  1
  O2-  O192  1  0.34883825  0.86936663  0.24893592  1
  O2-  O193  1  0.35152618  0.88247637  0.48664802  1
  O2-  O194  1  0.41459242  0.86799441  0.73617312  1
  O2-  O195  1  0.62271836  0.38832717  -0.02042956  1
  O2-  O196  1  0.64516754  0.37207538  0.27231691  1
  O2-  O197  1  0.63681089  0.35609229  0.51119278  1
  O2-  O198  1  0.64558335  0.39478953  0.75966827  1
  O2-  O199  1  0.63171075  0.88307871  0.02098848  1
  O2-  O200  1  0.68968573  0.89783939  0.24430235  1
  O2-  O201  1  0.69264069  0.89016900  0.50600432  1
  O2-  O202  1  0.65304364  0.90456441  0.76251878  1
  O2-  O203  1  0.88395050  0.36109602  -0.02004063  1
  O2-  O204  1  0.86696539  0.34679282  0.23854283  1
  O2-  O205  1  0.84513876  0.34593566  0.51791546  1
  O2-  O206  1  0.83287077  0.37270013  0.75112621  1
  O2-  O207  1  0.93942049  0.84927174  0.00358878  1
  O2-  O208  1  0.85996193  0.83792640  0.24284239  1
  O2-  O209  1  0.87743304  0.83603984  0.50464308  1
  O2-  O210  1  0.91690390  0.82279006  0.76522224  1
  O2-  O211  1  0.02624794  0.11693802  -0.14583766  1
  O2-  O212  1  -0.00779646  0.15606405  0.37974540  1
  O2-  O213  1  -0.02861837  0.05128648  0.53734858  1
  O2-  O214  1  -0.02866325  0.12025806  0.68012027  1
  O2-  O215  1  0.00662668  0.36909161  0.13350740  1
  O2-  O216  1  -0.00884532  0.34618142  0.35752954  1
  O2-  O217  1  0.07216498  0.42543587  0.50604412  1
  O2-  O218  1  0.04712017  0.56406710  0.69219773  1
  O2-  O219  1  0.24988242  -0.06943795  0.05169101  1
  O2-  O220  1  0.24011129  0.10091091  0.14278858  1
  O2-  O221  1  0.24786257  -0.16433633  0.63962816  1
  O2-  O222  1  0.27306869  -0.16191857  0.84901112  1
  O2-  O223  1  0.30266503  0.65250799  -0.12811183  1
  O2-  O224  1  0.25483025  0.36469030  0.10721197  1
  O2-  O225  1  0.25729924  0.63587792  0.43987825  1
  O2-  O226  1  0.25794566  0.36025047  0.88826856  1
  O2-  O227  1  0.47988596  0.17376047  0.13392644  1
  O2-  O228  1  0.46877462  0.10545669  0.30799038  1
  O2-  O229  1  0.46350857  0.11431287  0.46233706  1
  O2-  O230  1  0.49049085  0.16206938  0.64377842  1
  O2-  O231  1  0.50811560  0.37706288  -0.14512492  1
  O2-  O232  1  0.48734607  0.40246305  0.32296393  1
  O2-  O233  1  0.47156825  0.39760385  0.48147221  1
  O2-  O234  1  0.51624178  0.36765259  0.64169009  1
  O2-  O235  1  0.77535490  -0.14113613  -0.10004421  1
  O2-  O236  1  0.73438736  0.11081081  0.11731226  1
  O2-  O237  1  0.71556762  0.03522090  0.63614915  1
  O2-  O238  1  0.69979485  0.02541619  0.91291074  1
  O2-  O239  1  0.71617501  0.52723089  -0.11701325  1
  O2-  O240  1  0.75341530  0.38226122  0.10969754  1
  O2-  O241  1  0.74555902  0.48364472  0.54839619  1
  O2-  O242  1  0.71320293  0.53810314  0.69167768  1
