# generated using pymatgen
data_Gd19Ta56(WO20)8
_symmetry_space_group_name_H-M   'P 1'
_cell_length_a   15.49460190
_cell_length_b   15.42206905
_cell_length_c   15.28324119
_cell_angle_alpha   90.22427542
_cell_angle_beta   90.00829072
_cell_angle_gamma   89.90263494
_symmetry_Int_Tables_number   1
_chemical_formula_structural   Gd19Ta56(WO20)8
_chemical_formula_sum   'Gd19 Ta56 W8 O160'
_cell_volume   3652.03199950
_cell_formula_units_Z   1
loop_
 _symmetry_equiv_pos_site_id
 _symmetry_equiv_pos_as_xyz
  1  'x, y, z'
loop_
 _atom_type_symbol
 _atom_type_oxidation_number
  Gd3+  3.0
  Ta5+  5.0
  W6+  6.0
  O2-  -2.0
loop_
 _atom_site_type_symbol
 _atom_site_label
 _atom_site_symmetry_multiplicity
 _atom_site_fract_x
 _atom_site_fract_y
 _atom_site_fract_z
 _atom_site_occupancy
  Gd3+  Gd0  1  0.50441937  0.75101505  0.78169555  1
  Gd3+  Gd1  1  0.74708086  0.25781568  0.01242652  1
  Gd3+  Gd2  1  0.27241817  0.76499109  0.26496473  1
  Gd3+  Gd3  1  0.47839120  0.27126955  0.71964943  1
  Gd3+  Gd4  1  -0.01193045  0.24688522  0.72824505  1
  Gd3+  Gd5  1  0.75991092  0.73064189  0.75467652  1
  Gd3+  Gd6  1  0.75865789  0.75484959  0.24498454  1
  Gd3+  Gd7  1  0.27602844  0.74937929  0.77778293  1
  Gd3+  Gd8  1  0.74654694  0.76345321  0.48883262  1
  Gd3+  Gd9  1  0.02450416  0.72976828  0.50189190  1
  Gd3+  Gd10  1  0.72383763  0.72158860  -0.00103570  1
  Gd3+  Gd11  1  0.46549406  0.74168532  0.01703235  1
  Gd3+  Gd12  1  0.75191258  0.26585593  0.74544006  1
  Gd3+  Gd13  1  0.74373442  0.25254856  0.48002450  1
  Gd3+  Gd14  1  0.26830512  0.26696402  0.25187770  1
  Gd3+  Gd15  1  0.01814998  0.26522347  0.50744305  1
  Gd3+  Gd16  1  0.03254816  0.71245627  0.74088779  1
  Gd3+  Gd17  1  0.26325357  0.25985295  0.50763136  1
  Gd3+  Gd18  1  0.23142665  0.74670307  0.03713067  1
  Ta5+  Ta19  1  0.07803377  0.36214685  0.88487082  1
  Ta5+  Ta20  1  0.63647024  0.89452220  0.36773396  1
  Ta5+  Ta21  1  0.62503750  0.61925143  0.61869921  1
  Ta5+  Ta22  1  0.93213246  0.34887252  0.10981555  1
  Ta5+  Ta23  1  0.61034482  0.88512177  0.11780733  1
  Ta5+  Ta24  1  0.88263064  0.87194263  0.62028364  1
  Ta5+  Ta25  1  0.41059991  0.37765111  0.38962019  1
  Ta5+  Ta26  1  0.58792394  0.35408768  0.13978539  1
  Ta5+  Ta27  1  0.56598962  0.13319558  0.37950818  1
  Ta5+  Ta28  1  0.88897179  0.36495089  0.35248483  1
  Ta5+  Ta29  1  0.62667265  0.92374176  0.87917426  1
  Ta5+  Ta30  1  0.11558135  0.91367968  0.13591372  1
  Ta5+  Ta31  1  0.11962795  0.11202781  0.63561329  1
  Ta5+  Ta32  1  0.09933165  0.34481091  0.11441035  1
  Ta5+  Ta33  1  0.33060673  0.41120037  0.63728059  1
  Ta5+  Ta34  1  0.41954059  0.62823658  0.37343636  1
  Ta5+  Ta35  1  0.11325984  0.58379070  0.12958800  1
  Ta5+  Ta36  1  0.13134579  0.38807717  0.36999010  1
  Ta5+  Ta37  1  0.61453308  0.58667706  0.88018461  1
  Ta5+  Ta38  1  0.14931995  0.39053422  0.64100928  1
  Ta5+  Ta39  1  0.57846331  0.37322699  0.38408339  1
  Ta5+  Ta40  1  0.62519571  0.87429574  0.62326351  1
  Ta5+  Ta41  1  0.16788097  0.55598618  0.64952622  1
  Ta5+  Ta42  1  0.89321078  0.12021624  0.36162089  1
  Ta5+  Ta43  1  0.36442373  0.89991681  0.13307412  1
  Ta5+  Ta44  1  0.13879261  0.87936785  0.38657541  1
  Ta5+  Ta45  1  0.59793325  0.36108229  0.88226170  1
  Ta5+  Ta46  1  0.13111203  0.88531741  0.63528620  1
  Ta5+  Ta47  1  0.42136171  0.36586397  0.13307987  1
  Ta5+  Ta48  1  0.08186167  0.14174528  0.13320909  1
  Ta5+  Ta49  1  0.91505897  0.59646613  0.12450458  1
  Ta5+  Ta50  1  0.36022454  0.12453145  0.64403911  1
  Ta5+  Ta51  1  0.12909450  0.60501528  0.89171109  1
  Ta5+  Ta52  1  0.86584495  0.10546493  0.12088540  1
  Ta5+  Ta53  1  0.86814514  0.60858218  0.36429053  1
  Ta5+  Ta54  1  0.61998910  0.62087530  0.36001787  1
  Ta5+  Ta55  1  0.59351970  0.60290021  0.13987499  1
  Ta5+  Ta56  1  0.89736187  0.87540445  0.86871811  1
  Ta5+  Ta57  1  0.87312257  0.89147250  0.11702330  1
  Ta5+  Ta58  1  0.57842019  0.13677897  0.12437897  1
  Ta5+  Ta59  1  0.39762313  0.13412546  0.38564907  1
  Ta5+  Ta60  1  0.65477772  0.12195276  0.87175985  1
  Ta5+  Ta61  1  0.61692129  0.11797657  0.62641725  1
  Ta5+  Ta62  1  0.38181028  0.90766942  0.89008645  1
  Ta5+  Ta63  1  0.82577042  0.10579255  0.86776619  1
  Ta5+  Ta64  1  0.39982359  0.88287330  0.38587447  1
  Ta5+  Ta65  1  0.86837557  0.38002603  0.61480695  1
  Ta5+  Ta66  1  0.13190198  0.87706166  0.88424823  1
  Ta5+  Ta67  1  0.38762662  0.64413573  0.61010621  1
  Ta5+  Ta68  1  0.90979092  0.36459028  0.88553153  1
  Ta5+  Ta69  1  0.86597001  0.61004306  0.61816112  1
  Ta5+  Ta70  1  0.41892051  0.42006904  0.88378824  1
  Ta5+  Ta71  1  0.86300866  0.11402146  0.61185137  1
  Ta5+  Ta72  1  0.40811692  0.14645363  0.13368358  1
  Ta5+  Ta73  1  0.13003453  0.12445011  0.38021617  1
  Ta5+  Ta74  1  0.62445988  0.37834870  0.61240275  1
  W6+  W75  1  0.87654176  0.61714773  0.88673171  1
  W6+  W76  1  0.36661861  0.60422993  0.88222357  1
  W6+  W77  1  0.34756623  0.59889093  0.14284906  1
  W6+  W78  1  0.38058478  0.88498245  0.63491947  1
  W6+  W79  1  0.06184063  0.12550059  0.88492614  1
  W6+  W80  1  0.14186671  0.62212576  0.29919285  1
  W6+  W81  1  0.43918065  0.15334989  0.89787435  1
  W6+  W82  1  0.89614159  0.87305277  0.36972857  1
  O2-  O83  1  0.14265906  0.02689913  0.11395110  1
  O2-  O84  1  0.12424827  0.00091893  0.41337013  1
  O2-  O85  1  0.07706104  -0.00638676  0.64399707  1
  O2-  O86  1  0.10102191  -0.00851119  0.87512912  1
  O2-  O87  1  0.09326993  0.46820456  0.09288626  1
  O2-  O88  1  0.13723223  0.50638528  0.37659970  1
  O2-  O89  1  0.06642766  0.49199825  0.66254388  1
  O2-  O90  1  0.11204888  0.48604401  0.88580198  1
  O2-  O91  1  0.37820373  0.01830466  0.12043258  1
  O2-  O92  1  0.39513641  0.01108466  0.37719840  1
  O2-  O93  1  0.41319489  0.01681426  0.63924385  1
  O2-  O94  1  0.38911291  0.02393329  0.90360842  1
  O2-  O95  1  0.38960324  0.48100030  0.15286856  1
  O2-  O96  1  0.41393699  0.50258419  0.37922871  1
  O2-  O97  1  0.38203989  0.52379762  0.62801024  1
  O2-  O98  1  0.49430493  0.52882868  0.88217978  1
  O2-  O99  1  0.59448114  0.00540112  0.11363050  1
  O2-  O100  1  0.62213948  0.01349482  0.36931945  1
  O2-  O101  1  0.61355184  -0.00822037  0.65332093  1
  O2-  O102  1  0.56567765  0.02361412  0.85026694  1
  O2-  O103  1  0.59266178  0.48266618  0.14775721  1
  O2-  O104  1  0.60389794  0.49911061  0.37539343  1
  O2-  O105  1  0.59339203  0.50148759  0.61678061  1
  O2-  O106  1  0.65737003  0.46895533  0.87110335  1
  O2-  O107  1  0.80263369  -0.00809113  0.12215916  1
  O2-  O108  1  0.92258528  0.00410912  0.36561901  1
  O2-  O109  1  0.89856147  -0.00665580  0.62418662  1
  O2-  O110  1  0.89038647  -0.00725924  0.83531548  1
  O2-  O111  1  0.91496521  0.47744253  0.11498876  1
  O2-  O112  1  0.89877830  0.49195771  0.34617776  1
  O2-  O113  1  0.90860736  0.49585793  0.62529886  1
  O2-  O114  1  0.90198491  0.48483514  0.87934989  1
  O2-  O115  1  0.16699885  0.23020513  0.14308915  1
  O2-  O116  1  0.16980638  0.25070337  0.37227260  1
  O2-  O117  1  -0.00888790  0.14833426  0.60446659  1
  O2-  O118  1  0.00123081  0.25343841  0.87746801  1
  O2-  O119  1  0.23710555  0.87457692  0.13607120  1
  O2-  O120  1  0.10655612  0.74971676  0.37437463  1
  O2-  O121  1  0.00485552  0.82407118  0.64831145  1
  O2-  O122  1  0.17510390  0.73878261  0.89503071  1
  O2-  O123  1  0.35081734  0.25641833  0.11536481  1
  O2-  O124  1  0.34742716  0.25701696  0.38860132  1
  O2-  O125  1  0.34049708  0.26386767  0.64302506  1
  O2-  O126  1  0.48338384  0.29241592  0.87036829  1
  O2-  O127  1  0.34618659  0.74961598  0.13797129  1
  O2-  O128  1  0.38421721  0.75697383  0.36453864  1
  O2-  O129  1  0.32425640  0.75155610  0.63233577  1
  O2-  O130  1  0.38803494  0.74322887  0.88724119  1
  O2-  O131  1  0.65229237  0.23992624  0.13287401  1
  O2-  O132  1  0.61305709  0.24388456  0.40292992  1
  O2-  O133  1  0.64731315  0.24751449  0.60589865  1
  O2-  O134  1  0.66200663  0.25384870  0.87040858  1
  O2-  O135  1  0.61638943  0.74918226  0.10652772  1
  O2-  O136  1  0.66153905  0.75026298  0.36077373  1
  O2-  O137  1  0.66525333  0.74918294  0.63726346  1
  O2-  O138  1  0.56945543  0.70383080  0.91223249  1
  O2-  O139  1  0.87042411  0.22862930  0.10174163  1
  O2-  O140  1  0.84154493  0.24844871  0.36753326  1
  O2-  O141  1  0.84173356  0.24836377  0.60560072  1
  O2-  O142  1  0.82885969  0.23871812  0.87826917  1
  O2-  O143  1  0.80017455  0.79308677  0.10200240  1
  O2-  O144  1  0.85131060  0.73981538  0.37518367  1
  O2-  O145  1  0.84889244  0.73702502  0.60376863  1
  O2-  O146  1  0.83372353  0.76267160  0.89018718  1
  O2-  O147  1  0.05623311  0.14684453  0.01332907  1
  O2-  O148  1  0.10620514  0.11349568  0.26224250  1
  O2-  O149  1  0.13925249  0.16383175  0.51879142  1
  O2-  O150  1  0.09279361  0.14454167  0.75396507  1
  O2-  O151  1  0.16583740  0.61369393  0.01116423  1
  O2-  O152  1  0.15664204  0.71117879  0.17503870  1
  O2-  O153  1  0.09307689  0.66379738  0.61030504  1
  O2-  O154  1  0.17044596  0.62542932  0.76880809  1
  O2-  O155  1  0.48398506  0.15731662  0.02679963  1
  O2-  O156  1  0.38137931  0.15282546  0.25625536  1
  O2-  O157  1  0.35485790  0.13739165  0.51477680  1
  O2-  O158  1  0.40462382  0.15052615  0.76112045  1
  O2-  O159  1  0.33612466  0.63292853  0.01491372  1
  O2-  O160  1  0.34065173  0.63044290  0.27266237  1
  O2-  O161  1  0.36149977  0.63537909  0.48860528  1
  O2-  O162  1  0.39447949  0.64961800  0.74806701  1
  O2-  O163  1  0.65115525  0.13511467  -0.00321631  1
  O2-  O164  1  0.57124664  0.13617836  0.24779051  1
  O2-  O165  1  0.56853374  0.11199461  0.51381832  1
  O2-  O166  1  0.60064487  0.15994526  0.74681881  1
  O2-  O167  1  0.63975706  0.59465247  0.02077852  1
  O2-  O168  1  0.67777847  0.63072437  0.22948341  1
  O2-  O169  1  0.66696108  0.63612760  0.50412394  1
  O2-  O170  1  0.60309672  0.62994122  0.75851203  1
  O2-  O171  1  0.84548701  0.10127184  -0.00902487  1
  O2-  O172  1  0.84287849  0.12038231  0.24795181  1
  O2-  O173  1  0.84290795  0.12057633  0.48193826  1
  O2-  O174  1  0.86640858  0.14583427  0.74069749  1
  O2-  O175  1  0.83854022  0.62400052  0.02980699  1
  O2-  O176  1  0.86446578  0.64093988  0.23293734  1
  O2-  O177  1  0.90890823  0.61734964  0.48952068  1
  O2-  O178  1  0.89555999  0.64609666  0.74225113  1
  O2-  O179  1  0.12500257  0.32471644  -0.00872436  1
  O2-  O180  1  0.13222679  0.36824725  0.24637672  1
  O2-  O181  1  0.13617265  0.35509875  0.50748901  1
  O2-  O182  1  0.10267556  0.34052441  0.75583997  1
  O2-  O183  1  0.12767794  0.86445497  0.00960397  1
  O2-  O184  1  0.11994804  0.89646619  0.26134682  1
  O2-  O185  1  0.11924790  0.84631003  0.51570463  1
  O2-  O186  1  0.14324412  0.82584429  0.74950371  1
  O2-  O187  1  0.42063099  0.38716470  0.00225036  1
  O2-  O188  1  0.39427321  0.34968725  0.26216875  1
  O2-  O189  1  0.36280665  0.37854919  0.51374824  1
  O2-  O190  1  0.40468724  0.39406123  0.74704058  1
  O2-  O191  1  0.35533627  0.86054548  0.00617805  1
  O2-  O192  1  0.36319867  0.88872141  0.25403880  1
  O2-  O193  1  0.40440536  0.88022218  0.50518470  1
  O2-  O194  1  0.38535810  0.86307198  0.77131322  1
  O2-  O195  1  0.61754196  0.35204158  0.00629804  1
  O2-  O196  1  0.58976986  0.34457245  0.26514033  1
  O2-  O197  1  0.66306240  0.37985478  0.49133149  1
  O2-  O198  1  0.60129883  0.35521688  0.74182757  1
  O2-  O199  1  0.66040297  0.87780721  -0.00284947  1
  O2-  O200  1  0.65919333  0.87778092  0.23347266  1
  O2-  O201  1  0.61800209  0.86754070  0.49887878  1
  O2-  O202  1  0.64997925  0.85151418  0.78033396  1
  O2-  O203  1  0.85544746  0.36070703  -0.00125738  1
  O2-  O204  1  0.91450302  0.34110761  0.23370979  1
  O2-  O205  1  0.85736082  0.37386072  0.48654309  1
  O2-  O206  1  0.88011520  0.34917739  0.75115739  1
  O2-  O207  1  0.89177493  0.89880081  -0.01061805  1
  O2-  O208  1  0.86098604  0.86638312  0.23940793  1
  O2-  O209  1  0.92667048  0.84969205  0.50211457  1
  O2-  O210  1  0.85561218  0.84522623  0.74464762  1
  O2-  O211  1  -0.00163626  -0.12323316  0.12707831  1
  O2-  O212  1  -0.02583986  0.05791924  0.14213450  1
  O2-  O213  1  0.00607115  0.16331644  0.40063265  1
  O2-  O214  1  0.01083553  -0.16884414  0.85450794  1
  O2-  O215  1  0.00928892  0.65158313  0.07272450  1
  O2-  O216  1  0.02785116  0.57864591  0.22416829  1
  O2-  O217  1  0.00945344  0.35238118  0.38558222  1
  O2-  O218  1  0.01519073  0.64358781  0.87775756  1
  O2-  O219  1  0.25453628  -0.10892771  -0.12924306  1
  O2-  O220  1  0.25720723  -0.12857121  0.38513707  1
  O2-  O221  1  0.24028504  0.10093045  0.65865757  1
  O2-  O222  1  0.24539581  -0.08552756  0.63106607  1
  O2-  O223  1  0.31541308  0.47842156  -0.11525008  1
  O2-  O224  1  0.21819735  0.55323441  0.19090073  1
  O2-  O225  1  0.22887305  0.48408806  0.56332572  1
  O2-  O226  1  0.23700477  0.45431359  0.72164603  1
  O2-  O227  1  0.50708046  -0.12926502  -0.09867709  1
  O2-  O228  1  0.48858164  -0.13634578  0.11629839  1
  O2-  O229  1  0.51656331  -0.12997973  0.34913687  1
  O2-  O230  1  0.51286359  -0.16040306  0.65727362  1
  O2-  O231  1  0.47804144  0.62944968  0.10811523  1
  O2-  O232  1  0.52322773  0.62288978  0.27548208  1
  O2-  O233  1  0.52432113  0.66083732  0.43219973  1
  O2-  O234  1  0.50808151  0.66544890  0.61187406  1
  O2-  O235  1  0.72649493  0.00183772  -0.11836800  1
  O2-  O236  1  0.75878424  -0.11361871  0.39585329  1
  O2-  O237  1  0.75981974  -0.11824061  0.59662189  1
  O2-  O238  1  0.74060043  0.10231618  0.62063618  1
  O2-  O239  1  0.73560197  0.62936315  -0.12909948  1
  O2-  O240  1  0.75297194  0.59159194  0.37289584  1
  O2-  O241  1  0.74963853  0.59759357  0.65928075  1
  O2-  O242  1  0.74649810  0.39110031  0.65096198  1
