# generated using pymatgen
data_Gd19Ta56(WO20)8
_symmetry_space_group_name_H-M   'P 1'
_cell_length_a   15.48913227
_cell_length_b   15.53007653
_cell_length_c   15.29154289
_cell_angle_alpha   89.95875832
_cell_angle_beta   90.16802675
_cell_angle_gamma   90.00279395
_symmetry_Int_Tables_number   1
_chemical_formula_structural   Gd19Ta56(WO20)8
_chemical_formula_sum   'Gd19 Ta56 W8 O160'
_cell_volume   3678.32425681
_cell_formula_units_Z   1
loop_
 _symmetry_equiv_pos_site_id
 _symmetry_equiv_pos_as_xyz
  1  'x, y, z'
loop_
 _atom_type_symbol
 _atom_type_oxidation_number
  Gd3+  3.0
  Ta5+  5.0
  W6+  6.0
  O2-  -2.0
loop_
 _atom_site_type_symbol
 _atom_site_label
 _atom_site_symmetry_multiplicity
 _atom_site_fract_x
 _atom_site_fract_y
 _atom_site_fract_z
 _atom_site_occupancy
  Gd3+  Gd0  1  -0.00632527  0.74853770  0.75386448  1
  Gd3+  Gd1  1  0.50582702  0.75623847  0.24714332  1
  Gd3+  Gd2  1  0.49661758  0.76184508  0.48727448  1
  Gd3+  Gd3  1  0.48871308  0.23867490  0.74845337  1
  Gd3+  Gd4  1  0.03295272  0.25002639  0.73842533  1
  Gd3+  Gd5  1  0.74129068  0.24593123  0.01604524  1
  Gd3+  Gd6  1  0.75978406  0.25813477  0.76143981  1
  Gd3+  Gd7  1  0.52373012  0.75360138  0.00999536  1
  Gd3+  Gd8  1  0.23702636  0.74600078  0.01569472  1
  Gd3+  Gd9  1  0.23559550  0.76776813  0.75778389  1
  Gd3+  Gd10  1  0.23633328  0.25057961  0.49292129  1
  Gd3+  Gd11  1  -0.01187746  0.24774946  0.23824837  1
  Gd3+  Gd12  1  0.49736568  0.75063456  0.75223097  1
  Gd3+  Gd13  1  0.53671252  0.23305559  0.51513418  1
  Gd3+  Gd14  1  -0.03701717  0.74880306  0.21843849  1
  Gd3+  Gd15  1  0.23166726  0.76926142  0.51235565  1
  Gd3+  Gd16  1  0.26837936  0.24607584  0.00623396  1
  Gd3+  Gd17  1  0.77747194  0.25843227  0.48145162  1
  Gd3+  Gd18  1  0.24544346  0.24401791  0.25524835  1
  Ta5+  Ta19  1  0.81822335  0.62275038  0.12616306  1
  Ta5+  Ta20  1  0.10594134  0.11569138  0.87684453  1
  Ta5+  Ta21  1  0.12792654  0.62351651  0.37965202  1
  Ta5+  Ta22  1  0.63018962  0.61617778  0.37253672  1
  Ta5+  Ta23  1  0.12900119  0.11317093  0.62524351  1
  Ta5+  Ta24  1  0.64503990  0.88876230  0.37111824  1
  Ta5+  Ta25  1  0.37611844  0.12118431  0.88278283  1
  Ta5+  Ta26  1  0.36090076  0.88610542  0.89243320  1
  Ta5+  Ta27  1  0.64216873  0.88821311  0.12925284  1
  Ta5+  Ta28  1  0.85867034  0.63066205  0.62802337  1
  Ta5+  Ta29  1  0.65409833  0.87333693  0.87283687  1
  Ta5+  Ta30  1  0.11154616  0.38117685  0.87907110  1
  Ta5+  Ta31  1  0.87589758  0.62548310  0.37766909  1
  Ta5+  Ta32  1  0.61159669  0.07496182  0.63738637  1
  Ta5+  Ta33  1  0.87734549  0.62709069  0.88612955  1
  Ta5+  Ta34  1  0.87981655  0.12164157  0.62963209  1
  Ta5+  Ta35  1  0.88675881  0.87758830  0.88910602  1
  Ta5+  Ta36  1  0.11811225  0.11695839  0.11502927  1
  Ta5+  Ta37  1  0.38984744  0.88923392  0.09668062  1
  Ta5+  Ta38  1  0.86608600  0.87464728  0.62571136  1
  Ta5+  Ta39  1  0.63403887  0.88165124  0.62450182  1
  Ta5+  Ta40  1  0.87801810  0.37982727  0.12395664  1
  Ta5+  Ta41  1  0.41467450  0.12742090  0.13603162  1
  Ta5+  Ta42  1  0.13270355  0.37746852  0.62667091  1
  Ta5+  Ta43  1  0.34675766  0.37738398  0.63170361  1
  Ta5+  Ta44  1  0.13341797  0.88034936  0.36900770  1
  Ta5+  Ta45  1  0.35223818  0.62022090  0.63442567  1
  Ta5+  Ta46  1  0.35907568  0.13487318  0.62564586  1
  Ta5+  Ta47  1  0.64189000  0.39442055  0.63033662  1
  Ta5+  Ta48  1  0.09329620  0.12315145  0.37646246  1
  Ta5+  Ta49  1  0.37869045  0.11382183  0.37809493  1
  Ta5+  Ta50  1  0.33655424  0.88142843  0.33195832  1
  Ta5+  Ta51  1  0.60431511  0.12624844  0.31876643  1
  Ta5+  Ta52  1  0.62513243  0.11715673  0.88064724  1
  Ta5+  Ta53  1  0.36417732  0.89192670  0.63699255  1
  Ta5+  Ta54  1  0.59949599  0.37138878  0.36495107  1
  Ta5+  Ta55  1  0.88358932  0.39682934  0.62980373  1
  Ta5+  Ta56  1  0.89907169  0.11978958  0.88319322  1
  Ta5+  Ta57  1  0.10373619  0.87352449  0.89714694  1
  Ta5+  Ta58  1  0.11457520  0.37307046  0.11460422  1
  Ta5+  Ta59  1  0.58313140  0.12657360  0.11709869  1
  Ta5+  Ta60  1  0.14169343  0.61626429  0.62997914  1
  Ta5+  Ta61  1  0.37153669  0.61887687  0.36863929  1
  Ta5+  Ta62  1  0.65147828  0.62806308  0.13055271  1
  Ta5+  Ta63  1  0.09117011  0.37832365  0.37592081  1
  Ta5+  Ta64  1  0.61249936  0.38530893  0.88498578  1
  Ta5+  Ta65  1  0.40558374  0.37972323  0.89094665  1
  Ta5+  Ta66  1  0.39009312  0.37454670  0.38277683  1
  Ta5+  Ta67  1  0.86982318  0.11713635  0.13099111  1
  Ta5+  Ta68  1  0.90540252  0.38422370  0.88508652  1
  Ta5+  Ta69  1  0.12146927  0.61942689  0.88321066  1
  Ta5+  Ta70  1  0.14278260  0.87439501  0.15108844  1
  Ta5+  Ta71  1  0.64119302  0.62913995  0.87572828  1
  Ta5+  Ta72  1  0.81109203  0.87766004  0.12770046  1
  Ta5+  Ta73  1  0.39051322  0.61812016  0.10255719  1
  Ta5+  Ta74  1  0.92434925  0.12036192  0.38603745  1
  W6+  W75  1  0.36517244  0.62227258  0.88702687  1
  W6+  W76  1  0.37333854  0.37687476  0.14273905  1
  W6+  W77  1  0.89546849  0.87463848  0.37475709  1
  W6+  W78  1  0.92724610  0.38331987  0.38064068  1
  W6+  W79  1  0.63729583  0.37990188  0.13149170  1
  W6+  W80  1  0.11752709  0.62362905  0.14044854  1
  W6+  W81  1  0.60092613  0.62390046  0.62250091  1
  W6+  W82  1  0.09918588  0.87798907  0.62631808  1
  O2-  O83  1  0.14658281  0.00273939  0.14069344  1
  O2-  O84  1  0.11159435  -0.00048066  0.36165228  1
  O2-  O85  1  0.07840718  0.00560838  0.63268882  1
  O2-  O86  1  0.12029345  -0.00803917  0.88453562  1
  O2-  O87  1  0.11050838  0.48873291  0.12695778  1
  O2-  O88  1  0.11752391  0.49752341  0.36721803  1
  O2-  O89  1  0.11133715  0.49993717  0.63104015  1
  O2-  O90  1  0.14714466  0.49947433  0.87232886  1
  O2-  O91  1  0.40088301  0.00541653  0.13133077  1
  O2-  O92  1  0.39082479  -0.01392593  0.36320909  1
  O2-  O93  1  0.35705583  0.01097972  0.63690418  1
  O2-  O94  1  0.33813501  0.00533792  0.86941771  1
  O2-  O95  1  0.40077168  0.50411020  0.13537811  1
  O2-  O96  1  0.40239664  0.50326771  0.37647940  1
  O2-  O97  1  0.37291218  0.50033595  0.62145107  1
  O2-  O98  1  0.36887565  0.49056070  0.87432704  1
  O2-  O99  1  0.60253397  0.00365068  0.12194308  1
  O2-  O100  1  0.63559883  0.01565160  0.36910607  1
  O2-  O101  1  0.54076811  -0.03110184  0.62628614  1
  O2-  O102  1  0.64764665  -0.00454881  0.86744854  1
  O2-  O103  1  0.64441137  0.50916244  0.12749557  1
  O2-  O104  1  0.61262142  0.49442217  0.37914492  1
  O2-  O105  1  0.57584141  0.49066136  0.61929579  1
  O2-  O106  1  0.62680266  0.50887198  0.88174377  1
  O2-  O107  1  0.81995727  0.01000844  0.13802390  1
  O2-  O108  1  0.90832244  0.00288970  0.38486637  1
  O2-  O109  1  0.87763017  0.00059333  0.63103613  1
  O2-  O110  1  0.86960882  0.00170489  0.87372043  1
  O2-  O111  1  0.84449401  0.49272736  0.12361562  1
  O2-  O112  1  0.93047869  0.52155165  0.37598255  1
  O2-  O113  1  0.91090721  0.51416907  0.63082121  1
  O2-  O114  1  0.86825390  0.49897842  0.87732269  1
  O2-  O115  1  0.16951281  0.24176260  0.12035916  1
  O2-  O116  1  0.14601105  0.25088507  0.37841495  1
  O2-  O117  1  0.14412842  0.24617927  0.62048951  1
  O2-  O118  1  0.10247160  0.24903203  0.87672732  1
  O2-  O119  1  0.17567360  0.75243920  0.15165637  1
  O2-  O120  1  0.16756043  0.74704808  0.37883999  1
  O2-  O121  1  0.13325609  0.74527393  0.63032065  1
  O2-  O122  1  0.15529950  0.74829671  0.88457928  1
  O2-  O123  1  0.35093081  0.24410742  0.14115690  1
  O2-  O124  1  0.35701320  0.24459302  0.38204902  1
  O2-  O125  1  0.39960625  0.26064277  0.60396868  1
  O2-  O126  1  0.38321601  0.25186542  0.88539616  1
  O2-  O127  1  0.38541750  0.75193329  0.09156378  1
  O2-  O128  1  0.38404831  0.76841749  0.37005026  1
  O2-  O129  1  0.35536843  0.75182066  0.63953505  1
  O2-  O130  1  0.33512984  0.75845405  0.88102993  1
  O2-  O131  1  0.62035913  0.25073773  0.10785101  1
  O2-  O132  1  0.62727542  0.23479147  0.37910631  1
  O2-  O133  1  0.58518853  0.28471890  0.64746263  1
  O2-  O134  1  0.64265950  0.25070276  0.87488655  1
  O2-  O135  1  0.60292642  0.75705294  0.13640281  1
  O2-  O136  1  0.59432494  0.75711936  0.37041407  1
  O2-  O137  1  0.56763119  0.76508603  0.61958020  1
  O2-  O138  1  0.58545692  0.75600705  0.87630627  1
  O2-  O139  1  0.83790875  0.24567137  0.13693898  1
  O2-  O140  1  0.89334409  0.24934057  0.38211388  1
  O2-  O141  1  0.82300317  0.24837610  0.62569021  1
  O2-  O142  1  0.87547588  0.24960341  0.86623059  1
  O2-  O143  1  0.81604177  0.74968850  0.12805372  1
  O2-  O144  1  0.92950689  0.73748405  0.36370370  1
  O2-  O145  1  0.91069493  0.74707857  0.63177906  1
  O2-  O146  1  0.91748292  0.75004082  0.88604836  1
  O2-  O147  1  0.16870678  0.12655615  -0.00563500  1
  O2-  O148  1  0.11268007  0.14892478  0.24574030  1
  O2-  O149  1  0.14097771  0.12152563  0.49804129  1
  O2-  O150  1  0.15177356  0.12943896  0.75366891  1
  O2-  O151  1  0.11803130  0.63254754  0.00514406  1
  O2-  O152  1  0.06638025  0.64575398  0.27464839  1
  O2-  O153  1  0.09022287  0.63044915  0.49723830  1
  O2-  O154  1  0.08853289  0.63346604  0.75538685  1
  O2-  O155  1  0.37401283  0.12882930  0.01041500  1
  O2-  O156  1  0.33202715  0.12114966  0.26143493  1
  O2-  O157  1  0.33218116  0.11935061  0.49550738  1
  O2-  O158  1  0.36477037  0.14747691  0.75205369  1
  O2-  O159  1  0.46156159  0.62085827  -0.00304648  1
  O2-  O160  1  0.39935924  0.64486521  0.24573403  1
  O2-  O161  1  0.39873152  0.64672104  0.49315439  1
  O2-  O162  1  0.40954453  0.63167855  0.75000924  1
  O2-  O163  1  0.65512517  0.12071829  0.00017288  1
  O2-  O164  1  0.67587741  0.13181675  0.22348439  1
  O2-  O165  1  0.65568722  0.14216901  0.54608805  1
  O2-  O166  1  0.63509965  0.13505776  0.74547941  1
  O2-  O167  1  0.64260585  0.65303611  0.00108942  1
  O2-  O168  1  0.59304819  0.63055519  0.25432188  1
  O2-  O169  1  0.58426200  0.63546042  0.48530946  1
  O2-  O170  1  0.59630959  0.63840210  0.75950531  1
  O2-  O171  1  0.84298271  0.13391862  0.00139344  1
  O2-  O172  1  0.89885205  0.12787055  0.25718943  1
  O2-  O173  1  0.85281557  0.13089147  0.50513031  1
  O2-  O174  1  0.83179638  0.12904202  0.74902606  1
  O2-  O175  1  0.86510554  0.62702609  0.00858877  1
  O2-  O176  1  0.87010814  0.63179419  0.24355612  1
  O2-  O177  1  0.87324699  0.63424205  0.50326091  1
  O2-  O178  1  0.89905535  0.63363271  0.75497791  1
  O2-  O179  1  0.16800802  0.36088811  -0.00334533  1
  O2-  O180  1  0.11435287  0.34753188  0.24533286  1
  O2-  O181  1  0.13680842  0.37083911  0.49725985  1
  O2-  O182  1  0.15489170  0.36312827  0.75238582  1
  O2-  O183  1  0.11423824  0.86512490  0.02922600  1
  O2-  O184  1  0.06700197  0.85366526  0.25721356  1
  O2-  O185  1  0.10067680  0.86044895  0.48755369  1
  O2-  O186  1  0.10844189  0.85337526  0.76521980  1
  O2-  O187  1  0.35176786  0.36697558  0.00721708  1
  O2-  O188  1  0.32177523  0.37338421  0.27418006  1
  O2-  O189  1  0.32209837  0.37659582  0.49279333  1
  O2-  O190  1  0.35400512  0.35911410  0.75071778  1
  O2-  O191  1  0.45530971  0.88446152  -0.02396027  1
  O2-  O192  1  0.40070884  0.86030040  0.22285898  1
  O2-  O193  1  0.41269952  0.87328044  0.52742685  1
  O2-  O194  1  0.40318361  0.87229907  0.75922293  1
  O2-  O195  1  0.67635614  0.37663436  -0.00726479  1
  O2-  O196  1  0.66784409  0.36657136  0.26522871  1
  O2-  O197  1  0.65403585  0.34805116  0.50039748  1
  O2-  O198  1  0.66816045  0.38211471  0.76004872  1
  O2-  O199  1  0.64118649  0.86544188  -0.00205337  1
  O2-  O200  1  0.59561444  0.88160462  0.25598866  1
  O2-  O201  1  0.61099609  0.87725011  0.49434496  1
  O2-  O202  1  0.61172857  0.86107166  0.74932000  1
  O2-  O203  1  0.85315913  0.35323584  -0.00258505  1
  O2-  O204  1  0.91197299  0.37509042  0.24436430  1
  O2-  O205  1  0.87408432  0.36815551  0.50819469  1
  O2-  O206  1  0.85437807  0.36963365  0.75268660  1
  O2-  O207  1  0.85017641  0.87951516  0.00748956  1
  O2-  O208  1  0.87694066  0.86710139  0.23843539  1
  O2-  O209  1  0.90364104  0.87196837  0.51247402  1
  O2-  O210  1  0.90701550  0.87066768  0.75028187  1
  O2-  O211  1  0.00234904  0.11080049  -0.04689164  1
  O2-  O212  1  -0.00340686  0.12882331  0.11852224  1
  O2-  O213  1  -0.00429196  0.15590948  0.62106037  1
  O2-  O214  1  -0.00525507  0.12043294  0.79643718  1
  O2-  O215  1  0.00988814  0.40792746  -0.04513693  1
  O2-  O216  1  0.00059494  0.32608937  0.10709181  1
  O2-  O217  1  0.00375445  0.35370891  0.62900431  1
  O2-  O218  1  0.00447841  0.37649176  0.80392687  1
  O2-  O219  1  0.29555730  -0.11396741  0.00599963  1
  O2-  O220  1  0.22954215  -0.11180457  0.26375114  1
  O2-  O221  1  0.25450198  -0.11038696  0.42741045  1
  O2-  O222  1  0.24232993  -0.12579703  0.63082096  1
  O2-  O223  1  0.30004259  0.61417058  0.01552880  1
  O2-  O224  1  0.25290492  0.60508017  0.36403697  1
  O2-  O225  1  0.24633484  0.62486372  0.55365868  1
  O2-  O226  1  0.24617179  0.62638180  0.71177363  1
  O2-  O227  1  0.50330975  0.12389948  -0.13050938  1
  O2-  O228  1  0.50765240  0.14025995  0.23665168  1
  O2-  O229  1  0.49688178  0.12801757  0.40967423  1
  O2-  O230  1  0.49362113  0.13104868  0.62574153  1
  O2-  O231  1  0.51117569  0.38980592  -0.03882233  1
  O2-  O232  1  0.49596280  0.36012042  0.29776735  1
  O2-  O233  1  0.49342227  0.35806647  0.45746817  1
  O2-  O234  1  0.50815564  0.36724887  0.80623926  1
  O2-  O235  1  0.76604570  -0.15680801  -0.14688582  1
  O2-  O236  1  0.75801427  -0.13570929  0.37288880  1
  O2-  O237  1  0.75101785  -0.16700861  0.61913194  1
  O2-  O238  1  0.70138921  -0.01042708  0.64288403  1
  O2-  O239  1  0.75764642  0.64874803  -0.14159700  1
  O2-  O240  1  0.74939373  0.62545196  0.37494570  1
  O2-  O241  1  0.74204796  0.62958983  0.63490104  1
  O2-  O242  1  0.75859226  0.42466018  0.61782200  1
