# generated using pymatgen
data_Gd19Ta56(WO20)8
_symmetry_space_group_name_H-M   'P 1'
_cell_length_a   15.51917017
_cell_length_b   15.41638895
_cell_length_c   15.24881853
_cell_angle_alpha   90.07486071
_cell_angle_beta   89.95580769
_cell_angle_gamma   89.85627497
_symmetry_Int_Tables_number   1
_chemical_formula_structural   Gd19Ta56(WO20)8
_chemical_formula_sum   'Gd19 Ta56 W8 O160'
_cell_volume   3648.25748960
_cell_formula_units_Z   1
loop_
 _symmetry_equiv_pos_site_id
 _symmetry_equiv_pos_as_xyz
  1  'x, y, z'
loop_
 _atom_type_symbol
 _atom_type_oxidation_number
  Gd3+  3.0
  Ta5+  5.0
  W6+  6.0
  O2-  -2.0
loop_
 _atom_site_type_symbol
 _atom_site_label
 _atom_site_symmetry_multiplicity
 _atom_site_fract_x
 _atom_site_fract_y
 _atom_site_fract_z
 _atom_site_occupancy
  Gd3+  Gd0  1  0.27093375  0.76540909  0.23804433  1
  Gd3+  Gd1  1  0.56065409  0.73268299  0.23935156  1
  Gd3+  Gd2  1  0.71421674  0.22513553  0.22726692  1
  Gd3+  Gd3  1  0.23154929  0.74170514  -0.01253617  1
  Gd3+  Gd4  1  0.04580291  0.25415622  0.48488777  1
  Gd3+  Gd5  1  0.50607320  0.74674671  0.76042398  1
  Gd3+  Gd6  1  0.50162261  0.75461043  0.49012976  1
  Gd3+  Gd7  1  0.48181742  0.24880347  0.72688469  1
  Gd3+  Gd8  1  0.24253922  0.72743629  0.74724328  1
  Gd3+  Gd9  1  0.50971560  0.22703990  0.01251607  1
  Gd3+  Gd10  1  -0.00886878  0.76309817  0.75812112  1
  Gd3+  Gd11  1  0.79529693  0.25222857  0.47791163  1
  Gd3+  Gd12  1  0.02100712  0.24983426  0.72097239  1
  Gd3+  Gd13  1  0.01444819  0.25794509  0.00254467  1
  Gd3+  Gd14  1  0.24638803  0.24921643  0.05494262  1
  Gd3+  Gd15  1  0.75057148  0.24614713  0.00502374  1
  Gd3+  Gd16  1  0.74190883  0.74078986  0.48911687  1
  Gd3+  Gd17  1  -0.00181033  0.29126940  0.26343217  1
  Gd3+  Gd18  1  -0.01944819  0.76102877  0.47664170  1
  Ta5+  Ta19  1  0.89961160  0.09857215  0.13595607  1
  Ta5+  Ta20  1  0.33006406  0.12714930  0.61465098  1
  Ta5+  Ta21  1  0.13643561  0.88324461  0.62992803  1
  Ta5+  Ta22  1  0.20550976  0.06120043  0.41876937  1
  Ta5+  Ta23  1  0.87110426  0.88322913  0.89066478  1
  Ta5+  Ta24  1  0.62922574  0.87825234  0.62918522  1
  Ta5+  Ta25  1  0.15893529  0.37622868  0.86841109  1
  Ta5+  Ta26  1  0.09354353  0.60159116  0.87127807  1
  Ta5+  Ta27  1  0.82270986  0.06278283  0.36057798  1
  Ta5+  Ta28  1  0.35581034  0.35368930  0.87530297  1
  Ta5+  Ta29  1  0.84062160  0.63560022  0.89236893  1
  Ta5+  Ta30  1  0.86855545  0.39252009  0.86714974  1
  Ta5+  Ta31  1  0.65241061  0.88031989  0.36471550  1
  Ta5+  Ta32  1  0.63501750  0.12608311  0.61770733  1
  Ta5+  Ta33  1  0.09981082  0.11478031  0.19593338  1
  Ta5+  Ta34  1  0.86533621  0.62040847  0.36242713  1
  Ta5+  Ta35  1  0.63874553  0.36580398  0.36629134  1
  Ta5+  Ta36  1  0.63715234  0.37546259  0.87776277  1
  Ta5+  Ta37  1  0.12982708  0.63023141  0.36916886  1
  Ta5+  Ta38  1  0.11492637  0.89368120  0.87472650  1
  Ta5+  Ta39  1  0.37228933  0.12019941  0.87368435  1
  Ta5+  Ta40  1  0.35106775  0.12785744  0.36259290  1
  Ta5+  Ta41  1  0.34440594  0.36827951  0.60521461  1
  Ta5+  Ta42  1  0.86794829  0.42891953  0.37844940  1
  Ta5+  Ta43  1  0.63048375  0.10949349  0.87025841  1
  Ta5+  Ta44  1  0.64211417  0.36850363  0.62556226  1
  Ta5+  Ta45  1  0.16213857  0.13150228  0.61325090  1
  Ta5+  Ta46  1  0.88176680  0.39755511  0.62677169  1
  Ta5+  Ta47  1  0.17851968  0.38007108  0.61310662  1
  Ta5+  Ta48  1  0.13967312  0.13285503  0.87007149  1
  Ta5+  Ta49  1  0.40712776  0.38173335  0.12799718  1
  Ta5+  Ta50  1  0.92071124  0.62927947  0.11721592  1
  Ta5+  Ta51  1  0.86430571  0.62864879  0.63875236  1
  Ta5+  Ta52  1  0.17394413  0.39036421  0.36292549  1
  Ta5+  Ta53  1  0.12122565  0.61705119  0.61575268  1
  Ta5+  Ta54  1  0.38469049  0.63085439  0.35734781  1
  Ta5+  Ta55  1  0.38058576  0.88140200  0.62751260  1
  Ta5+  Ta56  1  0.85713465  0.87973046  0.62597349  1
  Ta5+  Ta57  1  0.38953929  0.11510096  0.14125746  1
  Ta5+  Ta58  1  0.87009214  0.86578043  0.13254391  1
  Ta5+  Ta59  1  0.36556574  0.56092736  0.86675203  1
  Ta5+  Ta60  1  0.87115845  0.13050857  0.87214792  1
  Ta5+  Ta61  1  0.88057348  0.41424500  0.12130502  1
  Ta5+  Ta62  1  0.70254306  0.87039932  0.13133072  1
  Ta5+  Ta63  1  0.40579421  0.92875358  0.11225137  1
  Ta5+  Ta64  1  0.35188314  0.89106565  0.87300539  1
  Ta5+  Ta65  1  0.61226120  0.39211689  0.11766285  1
  Ta5+  Ta66  1  0.60012949  0.12064671  0.36970545  1
  Ta5+  Ta67  1  0.62520043  0.60822980  0.63256581  1
  Ta5+  Ta68  1  0.57874810  0.04434190  0.12605988  1
  Ta5+  Ta69  1  0.14354348  0.88124928  0.38588248  1
  Ta5+  Ta70  1  0.10087113  0.43463049  0.11905194  1
  Ta5+  Ta71  1  0.08834478  0.63591937  0.12663371  1
  Ta5+  Ta72  1  0.36246865  0.60812152  0.61542111  1
  Ta5+  Ta73  1  0.82452787  0.88350174  0.36053127  1
  Ta5+  Ta74  1  0.39117513  0.89163614  0.36709208  1
  W6+  W75  1  0.88793909  0.12933307  0.60995732  1
  W6+  W76  1  0.70890500  0.61981515  0.11516490  1
  W6+  W77  1  0.12654029  0.88455107  0.13153397  1
  W6+  W78  1  0.64235916  0.86772741  0.88780866  1
  W6+  W79  1  0.33384631  0.37916872  0.34994454  1
  W6+  W80  1  0.37795125  0.62720330  0.10088423  1
  W6+  W81  1  0.63999009  0.59827727  0.36796689  1
  W6+  W82  1  0.60070449  0.62512425  0.90024420  1
  O2-  O83  1  0.12594827  0.01737747  0.12926774  1
  O2-  O84  1  0.09075300  -0.01445943  0.40754834  1
  O2-  O85  1  0.14928147  0.00208666  0.62272021  1
  O2-  O86  1  0.08997429  0.02153485  0.88112754  1
  O2-  O87  1  0.17163532  0.52995122  0.10629361  1
  O2-  O88  1  0.14226237  0.50857421  0.38785871  1
  O2-  O89  1  0.12603994  0.49731387  0.60774135  1
  O2-  O90  1  0.08197353  0.47995274  0.88580186  1
  O2-  O91  1  0.31938150  0.01140093  0.09676143  1
  O2-  O92  1  0.41455476  0.01111364  0.37011529  1
  O2-  O93  1  0.35326231  -0.00183740  0.62988147  1
  O2-  O94  1  0.41679027  0.00740976  0.87649831  1
  O2-  O95  1  0.39245526  0.49783892  0.10443760  1
  O2-  O96  1  0.36608905  0.51346469  0.34861649  1
  O2-  O97  1  0.39097981  0.49120720  0.62576581  1
  O2-  O98  1  0.42983132  0.45501417  0.88195765  1
  O2-  O99  1  0.69108395  0.00408771  0.13542614  1
  O2-  O100  1  0.61281342  0.00022392  0.37907364  1
  O2-  O101  1  0.65113717  -0.00145649  0.62842689  1
  O2-  O102  1  0.66331014  -0.00420603  0.85459090  1
  O2-  O103  1  0.63719884  0.50651047  0.09890691  1
  O2-  O104  1  0.58603929  0.47089822  0.38211541  1
  O2-  O105  1  0.59579505  0.48457374  0.61931986  1
  O2-  O106  1  0.61609539  0.49115598  0.87770143  1
  O2-  O107  1  0.92194092  -0.01664861  0.15413196  1
  O2-  O108  1  0.91160704  -0.01587013  0.34468064  1
  O2-  O109  1  0.86126792  -0.00301631  0.62657412  1
  O2-  O110  1  0.88353080  0.01074347  0.86600717  1
  O2-  O111  1  0.82009099  0.52039169  0.11433688  1
  O2-  O112  1  0.77323607  0.53120351  0.36792132  1
  O2-  O113  1  0.91863973  0.51993886  0.65058700  1
  O2-  O114  1  0.84512325  0.50906800  0.84849443  1
  O2-  O115  1  0.14383316  0.22296301  0.16186949  1
  O2-  O116  1  0.10817568  0.28033118  0.35135516  1
  O2-  O117  1  0.13228055  0.26299354  0.61850846  1
  O2-  O118  1  0.07630359  0.26723862  0.86195538  1
  O2-  O119  1  0.13531884  0.74880646  0.13112275  1
  O2-  O120  1  0.09173021  0.75847718  0.37403988  1
  O2-  O121  1  0.10649183  0.74434503  0.65794418  1
  O2-  O122  1  0.13462525  0.75850209  0.84882471  1
  O2-  O123  1  0.42090102  0.23836323  0.13634116  1
  O2-  O124  1  0.34468388  0.24729258  0.36350269  1
  O2-  O125  1  0.38712269  0.24355090  0.60510110  1
  O2-  O126  1  0.43261756  0.24277721  0.87673264  1
  O2-  O127  1  0.31356367  0.74140031  0.10375040  1
  O2-  O128  1  0.35608530  0.76408926  0.36344839  1
  O2-  O129  1  0.39295654  0.73321357  0.65241874  1
  O2-  O130  1  0.32115781  0.76696673  0.86672219  1
  O2-  O131  1  0.63721264  0.25435085  0.10318982  1
  O2-  O132  1  0.58014367  0.25912038  0.35943308  1
  O2-  O133  1  0.58976004  0.25324565  0.62299917  1
  O2-  O134  1  0.61171214  0.24647356  0.90162702  1
  O2-  O135  1  0.67001945  0.74416956  0.13461654  1
  O2-  O136  1  0.66337982  0.74183955  0.36120539  1
  O2-  O137  1  0.57792694  0.73044684  0.62243373  1
  O2-  O138  1  0.57329651  0.75893743  0.89327673  1
  O2-  O139  1  0.81668771  0.30713804  0.12460321  1
  O2-  O140  1  0.93003264  0.31346890  0.39754861  1
  O2-  O141  1  0.90335626  0.27486223  0.59668229  1
  O2-  O142  1  0.89319061  0.25414471  0.91251466  1
  O2-  O143  1  0.90562198  0.75062792  0.10533291  1
  O2-  O144  1  0.86289140  0.74672967  0.37481136  1
  O2-  O145  1  0.92316494  0.74891224  0.62255264  1
  O2-  O146  1  0.84616316  0.76083241  0.90206900  1
  O2-  O147  1  0.14234938  0.17549390  -0.01302152  1
  O2-  O148  1  0.15581455  0.09381057  0.30160831  1
  O2-  O149  1  0.15134624  0.15520714  0.48241129  1
  O2-  O150  1  0.13355860  0.15046220  0.74629253  1
  O2-  O151  1  0.11819785  0.64133353  -0.01309208  1
  O2-  O152  1  0.08605273  0.61942605  0.25539898  1
  O2-  O153  1  0.07722240  0.64229405  0.49798031  1
  O2-  O154  1  0.14344988  0.60716086  0.75509822  1
  O2-  O155  1  0.36698307  0.14896985  0.00276320  1
  O2-  O156  1  0.31648921  0.11798443  0.23833380  1
  O2-  O157  1  0.32062654  0.10477443  0.48870375  1
  O2-  O158  1  0.37591145  0.14033465  0.74779748  1
  O2-  O159  1  0.31533801  0.60990155  -0.03265386  1
  O2-  O160  1  0.40770497  0.65863815  0.23359623  1
  O2-  O161  1  0.39135493  0.63635223  0.49494874  1
  O2-  O162  1  0.32463346  0.59746084  0.75384925  1
  O2-  O163  1  0.59355323  0.09817131  -0.00627129  1
  O2-  O164  1  0.60588221  0.12033229  0.23859519  1
  O2-  O165  1  0.59478197  0.12753564  0.50279813  1
  O2-  O166  1  0.58995257  0.13264012  0.74944084  1
  O2-  O167  1  0.73303238  0.62554192  -0.05077589  1
  O2-  O168  1  0.63994759  0.61246039  0.23334936  1
  O2-  O169  1  0.64384654  0.62944118  0.50567394  1
  O2-  O170  1  0.60808518  0.62642964  0.75406168  1
  O2-  O171  1  0.84345946  0.12222222  0.02282483  1
  O2-  O172  1  0.81421791  0.11377363  0.23185031  1
  O2-  O173  1  0.85948341  0.11563448  0.47143399  1
  O2-  O174  1  0.90825590  0.15710627  0.75639386  1
  O2-  O175  1  0.91066364  0.60817584  -0.01246433  1
  O2-  O176  1  0.89177063  0.62352384  0.24349711  1
  O2-  O177  1  0.85958390  0.64017431  0.50845144  1
  O2-  O178  1  0.84997455  0.66511349  0.75842000  1
  O2-  O179  1  0.14085341  0.36109969  0.01775063  1
  O2-  O180  1  0.11804690  0.40364014  0.23632874  1
  O2-  O181  1  0.15569238  0.36326797  0.48623483  1
  O2-  O182  1  0.15680424  0.37741590  0.74722654  1
  O2-  O183  1  0.14553403  0.87027664  -0.00749312  1
  O2-  O184  1  0.16638935  0.87367454  0.26156791  1
  O2-  O185  1  0.09605383  0.85151856  0.51682415  1
  O2-  O186  1  0.07773287  0.89026091  0.74178453  1
  O2-  O187  1  0.35225558  0.34342828  0.01072146  1
  O2-  O188  1  0.31690324  0.36532689  0.20806617  1
  O2-  O189  1  0.34586289  0.38056338  0.48565972  1
  O2-  O190  1  0.36600395  0.34712751  0.74957135  1
  O2-  O191  1  0.36418073  0.87684755  -0.00380780  1
  O2-  O192  1  0.37242867  0.88189554  0.23453980  1
  O2-  O193  1  0.38838380  0.85887385  0.50343109  1
  O2-  O194  1  0.41022615  0.87036697  0.76043921  1
  O2-  O195  1  0.68797161  0.37665406  -0.00170064  1
  O2-  O196  1  0.66616741  0.36868209  0.23678806  1
  O2-  O197  1  0.66541635  0.34864637  0.50100992  1
  O2-  O198  1  0.59778519  0.35571138  0.75408035  1
  O2-  O199  1  0.67982636  0.87536068  0.01132170  1
  O2-  O200  1  0.62398187  0.87024388  0.24046683  1
  O2-  O201  1  0.63164015  0.84754776  0.49932229  1
  O2-  O202  1  0.61622682  0.85090225  0.75060955  1
  O2-  O203  1  0.90322159  0.40192125  -0.01188683  1
  O2-  O204  1  0.89645000  0.41034741  0.24983878  1
  O2-  O205  1  0.84881294  0.41964492  0.50920381  1
  O2-  O206  1  0.92716518  0.36706106  0.75761876  1
  O2-  O207  1  0.85957726  0.90855151  0.01015802  1
  O2-  O208  1  0.79924990  0.84305366  0.23791234  1
  O2-  O209  1  0.86158284  0.86341679  0.49588308  1
  O2-  O210  1  0.87837143  0.86265550  0.75303286  1
  O2-  O211  1  0.00451590  0.13850333  0.08197060  1
  O2-  O212  1  -0.01565092  0.14419691  0.24288503  1
  O2-  O213  1  0.01944917  0.14582487  0.59902993  1
  O2-  O214  1  -0.00578024  -0.13865985  0.88897781  1
  O2-  O215  1  -0.00369059  0.34308113  0.12102681  1
  O2-  O216  1  -0.00246901  0.50856833  0.11807763  1
  O2-  O217  1  -0.05376367  0.52304077  0.39213470  1
  O2-  O218  1  -0.01445446  0.64127003  0.84345198  1
  O2-  O219  1  0.25420769  0.09513512  -0.13035993  1
  O2-  O220  1  0.26083556  -0.07283438  0.40355882  1
  O2-  O221  1  0.25407447  -0.15389016  0.65176968  1
  O2-  O222  1  0.23751036  -0.08057247  0.84124407  1
  O2-  O223  1  0.24716114  0.27998849  -0.11093957  1
  O2-  O224  1  0.24705910  0.64758086  0.34387337  1
  O2-  O225  1  0.24281125  0.64359578  0.60195081  1
  O2-  O226  1  0.26348203  0.45194023  0.87696932  1
  O2-  O227  1  0.51410689  -0.04694782  0.05738153  1
  O2-  O228  1  0.46757319  0.02589628  0.19426762  1
  O2-  O229  1  0.50847852  -0.15353235  0.36814251  1
  O2-  O230  1  0.50590369  -0.11334795  0.61714320  1
  O2-  O231  1  0.51785460  0.36914799  0.03336444  1
  O2-  O232  1  0.50995407  0.39059946  0.19717939  1
  O2-  O233  1  0.51009875  0.65476843  0.37270630  1
  O2-  O234  1  0.46429800  0.62854723  0.85641249  1
  O2-  O235  1  0.74866340  0.15191291  -0.13030344  1
  O2-  O236  1  0.72254931  0.16413662  0.37437648  1
  O2-  O237  1  0.74598447  -0.18456260  0.62519162  1
  O2-  O238  1  0.74787345  0.16477040  0.60677880  1
  O2-  O239  1  0.75710401  0.34750820  -0.15443356  1
  O2-  O240  1  0.76448783  0.34346211  0.36350179  1
  O2-  O241  1  0.74633997  0.59465224  0.64136742  1
  O2-  O242  1  0.75801908  0.38141180  0.65924215  1
