# generated using pymatgen
data_Gd19Ta56(WO20)8
_symmetry_space_group_name_H-M   'P 1'
_cell_length_a   15.52711215
_cell_length_b   15.50543411
_cell_length_c   15.24468770
_cell_angle_alpha   89.97912632
_cell_angle_beta   89.92288618
_cell_angle_gamma   89.87181895
_symmetry_Int_Tables_number   1
_chemical_formula_structural   Gd19Ta56(WO20)8
_chemical_formula_sum   'Gd19 Ta56 W8 O160'
_cell_volume   3670.21616024
_cell_formula_units_Z   1
loop_
 _symmetry_equiv_pos_site_id
 _symmetry_equiv_pos_as_xyz
  1  'x, y, z'
loop_
 _atom_type_symbol
 _atom_type_oxidation_number
  Gd3+  3.0
  Ta5+  5.0
  W6+  6.0
  O2-  -2.0
loop_
 _atom_site_type_symbol
 _atom_site_label
 _atom_site_symmetry_multiplicity
 _atom_site_fract_x
 _atom_site_fract_y
 _atom_site_fract_z
 _atom_site_occupancy
  Gd3+  Gd0  1  0.72835548  0.26632087  0.00909968  1
  Gd3+  Gd1  1  0.26328735  0.73761784  0.75524081  1
  Gd3+  Gd2  1  -0.03517361  0.23220202  0.00223231  1
  Gd3+  Gd3  1  0.74183691  0.74086687  0.49319083  1
  Gd3+  Gd4  1  0.25686330  0.75538064  0.25667256  1
  Gd3+  Gd5  1  0.76883548  0.73283507  0.23148462  1
  Gd3+  Gd6  1  -0.00592734  0.20227033  0.74525140  1
  Gd3+  Gd7  1  0.70902288  0.25978072  0.25782346  1
  Gd3+  Gd8  1  0.01973161  0.77277517  0.23164087  1
  Gd3+  Gd9  1  0.00199408  0.72374733  0.47450820  1
  Gd3+  Gd10  1  0.03788954  0.21742245  0.27454786  1
  Gd3+  Gd11  1  0.25310913  0.74563830  0.02192905  1
  Gd3+  Gd12  1  0.48843915  0.74370787  0.01858099  1
  Gd3+  Gd13  1  0.22660307  0.27263965  0.74366963  1
  Gd3+  Gd14  1  0.27020809  0.27314414  0.25014560  1
  Gd3+  Gd15  1  0.24322302  0.74488700  0.50925670  1
  Gd3+  Gd16  1  0.00372297  0.73987819  0.75646781  1
  Gd3+  Gd17  1  0.50921373  0.75261994  0.49209122  1
  Gd3+  Gd18  1  0.47280982  0.25294853  -0.02978645  1
  Ta5+  Ta19  1  0.40119140  0.37207789  0.12522441  1
  Ta5+  Ta20  1  0.13784588  0.87810969  0.87883957  1
  Ta5+  Ta21  1  0.86330469  0.36173108  0.60347631  1
  Ta5+  Ta22  1  0.86676599  0.60736697  0.62612469  1
  Ta5+  Ta23  1  0.48190051  0.58332902  0.79465676  1
  Ta5+  Ta24  1  0.39555785  0.58285703  0.13208176  1
  Ta5+  Ta25  1  0.82534491  0.10819762  0.86858996  1
  Ta5+  Ta26  1  0.37930474  0.88572483  0.62023684  1
  Ta5+  Ta27  1  0.42086519  0.93010975  0.37081995  1
  Ta5+  Ta28  1  0.63112690  0.91592051  0.37924214  1
  Ta5+  Ta29  1  0.13061965  0.91601700  0.11638081  1
  Ta5+  Ta30  1  0.40666425  0.14194842  0.13369402  1
  Ta5+  Ta31  1  0.84596187  0.12995160  0.35783778  1
  Ta5+  Ta32  1  0.87077009  0.36948682  0.14792545  1
  Ta5+  Ta33  1  0.12636085  0.37012631  0.38096108  1
  Ta5+  Ta34  1  0.58848084  0.12599419  0.38700127  1
  Ta5+  Ta35  1  0.11191756  0.38060799  0.87704289  1
  Ta5+  Ta36  1  0.60699859  0.14263991  0.85864029  1
  Ta5+  Ta37  1  0.84249293  0.11579812  0.14542324  1
  Ta5+  Ta38  1  0.13110119  0.88185393  0.63751748  1
  Ta5+  Ta39  1  0.35508807  0.38745150  0.87011990  1
  Ta5+  Ta40  1  0.91510321  0.60828995  0.11802543  1
  Ta5+  Ta41  1  0.61274035  0.38106194  0.85691312  1
  Ta5+  Ta42  1  0.37783782  0.89290697  0.87349994  1
  Ta5+  Ta43  1  0.87104492  0.37990196  0.35512565  1
  Ta5+  Ta44  1  0.07406887  0.90339234  0.40143671  1
  Ta5+  Ta45  1  0.82496721  0.14743804  0.60608834  1
  Ta5+  Ta46  1  0.37499415  0.90033019  0.13197830  1
  Ta5+  Ta47  1  0.87117672  0.88572684  0.35167389  1
  Ta5+  Ta48  1  0.69086398  0.37718264  0.61603904  1
  Ta5+  Ta49  1  0.38296797  0.61159980  0.61916839  1
  Ta5+  Ta50  1  0.56725107  0.36113738  0.13162157  1
  Ta5+  Ta51  1  0.13499648  0.61244030  0.87610650  1
  Ta5+  Ta52  1  0.89929633  0.93053894  0.85788205  1
  Ta5+  Ta53  1  0.63516273  0.64868681  0.89306153  1
  Ta5+  Ta54  1  0.62292578  0.89946141  0.88355830  1
  Ta5+  Ta55  1  0.89449534  0.90889039  0.60949513  1
  Ta5+  Ta56  1  0.60784652  0.55934871  0.12470074  1
  Ta5+  Ta57  1  0.12101721  0.35151893  0.11136560  1
  Ta5+  Ta58  1  0.85683005  0.37463971  0.86118372  1
  Ta5+  Ta59  1  0.65894432  0.12279040  0.61601065  1
  Ta5+  Ta60  1  0.57312716  0.13695459  0.12811931  1
  Ta5+  Ta61  1  0.41751316  0.36874885  0.38548597  1
  Ta5+  Ta62  1  0.12337107  0.59537835  0.12159628  1
  Ta5+  Ta63  1  0.86823271  0.58624862  0.36668042  1
  Ta5+  Ta64  1  0.07637855  0.37609064  0.61864068  1
  Ta5+  Ta65  1  0.15035159  0.12383924  0.88133748  1
  Ta5+  Ta66  1  0.58414063  0.36282296  0.39243520  1
  Ta5+  Ta67  1  0.62403419  0.89395435  0.12692694  1
  Ta5+  Ta68  1  0.36286758  0.14832291  0.39164524  1
  Ta5+  Ta69  1  0.86988166  0.60915886  0.88724794  1
  Ta5+  Ta70  1  0.32254718  0.12745059  0.62628130  1
  Ta5+  Ta71  1  0.15486435  0.15472889  0.09118886  1
  Ta5+  Ta72  1  0.31898948  0.13415441  0.88738545  1
  Ta5+  Ta73  1  0.15474833  0.11969681  0.62246402  1
  Ta5+  Ta74  1  0.35262095  0.36901108  0.60794390  1
  W6+  W75  1  0.64547404  0.87508628  0.63671155  1
  W6+  W76  1  0.11721957  0.61780550  0.62831940  1
  W6+  W77  1  0.62582617  0.62096648  0.63132502  1
  W6+  W78  1  0.87210240  0.87218500  0.09766332  1
  W6+  W79  1  0.19909942  0.11697127  0.37014381  1
  W6+  W80  1  0.62521969  0.60362139  0.36216584  1
  W6+  W81  1  0.07770954  0.53628907  0.31585138  1
  W6+  W82  1  0.38772130  0.61326396  0.37074391  1
  O2-  O83  1  0.11465738  0.03436574  0.11792454  1
  O2-  O84  1  0.15164526  -0.01257418  0.37759324  1
  O2-  O85  1  0.11177113  -0.00094014  0.62038990  1
  O2-  O86  1  0.15330950  -0.00531772  0.90335029  1
  O2-  O87  1  0.13056705  0.47242843  0.09810695  1
  O2-  O88  1  0.17617518  0.47715414  0.39374644  1
  O2-  O89  1  0.07423424  0.49350578  0.60597219  1
  O2-  O90  1  0.08665615  0.49977385  0.89647688  1
  O2-  O91  1  0.41640970  0.01379339  0.14611491  1
  O2-  O92  1  0.33676934  0.02094095  0.37480819  1
  O2-  O93  1  0.36520687  0.00441405  0.63691066  1
  O2-  O94  1  0.34678627  0.00546094  0.87738099  1
  O2-  O95  1  0.32907134  0.48448343  0.11843678  1
  O2-  O96  1  0.40285528  0.48692144  0.38345655  1
  O2-  O97  1  0.34725263  0.49356649  0.61242304  1
  O2-  O98  1  0.40988115  0.49566265  0.83512667  1
  O2-  O99  1  0.60734714  0.02130817  0.12007329  1
  O2-  O100  1  0.67428635  0.03073596  0.39410823  1
  O2-  O101  1  0.67166514  0.00370527  0.62019358  1
  O2-  O102  1  0.59885656  0.02073936  0.86988415  1
  O2-  O103  1  0.66438814  0.45345223  0.11205372  1
  O2-  O104  1  0.61469475  0.47966182  0.37242780  1
  O2-  O105  1  0.67939389  0.49613040  0.62017433  1
  O2-  O106  1  0.58538196  0.50051282  0.85999983  1
  O2-  O107  1  0.85337306  0.00492104  0.10456145  1
  O2-  O108  1  0.85978460  0.00535798  0.37225335  1
  O2-  O109  1  0.87942738  0.02597003  0.60346698  1
  O2-  O110  1  0.94035991  0.04691802  0.87260081  1
  O2-  O111  1  0.91008461  0.48393817  0.13015646  1
  O2-  O112  1  0.80259427  0.48803776  0.39362005  1
  O2-  O113  1  0.86849068  0.49189141  0.60075745  1
  O2-  O114  1  0.89942626  0.48637544  0.88370008  1
  O2-  O115  1  0.05337717  0.23558539  0.12852968  1
  O2-  O116  1  0.15879605  0.24766221  0.37022664  1
  O2-  O117  1  0.10564616  0.24279995  0.64539770  1
  O2-  O118  1  0.11551121  0.25065093  0.85136380  1
  O2-  O119  1  0.16095362  0.71861215  0.14213769  1
  O2-  O120  1  0.09572707  0.78536922  0.36161748  1
  O2-  O121  1  0.13700636  0.75118705  0.67054584  1
  O2-  O122  1  0.26996861  0.82399241  0.88802661  1
  O2-  O123  1  0.35020180  0.26035318  0.11071009  1
  O2-  O124  1  0.33224961  0.26904423  0.39470670  1
  O2-  O125  1  0.29158497  0.25870552  0.60460718  1
  O2-  O126  1  0.33940198  0.26164569  0.88725101  1
  O2-  O127  1  0.34058765  0.77522643  0.13900030  1
  O2-  O128  1  0.31727391  0.72940605  0.38714974  1
  O2-  O129  1  0.38970117  0.75428900  0.59715451  1
  O2-  O130  1  0.49858250  0.65024202  0.90237189  1
  O2-  O131  1  0.64194174  0.24944417  0.12568459  1
  O2-  O132  1  0.63696120  0.24117662  0.38868391  1
  O2-  O133  1  0.73021725  0.24145162  0.61928392  1
  O2-  O134  1  0.55223963  0.26453982  0.84581058  1
  O2-  O135  1  0.68086707  0.78623587  0.12799137  1
  O2-  O136  1  0.74894532  0.65933989  0.36441875  1
  O2-  O137  1  0.58760402  0.75566776  0.62401226  1
  O2-  O138  1  0.62084198  0.76485691  0.92412401  1
  O2-  O139  1  0.81737981  0.24550302  0.13833612  1
  O2-  O140  1  0.83146262  0.25539889  0.34330219  1
  O2-  O141  1  0.91049756  0.24473890  0.62719944  1
  O2-  O142  1  0.92676678  0.27070243  0.86201392  1
  O2-  O143  1  0.89450179  0.73566080  0.13626638  1
  O2-  O144  1  0.90825900  0.76036953  0.34619559  1
  O2-  O145  1  0.97827941  0.66601800  0.61682218  1
  O2-  O146  1  0.95195865  0.69387979  0.88733997  1
  O2-  O147  1  0.07130558  0.13806963  -0.01221641  1
  O2-  O148  1  0.18052703  0.15413160  0.22372644  1
  O2-  O149  1  0.18271447  0.12290034  0.50479344  1
  O2-  O150  1  0.12039971  0.11114718  0.75813978  1
  O2-  O151  1  0.17620456  0.62329075  0.00070010  1
  O2-  O152  1  0.02236468  0.62222943  0.20838920  1
  O2-  O153  1  0.13057181  0.66395885  0.50134141  1
  O2-  O154  1  0.12598938  0.74221828  0.86187010  1
  O2-  O155  1  0.39758591  0.12876044  0.00036204  1
  O2-  O156  1  0.37810466  0.16097197  0.25859272  1
  O2-  O157  1  0.38131278  0.13857955  0.51318574  1
  O2-  O158  1  0.32707635  0.15021823  0.75493038  1
  O2-  O159  1  0.36653226  0.64633957  0.02968252  1
  O2-  O160  1  0.35029158  0.62953003  0.23576637  1
  O2-  O161  1  0.42434676  0.62194707  0.50392482  1
  O2-  O162  1  0.39351745  0.65970152  0.74849523  1
  O2-  O163  1  0.59412035  0.16021869  -0.00929614  1
  O2-  O164  1  0.58147524  0.14142007  0.25912683  1
  O2-  O165  1  0.58738006  0.13493198  0.51485468  1
  O2-  O166  1  0.62732956  0.14209873  0.73597357  1
  O2-  O167  1  0.64106615  0.60439584  0.01310208  1
  O2-  O168  1  0.66398922  0.60832930  0.22034704  1
  O2-  O169  1  0.62330585  0.65015790  0.49229726  1
  O2-  O170  1  0.60311138  0.63961207  0.77140067  1
  O2-  O171  1  0.83899207  0.14661277  -0.00105219  1
  O2-  O172  1  0.92784166  0.12702367  0.24122307  1
  O2-  O173  1  0.82754275  0.14744566  0.47997293  1
  O2-  O174  1  0.84705762  0.14129486  0.74960061  1
  O2-  O175  1  0.84541195  0.60626059  0.01344249  1
  O2-  O176  1  0.85368565  0.60910803  0.24164611  1
  O2-  O177  1  0.86309132  0.64670790  0.48891472  1
  O2-  O178  1  0.87860398  0.61030433  0.75023387  1
  O2-  O179  1  0.06385256  0.34492220  -0.00939132  1
  O2-  O180  1  0.13090163  0.35135038  0.24229119  1
  O2-  O181  1  0.07971115  0.34979180  0.49548567  1
  O2-  O182  1  0.11901073  0.38535677  0.74546105  1
  O2-  O183  1  0.14135390  0.84794743  0.00553574  1
  O2-  O184  1  0.15826256  0.86935238  0.22592190  1
  O2-  O185  1  0.12258014  0.84963766  0.51102871  1
  O2-  O186  1  0.01836849  0.87913818  0.84485837  1
  O2-  O187  1  0.40190142  0.39030595  -0.01299573  1
  O2-  O188  1  0.39156391  0.36253212  0.25471696  1
  O2-  O189  1  0.43001159  0.34956695  0.51858885  1
  O2-  O190  1  0.34923363  0.35865589  0.73946225  1
  O2-  O191  1  0.39058154  0.85813870  -0.00032908  1
  O2-  O192  1  0.36749420  0.88319911  0.26432281  1
  O2-  O193  1  0.40233893  0.89196481  0.48869180  1
  O2-  O194  1  0.37043298  0.85671109  0.75052394  1
  O2-  O195  1  0.59242023  0.35270690  -0.01108129  1
  O2-  O196  1  0.58248404  0.34892914  0.25704600  1
  O2-  O197  1  0.62390067  0.35543838  0.51581065  1
  O2-  O198  1  0.64677023  0.36553118  0.73925708  1
  O2-  O199  1  0.66349625  0.91049832  0.00192145  1
  O2-  O200  1  0.64205327  0.90879232  0.25269659  1
  O2-  O201  1  0.62197458  0.86472202  0.49763901  1
  O2-  O202  1  0.67113809  0.87176718  0.77654577  1
  O2-  O203  1  0.86076804  0.34843536  0.01149154  1
  O2-  O204  1  0.94403069  0.32978038  0.24229453  1
  O2-  O205  1  0.88585397  0.35559265  0.47489833  1
  O2-  O206  1  0.84829642  0.37339265  0.74043416  1
  O2-  O207  1  0.87804284  0.86842323  -0.04185296  1
  O2-  O208  1  0.83537654  0.87164772  0.23275447  1
  O2-  O209  1  0.79155616  0.85324675  0.58274493  1
  O2-  O210  1  0.87326581  0.89608541  0.73974122  1
  O2-  O211  1  0.01349903  -0.12499841  0.12257427  1
  O2-  O212  1  -0.00806569  -0.08840011  0.30677607  1
  O2-  O213  1  -0.05113234  -0.11662515  0.47709181  1
  O2-  O214  1  0.00514167  -0.14300515  0.64692063  1
  O2-  O215  1  0.01642777  0.61244387  0.04803158  1
  O2-  O216  1  -0.05287704  0.47855690  0.32746228  1
  O2-  O217  1  -0.00943276  0.61211517  0.38851396  1
  O2-  O218  1  0.07438246  0.61248966  0.76367607  1
  O2-  O219  1  0.23248659  0.14898770  -0.00686311  1
  O2-  O220  1  0.26175941  -0.07207095  0.09764050  1
  O2-  O221  1  0.25757288  -0.13372138  0.60436770  1
  O2-  O222  1  0.17800778  -0.11207918  0.75793938  1
  O2-  O223  1  0.23377194  0.39961573  -0.11615687  1
  O2-  O224  1  0.17585509  0.57182216  0.23430755  1
  O2-  O225  1  0.26108850  0.64300711  0.62733487  1
  O2-  O226  1  0.24376863  0.61073147  0.83094931  1
  O2-  O227  1  0.50737806  -0.14280290  0.12206915  1
  O2-  O228  1  0.52115759  -0.15403966  0.36477310  1
  O2-  O229  1  0.51815848  0.00718127  0.37630939  1
  O2-  O230  1  0.50135795  -0.12532684  0.87384209  1
  O2-  O231  1  0.49541824  0.48954224  0.13293843  1
  O2-  O232  1  0.50966935  0.64993041  0.12655033  1
  O2-  O233  1  0.51281745  0.66364077  0.35655009  1
  O2-  O234  1  0.49819262  0.56605514  0.66394939  1
  O2-  O235  1  0.72586271  0.18942925  -0.12276877  1
  O2-  O236  1  0.76732330  0.11405177  0.24890719  1
  O2-  O237  1  0.75002136  -0.14255127  0.38791041  1
  O2-  O238  1  0.78091384  -0.00473139  0.86835476  1
  O2-  O239  1  0.73596184  0.37748198  -0.10766015  1
  O2-  O240  1  0.78904851  0.39059883  0.24169696  1
  O2-  O241  1  0.75775605  0.66402515  0.62357044  1
  O2-  O242  1  0.75445448  0.64810056  0.86680197  1
