# generated using pymatgen
data_Gd19Ta56(WO20)8
_symmetry_space_group_name_H-M   'P 1'
_cell_length_a   15.47802463
_cell_length_b   15.43428025
_cell_length_c   15.20524044
_cell_angle_alpha   89.95037316
_cell_angle_beta   89.92517267
_cell_angle_gamma   90.27199759
_symmetry_Int_Tables_number   1
_chemical_formula_structural   Gd19Ta56(WO20)8
_chemical_formula_sum   'Gd19 Ta56 W8 O160'
_cell_volume   3632.36747181
_cell_formula_units_Z   1
loop_
 _symmetry_equiv_pos_site_id
 _symmetry_equiv_pos_as_xyz
  1  'x, y, z'
loop_
 _atom_type_symbol
 _atom_type_oxidation_number
  Gd3+  3.0
  Ta5+  5.0
  W6+  6.0
  O2-  -2.0
loop_
 _atom_site_type_symbol
 _atom_site_label
 _atom_site_symmetry_multiplicity
 _atom_site_fract_x
 _atom_site_fract_y
 _atom_site_fract_z
 _atom_site_occupancy
  Gd3+  Gd0  1  -0.00024345  0.73160841  0.03104551  1
  Gd3+  Gd1  1  0.74865898  0.25379635  0.01279630  1
  Gd3+  Gd2  1  0.76327071  0.77046095  0.75378007  1
  Gd3+  Gd3  1  0.48071330  0.77546126  -0.01292742  1
  Gd3+  Gd4  1  0.02210398  0.75118775  0.47836393  1
  Gd3+  Gd5  1  0.48452834  0.28730649  0.48281597  1
  Gd3+  Gd6  1  0.27761274  0.74358177  0.24064932  1
  Gd3+  Gd7  1  0.71963171  0.76060994  -0.00259732  1
  Gd3+  Gd8  1  0.72876364  0.24875040  0.50736941  1
  Gd3+  Gd9  1  0.02025427  0.23167870  -0.01195242  1
  Gd3+  Gd10  1  0.28501377  0.26677910  0.26287479  1
  Gd3+  Gd11  1  0.74136124  0.25373504  0.75951246  1
  Gd3+  Gd12  1  0.48740688  0.26535949  0.74930060  1
  Gd3+  Gd13  1  0.23751242  0.21628863  0.74984629  1
  Gd3+  Gd14  1  0.25395437  0.22319128  -0.02579099  1
  Gd3+  Gd15  1  0.02049403  0.24081364  0.25273332  1
  Gd3+  Gd16  1  0.29105048  0.77012392  0.46302819  1
  Gd3+  Gd17  1  0.74661883  0.72189546  0.49465687  1
  Gd3+  Gd18  1  0.01102159  0.23694070  0.74980817  1
  Ta5+  Ta19  1  0.13982181  0.38043095  0.64248008  1
  Ta5+  Ta20  1  0.37379792  0.89305600  0.62121954  1
  Ta5+  Ta21  1  0.60440428  0.63130497  0.87664750  1
  Ta5+  Ta22  1  0.13016270  0.36816725  0.39535936  1
  Ta5+  Ta23  1  0.12760028  0.03968887  0.86885313  1
  Ta5+  Ta24  1  0.37817355  0.88548042  0.13120666  1
  Ta5+  Ta25  1  0.64739048  0.39871108  0.37267424  1
  Ta5+  Ta26  1  0.38316656  0.13016338  0.60546648  1
  Ta5+  Ta27  1  0.60986364  0.87889498  0.37531365  1
  Ta5+  Ta28  1  0.85304372  0.08887544  0.62769246  1
  Ta5+  Ta29  1  0.16795586  0.82782885  0.62836484  1
  Ta5+  Ta30  1  0.12757874  0.82794956  0.87430983  1
  Ta5+  Ta31  1  0.89555648  0.61381089  0.36893283  1
  Ta5+  Ta32  1  0.17333888  0.61919694  0.10179740  1
  Ta5+  Ta33  1  0.87841896  0.10972466  0.13178035  1
  Ta5+  Ta34  1  0.62606435  0.39724147  0.62976099  1
  Ta5+  Ta35  1  0.60829410  0.12510530  0.88872176  1
  Ta5+  Ta36  1  0.89962906  0.61234851  0.66787370  1
  Ta5+  Ta37  1  0.44241594  0.88356474  0.34492649  1
  Ta5+  Ta38  1  0.32898124  0.64792761  0.87602001  1
  Ta5+  Ta39  1  0.32119669  0.87174714  0.87288261  1
  Ta5+  Ta40  1  0.60855984  0.88620201  0.15051364  1
  Ta5+  Ta41  1  0.35771719  0.64842215  0.63203583  1
  Ta5+  Ta42  1  0.33725868  0.39607472  0.86362003  1
  Ta5+  Ta43  1  0.35461444  0.44256153  0.36358054  1
  Ta5+  Ta44  1  0.86779543  0.13218363  0.38281153  1
  Ta5+  Ta45  1  0.59852241  0.92193318  0.87772501  1
  Ta5+  Ta46  1  0.17396044  0.86480566  0.10635429  1
  Ta5+  Ta47  1  0.60843326  0.88012857  0.62919575  1
  Ta5+  Ta48  1  0.08195202  0.59140450  0.60777354  1
  Ta5+  Ta49  1  0.12478759  0.37280254  0.10852959  1
  Ta5+  Ta50  1  0.85138839  0.86625592  0.13029370  1
  Ta5+  Ta51  1  0.14717313  0.59834332  0.36000753  1
  Ta5+  Ta52  1  0.62624365  0.13536963  0.14511043  1
  Ta5+  Ta53  1  0.56631399  0.63288308  0.13085220  1
  Ta5+  Ta54  1  0.15673759  0.03403054  0.62456360  1
  Ta5+  Ta55  1  0.87720181  0.11237894  0.87245211  1
  Ta5+  Ta56  1  0.37431856  0.40371717  0.61866903  1
  Ta5+  Ta57  1  0.87426699  0.41248159  0.63494197  1
  Ta5+  Ta58  1  0.14293375  0.87059573  0.35861995  1
  Ta5+  Ta59  1  0.41112433  0.63108872  0.36773188  1
  Ta5+  Ta60  1  0.39493727  0.38514017  0.10101947  1
  Ta5+  Ta61  1  0.13301545  0.10284652  0.11859076  1
  Ta5+  Ta62  1  0.60035500  0.63917652  0.63890898  1
  Ta5+  Ta63  1  0.57919544  0.63576617  0.37671841  1
  Ta5+  Ta64  1  0.63931407  0.39720233  0.13254566  1
  Ta5+  Ta65  1  0.88715083  0.39361186  0.13658381  1
  Ta5+  Ta66  1  0.39530730  0.10330247  0.86631299  1
  Ta5+  Ta67  1  0.85317747  0.61578773  0.12057273  1
  Ta5+  Ta68  1  0.94007195  0.92392479  0.63694684  1
  Ta5+  Ta69  1  0.39642791  0.62449356  0.11931237  1
  Ta5+  Ta70  1  0.37831548  0.12368012  0.11781173  1
  Ta5+  Ta71  1  0.83357196  0.55572671  0.89084576  1
  Ta5+  Ta72  1  0.89037662  0.37515249  0.38601964  1
  Ta5+  Ta73  1  0.13056690  0.39648407  0.86690047  1
  Ta5+  Ta74  1  0.61523816  0.12435343  0.62520618  1
  W6+  W75  1  0.61469528  0.12977970  0.36869149  1
  W6+  W76  1  0.08164548  0.64099468  0.85790124  1
  W6+  W77  1  0.41764221  0.13158460  0.36079825  1
  W6+  W78  1  0.88667142  0.87841633  0.38501802  1
  W6+  W79  1  0.91994151  0.87436837  0.87964920  1
  W6+  W80  1  0.63231972  0.39308795  0.88390369  1
  W6+  W81  1  0.88120071  0.37030138  0.88079444  1
  W6+  W82  1  0.13544309  0.10685672  0.38209308  1
  O2-  O83  1  0.11957340  -0.01603211  0.12326065  1
  O2-  O84  1  0.18493358  -0.01893564  0.36621350  1
  O2-  O85  1  0.24151885  -0.05802417  0.60747307  1
  O2-  O86  1  0.04462925  -0.05244805  0.86546234  1
  O2-  O87  1  0.15893803  0.48737792  0.10625091  1
  O2-  O88  1  0.10620813  0.47755116  0.34524034  1
  O2-  O89  1  0.15618685  0.50540872  0.65602068  1
  O2-  O90  1  0.13151517  0.51427516  0.85894978  1
  O2-  O91  1  0.41301857  0.01008646  0.11696104  1
  O2-  O92  1  0.43402316  0.00198437  0.35846493  1
  O2-  O93  1  0.40916064  0.00993103  0.61486094  1
  O2-  O94  1  0.36991954  -0.01176819  0.88147642  1
  O2-  O95  1  0.36490920  0.50135392  0.09655014  1
  O2-  O96  1  0.27851776  0.53824801  0.37175977  1
  O2-  O97  1  0.35798732  0.52304897  0.62960041  1
  O2-  O98  1  0.33471961  0.51805882  0.86808347  1
  O2-  O99  1  0.61878062  0.00870536  0.15182181  1
  O2-  O100  1  0.62564990  -0.00236751  0.36214513  1
  O2-  O101  1  0.60034809  0.00409297  0.64070486  1
  O2-  O102  1  0.67903609  0.01488015  0.88468689  1
  O2-  O103  1  0.62064130  0.51813611  0.12813712  1
  O2-  O104  1  0.63125573  0.51708009  0.37363966  1
  O2-  O105  1  0.62677122  0.51697327  0.65663362  1
  O2-  O106  1  0.58026314  0.51640106  0.85609388  1
  O2-  O107  1  0.88490300  -0.00776620  0.12910189  1
  O2-  O108  1  0.88651047  0.01501152  0.38396495  1
  O2-  O109  1  0.81763859  -0.02792460  0.62164089  1
  O2-  O110  1  0.85939062  -0.00453105  0.86775101  1
  O2-  O111  1  0.92478872  0.50525157  0.11663142  1
  O2-  O112  1  0.92975909  0.49125020  0.39113089  1
  O2-  O113  1  0.81375719  0.51952350  0.64601521  1
  O2-  O114  1  0.93767610  0.49715356  0.87775736  1
  O2-  O115  1  0.14478005  0.24343171  0.07461568  1
  O2-  O116  1  0.09694705  0.25056210  0.38362967  1
  O2-  O117  1  0.12272522  0.25413549  0.65823573  1
  O2-  O118  1  0.12283725  0.25433561  0.86156838  1
  O2-  O119  1  0.20841019  0.74142694  0.09979805  1
  O2-  O120  1  0.18161593  0.73232268  0.36472971  1
  O2-  O121  1  0.12130240  0.71295673  0.60840497  1
  O2-  O122  1  0.00945599  0.76352857  0.88103436  1
  O2-  O123  1  0.33819435  0.26759512  0.11470896  1
  O2-  O124  1  0.40075077  0.26799752  0.36219232  1
  O2-  O125  1  0.39722414  0.26126406  0.61974074  1
  O2-  O126  1  0.34292730  0.26061156  0.84772965  1
  O2-  O127  1  0.39130132  0.75698327  0.13259091  1
  O2-  O128  1  0.39097546  0.75941172  0.34871440  1
  O2-  O129  1  0.29617346  0.77329662  0.61322368  1
  O2-  O130  1  0.38738156  0.76534913  0.86286166  1
  O2-  O131  1  0.65128468  0.26127013  0.12668977  1
  O2-  O132  1  0.61077366  0.27361889  0.40554099  1
  O2-  O133  1  0.59625145  0.25666265  0.60192917  1
  O2-  O134  1  0.66217459  0.24984533  0.89291804  1
  O2-  O135  1  0.59560045  0.76372935  0.10072390  1
  O2-  O136  1  0.63212350  0.74768616  0.39862362  1
  O2-  O137  1  0.65920405  0.75602962  0.62318492  1
  O2-  O138  1  0.60358260  0.77717613  0.89466435  1
  O2-  O139  1  1.00757191  0.14462513  0.11883186  1
  O2-  O140  1  0.92584926  0.25310036  0.38720880  1
  O2-  O141  1  0.75070982  0.35196854  0.64280900  1
  O2-  O142  1  0.83149213  0.23624510  0.87784390  1
  O2-  O143  1  0.82573465  0.73694239  0.11647959  1
  O2-  O144  1  0.88542313  0.73870361  0.40813817  1
  O2-  O145  1  0.82763611  0.70456250  0.62968610  1
  O2-  O146  1  0.80094966  0.80651328  0.88892762  1
  O2-  O147  1  0.11776200  0.09903390  -0.01945612  1
  O2-  O148  1  0.14132814  0.14440272  0.23812200  1
  O2-  O149  1  0.11941544  0.07635180  0.52100857  1
  O2-  O150  1  0.12583813  0.08124494  0.74237122  1
  O2-  O151  1  0.10926143  0.63635100  -0.00412166  1
  O2-  O152  1  0.17146343  0.61866708  0.23443305  1
  O2-  O153  1  0.13417790  0.58869221  0.49163803  1
  O2-  O154  1  0.01462387  0.62690660  0.72263826  1
  O2-  O155  1  0.38304520  0.14494163  -0.01247519  1
  O2-  O156  1  0.35136573  0.13772399  0.23968758  1
  O2-  O157  1  0.44781766  0.14446242  0.49890865  1
  O2-  O158  1  0.39871292  0.13447062  0.73963094  1
  O2-  O159  1  0.37493724  0.65294468  -0.00813497  1
  O2-  O160  1  0.36821700  0.61911346  0.24534213  1
  O2-  O161  1  0.36710482  0.64984707  0.50024379  1
  O2-  O162  1  0.30978211  0.65464824  0.74455824  1
  O2-  O163  1  0.61064005  0.12829516  0.01440192  1
  O2-  O164  1  0.55823242  0.15456498  0.24485902  1
  O2-  O165  1  0.65025729  0.12129321  0.50351444  1
  O2-  O166  1  0.61776626  0.15582084  0.75371618  1
  O2-  O167  1  0.55557008  0.63800479  -0.00691408  1
  O2-  O168  1  0.58753752  0.65184153  0.25314262  1
  O2-  O169  1  0.62105922  0.62839411  0.51590535  1
  O2-  O170  1  0.65314117  0.66223720  0.75655469  1
  O2-  O171  1  0.88153237  0.13838087  0.00437911  1
  O2-  O172  1  0.89980522  0.14601145  0.25324717  1
  O2-  O173  1  0.85846942  0.14504474  0.51476552  1
  O2-  O174  1  0.87512549  0.14950420  0.74115411  1
  O2-  O175  1  0.88141830  0.62817197  -0.00937022  1
  O2-  O176  1  0.85890260  0.61121113  0.25288544  1
  O2-  O177  1  0.80037780  0.59813625  0.44313793  1
  O2-  O178  1  0.84459752  0.63186841  0.78759383  1
  O2-  O179  1  0.07160733  0.37635773  -0.01787071  1
  O2-  O180  1  0.14581306  0.33946197  0.23328349  1
  O2-  O181  1  0.10489072  0.38290395  0.51833896  1
  O2-  O182  1  0.06644155  0.37987004  0.75202650  1
  O2-  O183  1  0.10715493  0.84156021  0.00453461  1
  O2-  O184  1  0.15755070  0.85017030  0.23427454  1
  O2-  O185  1  0.15516175  0.84120311  0.49170934  1
  O2-  O186  1  0.15968211  0.81498367  0.75111765  1
  O2-  O187  1  0.40069660  0.37419691  -0.02713651  1
  O2-  O188  1  0.35768675  0.39671450  0.24245344  1
  O2-  O189  1  0.38208193  0.40336372  0.48655809  1
  O2-  O190  1  0.40304759  0.39011119  0.74855353  1
  O2-  O191  1  0.35397223  0.86846621  0.00282719  1
  O2-  O192  1  0.33590075  0.88572896  0.25209576  1
  O2-  O193  1  0.38600367  0.87489982  0.48856338  1
  O2-  O194  1  0.34260546  0.88562490  0.74245781  1
  O2-  O195  1  0.67918455  0.38684548  0.01171004  1
  O2-  O196  1  0.61265178  0.37728835  0.25787146  1
  O2-  O197  1  0.65952662  0.39739314  0.50782957  1
  O2-  O198  1  0.61156617  0.35100149  0.75073289  1
  O2-  O199  1  0.57178936  0.90654423  0.00002198  1
  O2-  O200  1  0.65991155  0.85263312  0.25644875  1
  O2-  O201  1  0.64280969  0.88065030  0.50898625  1
  O2-  O202  1  0.64920506  0.87740255  0.75544003  1
  O2-  O203  1  0.87058566  0.33955986  0.02228150  1
  O2-  O204  1  0.91957751  0.36527743  0.26060135  1
  O2-  O205  1  0.87564743  0.36604777  0.51838114  1
  O2-  O206  1  0.89621321  0.34066303  0.73478430  1
  O2-  O207  1  0.92357666  0.85623087  0.02511791  1
  O2-  O208  1  0.87055478  0.85885835  0.24918589  1
  O2-  O209  1  0.93637724  0.86740106  0.52766035  1
  O2-  O210  1  0.90615714  0.85851391  0.73551222  1
  O2-  O211  1  0.00164197  0.13124683  -0.13763987  1
  O2-  O212  1  0.02318098  -0.14277049  0.36763301  1
  O2-  O213  1  0.07846335  -0.07622531  0.63738929  1
  O2-  O214  1  -0.02665268  0.05074957  0.63620333  1
  O2-  O215  1  0.00296511  0.32526964  0.12627028  1
  O2-  O216  1  0.02486298  0.64304214  0.36669094  1
  O2-  O217  1  -0.03257793  0.63494707  0.55614923  1
  O2-  O218  1  -0.02449064  0.48745862  0.62787205  1
  O2-  O219  1  0.20624597  -0.05677595  -0.12083940  1
  O2-  O220  1  0.25423927  0.10945696  0.09258758  1
  O2-  O221  1  0.25830315  0.11895343  0.63195539  1
  O2-  O222  1  0.25453005  0.11638567  0.86148335  1
  O2-  O223  1  0.23585072  0.37172588  -0.05425863  1
  O2-  O224  1  0.24888819  0.35873833  0.38527262  1
  O2-  O225  1  0.25808324  0.35938794  0.61368846  1
  O2-  O226  1  0.22940373  0.37347801  0.77949777  1
  O2-  O227  1  0.49783197  0.18759589  -0.12538848  1
  O2-  O228  1  0.49434689  -0.12230564  0.21309528  1
  O2-  O229  1  0.49148898  -0.15197279  0.63747532  1
  O2-  O230  1  0.52255348  0.02647169  0.85614390  1
  O2-  O231  1  0.51213261  0.37608668  0.11551578  1
  O2-  O232  1  0.45959835  0.50687843  0.36196492  1
  O2-  O233  1  0.48120928  0.65662400  0.65250326  1
  O2-  O234  1  0.50314163  0.39673388  0.60433369  1
  O2-  O235  1  0.73439571  -0.11941436  0.09199799  1
  O2-  O236  1  0.75776097  0.12994378  0.13722704  1
  O2-  O237  1  0.75447068  0.17170300  0.37000976  1
  O2-  O238  1  0.74371280  0.16372988  0.63849386  1
  O2-  O239  1  0.72094222  0.62696338  -0.07707326  1
  O2-  O240  1  0.76864939  0.40024280  0.16437434  1
  O2-  O241  1  0.77024638  0.38010532  0.36785382  1
  O2-  O242  1  0.76290320  0.45666992  0.85920897  1
