# generated using pymatgen
data_Gd19Ta56(WO20)8
_symmetry_space_group_name_H-M   'P 1'
_cell_length_a   15.54829571
_cell_length_b   15.52234148
_cell_length_c   15.33155684
_cell_angle_alpha   90.00337816
_cell_angle_beta   90.16559377
_cell_angle_gamma   90.08101055
_symmetry_Int_Tables_number   1
_chemical_formula_structural   Gd19Ta56(WO20)8
_chemical_formula_sum   'Gd19 Ta56 W8 O160'
_cell_volume   3700.19007610
_cell_formula_units_Z   1
loop_
 _symmetry_equiv_pos_site_id
 _symmetry_equiv_pos_as_xyz
  1  'x, y, z'
loop_
 _atom_type_symbol
 _atom_type_oxidation_number
  Gd3+  3.0
  Ta5+  5.0
  W6+  6.0
  O2-  -2.0
loop_
 _atom_site_type_symbol
 _atom_site_label
 _atom_site_symmetry_multiplicity
 _atom_site_fract_x
 _atom_site_fract_y
 _atom_site_fract_z
 _atom_site_occupancy
  Gd3+  Gd0  1  0.27342831  0.26196733  0.00677805  1
  Gd3+  Gd1  1  0.49730351  0.76303722  0.26319551  1
  Gd3+  Gd2  1  0.26045145  0.25487977  0.74964200  1
  Gd3+  Gd3  1  0.48297512  0.75168352  -0.00930354  1
  Gd3+  Gd4  1  0.73456062  0.71876001  0.01842655  1
  Gd3+  Gd5  1  -0.02055588  0.22735923  0.48762139  1
  Gd3+  Gd6  1  0.27115620  0.27108273  0.24874773  1
  Gd3+  Gd7  1  0.76886233  0.25047951  -0.01499920  1
  Gd3+  Gd8  1  0.00683496  0.73686345  -0.00008445  1
  Gd3+  Gd9  1  0.50363777  0.76780475  0.71398963  1
  Gd3+  Gd10  1  0.26148943  0.75991108  0.25986921  1
  Gd3+  Gd11  1  0.00882604  0.77884741  0.25746828  1
  Gd3+  Gd12  1  0.74782677  0.73665072  0.26553037  1
  Gd3+  Gd13  1  0.52321888  0.24906740  0.00303996  1
  Gd3+  Gd14  1  0.23690342  0.75061084  0.01420292  1
  Gd3+  Gd15  1  -0.02555010  0.76064443  0.49428451  1
  Gd3+  Gd16  1  0.51779837  0.25432908  0.25079773  1
  Gd3+  Gd17  1  -0.01030411  0.74055092  0.73729567  1
  Gd3+  Gd18  1  0.70447329  0.74052412  0.48051805  1
  Ta5+  Ta19  1  0.65419065  0.14317315  0.38252688  1
  Ta5+  Ta20  1  0.62756194  0.88217723  0.10584044  1
  Ta5+  Ta21  1  0.41146801  0.40808259  0.37801301  1
  Ta5+  Ta22  1  0.12897496  0.61460876  0.60844996  1
  Ta5+  Ta23  1  0.63163672  0.11688169  0.87442133  1
  Ta5+  Ta24  1  0.36461033  0.62484218  0.82212651  1
  Ta5+  Ta25  1  0.89435245  0.12448064  0.87303712  1
  Ta5+  Ta26  1  0.11360149  0.61612304  0.14248519  1
  Ta5+  Ta27  1  0.35639575  0.88992929  0.61229207  1
  Ta5+  Ta28  1  0.63364253  0.87159685  0.88248063  1
  Ta5+  Ta29  1  0.60184528  0.57220998  0.37484746  1
  Ta5+  Ta30  1  0.83175432  0.87738324  0.63301740  1
  Ta5+  Ta31  1  0.86709447  0.87303390  0.12484734  1
  Ta5+  Ta32  1  0.07900261  0.58464823  0.36282161  1
  Ta5+  Ta33  1  0.85472564  0.11782150  0.62858806  1
  Ta5+  Ta34  1  0.63585603  0.37739991  0.86720257  1
  Ta5+  Ta35  1  0.12989489  0.87239940  0.61980743  1
  Ta5+  Ta36  1  0.86517470  0.61788442  0.87755813  1
  Ta5+  Ta37  1  0.16184456  0.15252972  0.38478059  1
  Ta5+  Ta38  1  0.61640599  0.89811653  0.37408499  1
  Ta5+  Ta39  1  0.61720679  0.61597866  0.86913007  1
  Ta5+  Ta40  1  0.86181905  0.59597473  0.38549415  1
  Ta5+  Ta41  1  0.66411100  0.12631827  0.13085569  1
  Ta5+  Ta42  1  0.13236599  0.87357782  0.85854532  1
  Ta5+  Ta43  1  0.35877961  0.62930120  0.61114635  1
  Ta5+  Ta44  1  0.12869049  0.34824176  0.38203020  1
  Ta5+  Ta45  1  0.40626904  0.09846829  0.12940982  1
  Ta5+  Ta46  1  0.90513358  0.60919162  0.14072151  1
  Ta5+  Ta47  1  0.15985844  0.62620046  0.85157256  1
  Ta5+  Ta48  1  0.35647029  0.59447731  0.12906390  1
  Ta5+  Ta49  1  0.83774437  0.36076211  0.38161839  1
  Ta5+  Ta50  1  0.66823350  0.37153669  0.12848141  1
  Ta5+  Ta51  1  0.66458397  0.88809623  0.63090072  1
  Ta5+  Ta52  1  0.34770752  0.91496725  0.10762023  1
  Ta5+  Ta53  1  0.38412995  0.12235762  0.87653655  1
  Ta5+  Ta54  1  0.13131769  0.37977600  0.87921541  1
  Ta5+  Ta55  1  0.18003907  0.90504749  0.40004787  1
  Ta5+  Ta56  1  0.10750810  0.92814055  0.10535781  1
  Ta5+  Ta57  1  0.41823751  0.40679503  0.12502418  1
  Ta5+  Ta58  1  0.37588679  0.13536141  0.62148187  1
  Ta5+  Ta59  1  0.83950964  0.37238503  0.13982463  1
  Ta5+  Ta60  1  0.83459754  0.12074745  0.13312605  1
  Ta5+  Ta61  1  0.64867283  0.36469921  0.63179135  1
  Ta5+  Ta62  1  0.38023889  0.38621730  0.62357494  1
  Ta5+  Ta63  1  0.86240177  0.87485779  0.87109361  1
  Ta5+  Ta64  1  0.82192636  0.13914102  0.37372282  1
  Ta5+  Ta65  1  0.39754626  0.38716001  0.86517757  1
  Ta5+  Ta66  1  0.38118378  0.90011580  0.40259089  1
  Ta5+  Ta67  1  0.61673556  0.61306991  0.62232066  1
  Ta5+  Ta68  1  0.59708424  0.60316172  0.13202438  1
  Ta5+  Ta69  1  0.85461063  0.89381798  0.38292837  1
  Ta5+  Ta70  1  0.12857590  0.36915188  0.12875681  1
  Ta5+  Ta71  1  0.67261636  0.33682583  0.38070193  1
  Ta5+  Ta72  1  0.35693272  0.14857369  0.38268944  1
  Ta5+  Ta73  1  0.85600970  0.60637102  0.62340727  1
  Ta5+  Ta74  1  0.13480135  0.36654467  0.61833532  1
  W6+  W75  1  0.14389577  0.12424645  0.88162376  1
  W6+  W76  1  0.63915197  0.13725420  0.63306756  1
  W6+  W77  1  0.37441908  0.61372318  0.37661962  1
  W6+  W78  1  0.38362149  0.88334367  0.85787855  1
  W6+  W79  1  0.88193331  0.35586934  0.63294114  1
  W6+  W80  1  0.15626803  0.12279722  0.62006908  1
  W6+  W81  1  0.88903858  0.37872102  0.87746090  1
  W6+  W82  1  0.15199691  0.11284345  0.13116637  1
  O2-  O83  1  0.13105668  -0.00627331  0.20205144  1
  O2-  O84  1  0.16274246  0.02154243  0.39265421  1
  O2-  O85  1  0.12722858  -0.01109851  0.61396398  1
  O2-  O86  1  0.12814508  -0.01026246  0.86408056  1
  O2-  O87  1  0.12537564  0.49462902  0.13379979  1
  O2-  O88  1  0.12960231  0.47477735  0.38141602  1
  O2-  O89  1  0.13807754  0.49423559  0.61459239  1
  O2-  O90  1  0.14932698  0.50593955  0.86994289  1
  O2-  O91  1  0.29665014  0.03126934  0.11705561  1
  O2-  O92  1  0.37514798  0.02198540  0.39324965  1
  O2-  O93  1  0.34231825  0.01168404  0.60971998  1
  O2-  O94  1  0.35117595  0.00999800  0.89504194  1
  O2-  O95  1  0.31181180  0.48234952  0.12089220  1
  O2-  O96  1  0.32282131  0.48459208  0.36245464  1
  O2-  O97  1  0.34535903  0.50612610  0.62251431  1
  O2-  O98  1  0.39703556  0.51868229  0.86999598  1
  O2-  O99  1  0.64404162  -0.00203556  0.11953473  1
  O2-  O100  1  0.63756536  0.01537777  0.36303457  1
  O2-  O101  1  0.66073580  0.00578431  0.63675987  1
  O2-  O102  1  0.63074928  -0.00743064  0.87232414  1
  O2-  O103  1  0.64097504  0.49445418  0.14910955  1
  O2-  O104  1  0.64107850  0.46230242  0.37234558  1
  O2-  O105  1  0.62234825  0.49277565  0.63481415  1
  O2-  O106  1  0.59879168  0.49860584  0.85573255  1
  O2-  O107  1  0.84250498  -0.01194176  0.11528427  1
  O2-  O108  1  0.84563138  0.01043638  0.38682178  1
  O2-  O109  1  0.86534550  -0.00337898  0.61862093  1
  O2-  O110  1  0.86719603  -0.00708168  0.88497364  1
  O2-  O111  1  0.85187535  0.50357512  0.12770304  1
  O2-  O112  1  0.81500978  0.48819301  0.41020348  1
  O2-  O113  1  0.85182247  0.48940063  0.62284483  1
  O2-  O114  1  0.91741972  0.51399517  0.88963960  1
  O2-  O115  1  0.18088766  0.25251430  0.12285722  1
  O2-  O116  1  0.06691971  0.24242550  0.36096242  1
  O2-  O117  1  0.18682802  0.25580577  0.61677095  1
  O2-  O118  1  0.18325936  0.26239062  0.88046596  1
  O2-  O119  1  0.09467628  0.74463832  0.13017446  1
  O2-  O120  1  0.00948386  0.69371628  0.37301015  1
  O2-  O121  1  0.07354613  0.73960165  0.61189259  1
  O2-  O122  1  0.09373853  0.73863231  0.85181676  1
  O2-  O123  1  0.35860705  0.29692982  0.13591399  1
  O2-  O124  1  0.38727995  0.27694427  0.35458503  1
  O2-  O125  1  0.37879768  0.26189057  0.64474036  1
  O2-  O126  1  0.36347837  0.25603072  0.87070125  1
  O2-  O127  1  0.22515419  0.86869079  0.11264366  1
  O2-  O128  1  0.37658479  0.76291477  0.36513594  1
  O2-  O129  1  0.38507149  0.75697011  0.62371074  1
  O2-  O130  1  0.42141657  0.73952154  0.84543883  1
  O2-  O131  1  0.65435689  0.24867412  0.08710386  1
  O2-  O132  1  0.57536793  0.24997483  0.38527798  1
  O2-  O133  1  0.59084911  0.26232768  0.65015724  1
  O2-  O134  1  0.63809674  0.25001928  0.89907701  1
  O2-  O135  1  0.56042863  0.74230468  0.11690265  1
  O2-  O136  1  0.60503662  0.76124276  0.37142574  1
  O2-  O137  1  0.60999509  0.75197301  0.60736291  1
  O2-  O138  1  0.60107679  0.74457974  0.89630467  1
  O2-  O139  1  0.84006896  0.24704632  0.13402273  1
  O2-  O140  1  0.88894347  0.24389026  0.36607046  1
  O2-  O141  1  0.92453551  0.22480854  0.63196123  1
  O2-  O142  1  0.85913642  0.24442247  0.86833805  1
  O2-  O143  1  0.90621678  0.73913541  0.13249785  1
  O2-  O144  1  0.83882176  0.73148570  0.40198454  1
  O2-  O145  1  0.88500880  0.74871605  0.62264525  1
  O2-  O146  1  0.91665907  0.73694137  0.87293488  1
  O2-  O147  1  0.19774275  0.13769062  0.00042331  1
  O2-  O148  1  0.18451661  0.15303380  0.25999192  1
  O2-  O149  1  0.10453360  0.14745074  0.50157280  1
  O2-  O150  1  0.17374635  0.13368321  0.75145987  1
  O2-  O151  1  0.13553540  0.64795137  -0.01883477  1
  O2-  O152  1  0.15958742  0.63139858  0.27401458  1
  O2-  O153  1  0.09962253  0.61314462  0.48619495  1
  O2-  O154  1  0.09350669  0.62200325  0.73529347  1
  O2-  O155  1  0.38985520  0.15617489  0.01329613  1
  O2-  O156  1  0.38344658  0.14088015  0.24281578  1
  O2-  O157  1  0.35437201  0.16724670  0.50242796  1
  O2-  O158  1  0.37580450  0.12348892  0.75265935  1
  O2-  O159  1  0.37211840  0.66946677  0.03333931  1
  O2-  O160  1  0.37598033  0.64642721  0.23835882  1
  O2-  O161  1  0.41067744  0.62204768  0.50622109  1
  O2-  O162  1  0.43609919  0.62563672  0.71670081  1
  O2-  O163  1  0.67993869  0.11505031  -0.01002466  1
  O2-  O164  1  0.63060090  0.15217659  0.24838371  1
  O2-  O165  1  0.64806928  0.13669492  0.50510044  1
  O2-  O166  1  0.67030271  0.13894178  0.76311947  1
  O2-  O167  1  0.60960114  0.61517736  0.00352862  1
  O2-  O168  1  0.57089749  0.62539772  0.25933038  1
  O2-  O169  1  0.59806120  0.61477302  0.49315079  1
  O2-  O170  1  0.60948924  0.64342189  0.74547071  1
  O2-  O171  1  0.86327779  0.13077729  -0.00110137  1
  O2-  O172  1  0.85324519  0.11546423  0.25256013  1
  O2-  O173  1  0.84158765  0.14128544  0.50464462  1
  O2-  O174  1  0.85182484  0.11076953  0.75666098  1
  O2-  O175  1  0.85669594  0.64156151  0.00625094  1
  O2-  O176  1  0.85277991  0.63014904  0.26011081  1
  O2-  O177  1  0.90853600  0.61886496  0.50873300  1
  O2-  O178  1  0.88747547  0.62418690  0.74670158  1
  O2-  O179  1  0.17352846  0.38009315  0.00369792  1
  O2-  O180  1  0.14326686  0.35766790  0.25085815  1
  O2-  O181  1  0.08259835  0.34882025  0.50601721  1
  O2-  O182  1  0.14166927  0.36752573  0.75042646  1
  O2-  O183  1  0.10503406  0.84871869  -0.01729309  1
  O2-  O184  1  0.13677029  0.82552102  0.31289419  1
  O2-  O185  1  0.10985795  0.85101322  0.49495206  1
  O2-  O186  1  0.08088590  0.86234449  0.73871155  1
  O2-  O187  1  0.39444062  0.38197502  -0.00814347  1
  O2-  O188  1  0.44657593  0.39988150  0.25056924  1
  O2-  O189  1  0.41231165  0.38447097  0.50212145  1
  O2-  O190  1  0.33663286  0.38900291  0.75422657  1
  O2-  O191  1  0.36409110  0.85185748  0.00104302  1
  O2-  O192  1  0.37861478  0.82386982  0.18374554  1
  O2-  O193  1  0.43686204  0.88648633  0.51706143  1
  O2-  O194  1  0.41588441  0.89232344  0.72179339  1
  O2-  O195  1  0.67122683  0.39205967  -0.01310094  1
  O2-  O196  1  0.64312441  0.33695975  0.24890799  1
  O2-  O197  1  0.67249891  0.35438348  0.51393522  1
  O2-  O198  1  0.69444733  0.37148484  0.75913391  1
  O2-  O199  1  0.54893558  0.88164086  0.00147164  1
  O2-  O200  1  0.60426356  0.86393870  0.22870180  1
  O2-  O201  1  0.63968655  0.88257240  0.49685032  1
  O2-  O202  1  0.61562559  0.85894578  0.75368590  1
  O2-  O203  1  0.85862865  0.36741063  0.00858278  1
  O2-  O204  1  0.86484736  0.38002648  0.26184800  1
  O2-  O205  1  0.89128999  0.34848763  0.50263092  1
  O2-  O206  1  0.91242645  0.37860630  0.74884640  1
  O2-  O207  1  0.88864527  0.84684880  -0.00204440  1
  O2-  O208  1  0.87191204  0.85201803  0.25439548  1
  O2-  O209  1  0.82499510  0.86487778  0.50248503  1
  O2-  O210  1  0.90033767  0.86588992  0.75227504  1
  O2-  O211  1  0.08224631  0.02364350  0.04046949  1
  O2-  O212  1  -0.00458417  -0.11324347  0.13870930  1
  O2-  O213  1  -0.02706363  -0.13272231  0.38952069  1
  O2-  O214  1  0.01031361  0.13092067  0.86726323  1
  O2-  O215  1  0.00645765  0.60230811  0.06482574  1
  O2-  O216  1  0.01152875  0.61502465  0.22148751  1
  O2-  O217  1  -0.03312484  0.53322665  0.36132885  1
  O2-  O218  1  0.02093172  0.35940258  0.90179942  1
  O2-  O219  1  0.24707247  -0.15426069  -0.13718577  1
  O2-  O220  1  0.28160849  -0.10275851  0.31923966  1
  O2-  O221  1  0.27459027  -0.11420747  0.48610415  1
  O2-  O222  1  0.24204381  -0.15226469  0.65344086  1
  O2-  O223  1  0.27074539  0.67081548  -0.10401948  1
  O2-  O224  1  0.23828619  0.65582703  0.13097312  1
  O2-  O225  1  0.23925065  0.65739083  0.58974181  1
  O2-  O226  1  0.26368774  0.60462339  0.75377046  1
  O2-  O227  1  0.51914727  0.15703270  0.12112397  1
  O2-  O228  1  0.45250398  -0.01756986  0.13371671  1
  O2-  O229  1  0.49184421  -0.10504378  0.34545869  1
  O2-  O230  1  0.50929400  0.13238627  0.88714161  1
  O2-  O231  1  0.52987957  0.35627240  0.10417650  1
  O2-  O232  1  0.47383842  0.54703456  0.11935555  1
  O2-  O233  1  0.48283696  0.52207738  0.38068097  1
  O2-  O234  1  0.51110989  0.34987818  0.85099217  1
  O2-  O235  1  0.70385950  -0.13868263  -0.00423504  1
  O2-  O236  1  0.74687202  -0.17499271  0.13912352  1
  O2-  O237  1  0.73465707  -0.13715000  0.34560153  1
  O2-  O238  1  0.75262140  -0.16565984  0.84791044  1
  O2-  O239  1  0.71136913  0.65463183  0.14496341  1
  O2-  O240  1  0.71975300  0.62550321  0.37181069  1
  O2-  O241  1  0.74084006  0.63679467  0.59845802  1
  O2-  O242  1  0.74361359  0.63066838  0.87495419  1
