# generated using pymatgen
data_Gd19Ta56(WO20)8
_symmetry_space_group_name_H-M   'P 1'
_cell_length_a   15.55059568
_cell_length_b   15.44513162
_cell_length_c   15.06055527
_cell_angle_alpha   90.10185810
_cell_angle_beta   90.03745434
_cell_angle_gamma   89.78548398
_symmetry_Int_Tables_number   1
_chemical_formula_structural   Gd19Ta56(WO20)8
_chemical_formula_sum   'Gd19 Ta56 W8 O160'
_cell_volume   3617.22735425
_cell_formula_units_Z   1
loop_
 _symmetry_equiv_pos_site_id
 _symmetry_equiv_pos_as_xyz
  1  'x, y, z'
loop_
 _atom_type_symbol
 _atom_type_oxidation_number
  Gd3+  3.0
  Ta5+  5.0
  W6+  6.0
  O2-  -2.0
loop_
 _atom_site_type_symbol
 _atom_site_label
 _atom_site_symmetry_multiplicity
 _atom_site_fract_x
 _atom_site_fract_y
 _atom_site_fract_z
 _atom_site_occupancy
  Gd3+  Gd0  1  0.74628318  0.24979931  0.76253697  1
  Gd3+  Gd1  1  0.49457033  0.73066132  0.47352921  1
  Gd3+  Gd2  1  -0.03836327  0.76355284  0.74513789  1
  Gd3+  Gd3  1  0.82139997  0.78226989  -0.00084945  1
  Gd3+  Gd4  1  0.23534487  0.76470092  0.21477130  1
  Gd3+  Gd5  1  0.48369627  0.25288742  0.48930909  1
  Gd3+  Gd6  1  0.22826365  0.25023977  0.73460787  1
  Gd3+  Gd7  1  0.25416984  0.26643570  0.21397982  1
  Gd3+  Gd8  1  0.76355315  0.24891462  -0.00761574  1
  Gd3+  Gd9  1  0.25027563  0.73079446  0.49675780  1
  Gd3+  Gd10  1  -0.00671317  0.73323560  0.24812998  1
  Gd3+  Gd11  1  0.48007836  0.25308311  -0.00832232  1
  Gd3+  Gd12  1  0.48550043  0.75281976  0.76897993  1
  Gd3+  Gd13  1  0.74978316  0.24219780  0.50507899  1
  Gd3+  Gd14  1  0.00190463  0.75833378  0.49597015  1
  Gd3+  Gd15  1  0.00918050  0.23160157  0.51293710  1
  Gd3+  Gd16  1  0.51211628  0.75953001  0.04896029  1
  Gd3+  Gd17  1  0.52432062  0.25971000  0.25317828  1
  Gd3+  Gd18  1  0.75552438  0.24208614  0.25871794  1
  Ta5+  Ta19  1  0.12948810  0.63731889  0.88842951  1
  Ta5+  Ta20  1  0.36530222  0.12856504  0.86337896  1
  Ta5+  Ta21  1  0.60911564  0.86840059  0.62824402  1
  Ta5+  Ta22  1  0.67396901  0.60883117  0.39778510  1
  Ta5+  Ta23  1  0.41078205  0.11222830  0.11812511  1
  Ta5+  Ta24  1  0.63620373  0.85871876  0.36912274  1
  Ta5+  Ta25  1  0.62164763  0.62922748  0.89981727  1
  Ta5+  Ta26  1  0.07605442  0.12645978  0.86870028  1
  Ta5+  Ta27  1  0.37963176  0.37481025  0.62940748  1
  Ta5+  Ta28  1  0.84857838  0.86604883  0.36879115  1
  Ta5+  Ta29  1  0.88155164  0.37909826  0.63650260  1
  Ta5+  Ta30  1  0.86281080  0.61787362  0.86389880  1
  Ta5+  Ta31  1  0.60779100  0.11527835  0.89938116  1
  Ta5+  Ta32  1  0.89054097  0.38036364  0.37891957  1
  Ta5+  Ta33  1  0.41243838  0.40488922  0.12008707  1
  Ta5+  Ta34  1  0.62860372  0.37867716  0.63692603  1
  Ta5+  Ta35  1  0.66054601  0.40853292  0.37897945  1
  Ta5+  Ta36  1  0.86596428  0.11684570  0.63310475  1
  Ta5+  Ta37  1  0.36241293  0.62398297  0.89441406  1
  Ta5+  Ta38  1  0.89842357  0.37285254  0.12352987  1
  Ta5+  Ta39  1  0.34911189  0.87927021  0.87200651  1
  Ta5+  Ta40  1  0.84550954  0.88585552  0.60058589  1
  Ta5+  Ta41  1  0.59494403  0.38382282  0.89578440  1
  Ta5+  Ta42  1  0.36045235  0.87370041  0.62963517  1
  Ta5+  Ta43  1  0.35252248  0.61898928  0.65340617  1
  Ta5+  Ta44  1  0.18081246  0.88131061  0.37120306  1
  Ta5+  Ta45  1  0.12814266  0.62175521  0.11426211  1
  Ta5+  Ta46  1  0.15402356  0.59861076  0.36389705  1
  Ta5+  Ta47  1  0.32733149  0.88090676  0.08688981  1
  Ta5+  Ta48  1  0.71566883  0.03673853  0.43073363  1
  Ta5+  Ta49  1  0.08277169  0.89505291  0.13134221  1
  Ta5+  Ta50  1  0.29926501  0.62684742  0.08130862  1
  Ta5+  Ta51  1  0.14699743  0.86871167  0.69392374  1
  Ta5+  Ta52  1  0.10156446  0.14414009  0.10661169  1
  Ta5+  Ta53  1  0.13999557  0.88681794  0.90169875  1
  Ta5+  Ta54  1  0.69598650  0.63225043  0.14447699  1
  Ta5+  Ta55  1  0.34702414  0.12154797  0.60382750  1
  Ta5+  Ta56  1  0.33650799  0.37589077  0.88755990  1
  Ta5+  Ta57  1  0.10385886  0.62569251  0.63759089  1
  Ta5+  Ta58  1  0.10822962  0.10892681  0.65768953  1
  Ta5+  Ta59  1  0.60304283  0.11518994  0.64377793  1
  Ta5+  Ta60  1  0.11889690  0.36335116  0.39236253  1
  Ta5+  Ta61  1  0.63096026  0.87292242  0.89586780  1
  Ta5+  Ta62  1  0.04981147  0.38075062  0.64543268  1
  Ta5+  Ta63  1  0.92499682  0.09332279  0.37125687  1
  Ta5+  Ta64  1  0.62648660  0.11207079  0.11572563  1
  Ta5+  Ta65  1  0.11790193  0.11267269  0.35168748  1
  Ta5+  Ta66  1  0.90694601  0.37636034  0.86839815  1
  Ta5+  Ta67  1  0.62834771  0.39264831  0.11975717  1
  Ta5+  Ta68  1  0.34290836  0.60079182  0.32412353  1
  Ta5+  Ta69  1  0.37005034  0.38693686  0.36257927  1
  Ta5+  Ta70  1  0.11630734  0.38785396  0.84262891  1
  Ta5+  Ta71  1  0.90421710  0.12362112  0.87363076  1
  Ta5+  Ta72  1  0.86145206  0.61685757  0.12677818  1
  Ta5+  Ta73  1  0.11721346  0.38275465  0.04499174  1
  Ta5+  Ta74  1  0.61922042  0.62479897  0.64271229  1
  W6+  W75  1  0.87558576  0.94337730  0.86379264  1
  W6+  W76  1  0.35183387  0.86144669  0.35976227  1
  W6+  W77  1  0.84990469  0.62237036  0.59957431  1
  W6+  W78  1  0.88386191  0.12682813  0.13649179  1
  W6+  W79  1  0.85974287  0.60756565  0.37930464  1
  W6+  W80  1  0.91602721  0.89195030  0.13265157  1
  W6+  W81  1  0.67946391  0.87675736  0.16007455  1
  W6+  W82  1  0.36192417  0.11626997  0.35038304  1
  O2-  O83  1  0.08502879  0.02473678  0.11767241  1
  O2-  O84  1  0.17550261  0.01105319  0.38469140  1
  O2-  O85  1  0.11658012  -0.02358031  0.65270575  1
  O2-  O86  1  0.13281917  0.00616997  0.88681531  1
  O2-  O87  1  0.14586357  0.49090575  0.08699532  1
  O2-  O88  1  0.11146482  0.48749065  0.39875900  1
  O2-  O89  1  0.07292460  0.51191255  0.63855203  1
  O2-  O90  1  0.12393332  0.51011984  0.85840001  1
  O2-  O91  1  0.38367169  -0.00284584  0.09888746  1
  O2-  O92  1  0.36523271  -0.00268144  0.35409114  1
  O2-  O93  1  0.36490644  -0.00215366  0.61008117  1
  O2-  O94  1  0.35335862  0.00848839  0.87353903  1
  O2-  O95  1  0.36238768  0.50991490  0.09552310  1
  O2-  O96  1  0.41236229  0.50048822  0.35609513  1
  O2-  O97  1  0.35209922  0.49435508  0.63197366  1
  O2-  O98  1  0.35645631  0.49383672  0.89125637  1
  O2-  O99  1  0.66759494  0.01422870  0.16832700  1
  O2-  O100  1  0.61776536  -0.00886836  0.37911998  1
  O2-  O101  1  0.58382677  -0.01114345  0.64317119  1
  O2-  O102  1  0.59371691  -0.01153009  0.88503372  1
  O2-  O103  1  0.66517215  0.50601799  0.12615984  1
  O2-  O104  1  0.59214174  0.50964033  0.38101240  1
  O2-  O105  1  0.60952124  0.50279666  0.65398459  1
  O2-  O106  1  0.59819814  0.50847807  0.89566191  1
  O2-  O107  1  0.86942752  0.01244882  0.17052357  1
  O2-  O108  1  0.83381718  0.00783202  0.37692668  1
  O2-  O109  1  0.81741280  0.00913992  0.58883435  1
  O2-  O110  1  0.97789426  0.03225537  0.82690606  1
  O2-  O111  1  0.86240290  0.48617998  0.12100449  1
  O2-  O112  1  0.92789842  0.49072094  0.38376855  1
  O2-  O113  1  0.84491641  0.49056774  0.61032502  1
  O2-  O114  1  0.89689596  0.50063621  0.87740722  1
  O2-  O115  1  0.16857398  0.27936392  0.09432322  1
  O2-  O116  1  0.13518038  0.22488928  0.40883671  1
  O2-  O117  1  0.09122568  0.23846341  0.64795892  1
  O2-  O118  1  0.11152175  0.25291897  0.84056914  1
  O2-  O119  1  0.10304625  0.75464245  0.13894857  1
  O2-  O120  1  0.18333465  0.73604436  0.35588805  1
  O2-  O121  1  0.08093768  0.77026499  0.63984356  1
  O2-  O122  1  0.15835485  0.75615141  0.88993889  1
  O2-  O123  1  0.43008085  0.25684560  0.13560063  1
  O2-  O124  1  0.40416588  0.25933273  0.34583985  1
  O2-  O125  1  0.33376495  0.25844263  0.61413144  1
  O2-  O126  1  0.30797292  0.24265240  0.86753125  1
  O2-  O127  1  0.30010282  0.75589697  0.06914724  1
  O2-  O128  1  0.37806857  0.71451420  0.37384364  1
  O2-  O129  1  0.36969779  0.74933831  0.67014913  1
  O2-  O130  1  0.35875017  0.75219728  0.86118610  1
  O2-  O131  1  0.62948001  0.24886217  0.12121753  1
  O2-  O132  1  0.57956118  0.30658727  0.39029300  1
  O2-  O133  1  0.64920636  0.24472203  0.63033537  1
  O2-  O134  1  0.61676738  0.24741951  0.91083965  1
  O2-  O135  1  0.72351642  0.75444788  0.12067834  1
  O2-  O136  1  0.63106710  0.73444967  0.39273327  1
  O2-  O137  1  0.55475981  0.74690081  0.63024616  1
  O2-  O138  1  0.56446650  0.75568649  0.90401032  1
  O2-  O139  1  0.82895425  0.25858087  0.12523347  1
  O2-  O140  1  0.76972903  0.32317614  0.38342926  1
  O2-  O141  1  0.83346215  0.24549852  0.63935938  1
  O2-  O142  1  0.86654251  0.25038770  0.86145850  1
  O2-  O143  1  0.90752201  0.74430396  0.12425174  1
  O2-  O144  1  0.88788401  0.74785449  0.37943438  1
  O2-  O145  1  0.88910357  0.76293417  0.60602305  1
  O2-  O146  1  0.90288896  0.73823186  0.87815662  1
  O2-  O147  1  0.12863749  0.14887107  -0.01475723  1
  O2-  O148  1  0.15190245  0.15753565  0.23033824  1
  O2-  O149  1  0.22611029  0.11935908  0.59560665  1
  O2-  O150  1  0.17214806  0.11305329  0.76487994  1
  O2-  O151  1  0.06968115  0.63202726  -0.00486873  1
  O2-  O152  1  0.09559521  0.61770979  0.24893054  1
  O2-  O153  1  0.11805145  0.65372543  0.50462860  1
  O2-  O154  1  0.07869202  0.65330849  0.76442261  1
  O2-  O155  1  0.36850886  0.14992479  0.00134838  1
  O2-  O156  1  0.33150635  0.13449658  0.21099910  1
  O2-  O157  1  0.38444635  0.14462102  0.48457433  1
  O2-  O158  1  0.35149641  0.13379353  0.73524771  1
  O2-  O159  1  0.42290904  0.64845473  -0.00044938  1
  O2-  O160  1  0.34321666  0.65354729  0.20802272  1
  O2-  O161  1  0.40640716  0.64010453  0.54616627  1
  O2-  O162  1  0.41072233  0.61102946  0.76790997  1
  O2-  O163  1  0.69167064  0.11341417  -0.00240828  1
  O2-  O164  1  0.72010777  0.14749842  0.37548553  1
  O2-  O165  1  0.67419503  0.09751076  0.53652896  1
  O2-  O166  1  0.63453356  0.12776935  0.76587464  1
  O2-  O167  1  0.61544483  0.64859054  0.02767335  1
  O2-  O168  1  0.69104766  0.62718967  0.27205054  1
  O2-  O169  1  0.59515986  0.62348612  0.51607368  1
  O2-  O170  1  0.58592096  0.64237070  0.77096642  1
  O2-  O171  1  0.87961451  0.13369132  -0.00263506  1
  O2-  O172  1  0.88169430  0.17131175  0.28551816  1
  O2-  O173  1  0.87343407  0.15285168  0.48965896  1
  O2-  O174  1  0.82590439  0.11699945  0.75413401  1
  O2-  O175  1  0.85911725  0.62790487  -0.00136909  1
  O2-  O176  1  0.90885767  0.61523609  0.24817488  1
  O2-  O177  1  0.93468053  0.62722887  0.49963609  1
  O2-  O178  1  0.89080136  0.62997595  0.73940244  1
  O2-  O179  1  0.21148059  0.37847919  -0.06362214  1
  O2-  O180  1  0.16248786  0.35354735  0.27812483  1
  O2-  O181  1  0.08799151  0.36054244  0.52470874  1
  O2-  O182  1  0.16582289  0.38444107  0.72499079  1
  O2-  O183  1  0.07223522  0.87425260  0.00320148  1
  O2-  O184  1  0.11823355  0.88073445  0.26202738  1
  O2-  O185  1  0.12801705  0.84367907  0.47550623  1
  O2-  O186  1  0.06532426  0.86190137  0.79354403  1
  O2-  O187  1  0.36266920  0.34768971  0.01226697  1
  O2-  O188  1  0.34517027  0.38494721  0.22809508  1
  O2-  O189  1  0.39129901  0.37217960  0.49172223  1
  O2-  O190  1  0.34295305  0.36483829  0.75479507  1
  O2-  O191  1  0.42021445  0.86443239  -0.01894631  1
  O2-  O192  1  0.35421812  0.85360550  0.20942870  1
  O2-  O193  1  0.39011968  0.84040563  0.51118427  1
  O2-  O194  1  0.41327478  0.88935302  0.75191519  1
  O2-  O195  1  0.68198425  0.37661434  -0.00456995  1
  O2-  O196  1  0.67113850  0.36933869  0.24883649  1
  O2-  O197  1  0.66709092  0.38756604  0.51607617  1
  O2-  O198  1  0.63442920  0.36392501  0.77515025  1
  O2-  O199  1  0.61686738  0.86686844  0.02431914  1
  O2-  O200  1  0.58091472  0.85529443  0.25947577  1
  O2-  O201  1  0.57862976  0.86011860  0.50211915  1
  O2-  O202  1  0.60122943  0.85085885  0.76226854  1
  O2-  O203  1  0.87025593  0.35698696  -0.00525893  1
  O2-  O204  1  0.87136203  0.36046351  0.25106753  1
  O2-  O205  1  0.88497751  0.33771912  0.50522042  1
  O2-  O206  1  0.82922130  0.37633703  0.76381507  1
  O2-  O207  1  0.88532348  0.90892222  -0.00534058  1
  O2-  O208  1  0.93059895  0.87489447  0.27850129  1
  O2-  O209  1  0.91277450  0.88694324  0.48835723  1
  O2-  O210  1  0.88765933  0.89766576  0.71780648  1
  O2-  O211  1  -0.00321361  0.19875054  0.11818679  1
  O2-  O212  1  0.01659842  0.06290823  0.29191746  1
  O2-  O213  1  0.02749881  0.09932457  0.45040584  1
  O2-  O214  1  -0.01432076  0.10251565  0.63109659  1
  O2-  O215  1  0.03128633  0.37858476  -0.05152190  1
  O2-  O216  1  0.01800912  0.37714686  0.12683826  1
  O2-  O217  1  -0.00262287  0.31844906  0.37390040  1
  O2-  O218  1  0.00030015  0.37922554  0.77857616  1
  O2-  O219  1  0.25712580  -0.10794313  -0.04141635  1
  O2-  O220  1  0.21390576  -0.09607859  0.12309433  1
  O2-  O221  1  0.24267353  -0.15297692  0.60922333  1
  O2-  O222  1  0.23686892  -0.11883531  0.78505413  1
  O2-  O223  1  0.24852210  0.61612656  -0.05583210  1
  O2-  O224  1  0.23904578  0.54311826  0.28693948  1
  O2-  O225  1  0.26601842  0.59892329  0.43566699  1
  O2-  O226  1  0.23215595  0.63913961  0.64043012  1
  O2-  O227  1  0.53077139  0.11031545  0.02346760  1
  O2-  O228  1  0.51759082  0.11823571  0.19290216  1
  O2-  O229  1  0.49138857  0.15116865  0.61718950  1
  O2-  O230  1  0.48438731  0.14752518  0.85929735  1
  O2-  O231  1  0.52600611  0.39433647  0.03197236  1
  O2-  O232  1  0.51823335  0.39920286  0.19539672  1
  O2-  O233  1  0.50069503  0.35162987  0.63058228  1
  O2-  O234  1  0.47437319  0.35286815  0.87364022  1
  O2-  O235  1  0.74884293  -0.13533983  -0.11647373  1
  O2-  O236  1  0.74423100  -0.14162635  0.29143920  1
  O2-  O237  1  0.74254384  -0.09833163  0.45435801  1
  O2-  O238  1  0.72761088  -0.14593322  0.62476235  1
  O2-  O239  1  0.73831460  0.63707770  -0.12769782  1
  O2-  O240  1  0.75656378  0.49492613  0.37606889  1
  O2-  O241  1  0.76664408  0.63355392  0.47958509  1
  O2-  O242  1  0.73031234  0.65409483  0.65923810  1
