# generated using pymatgen
data_Gd19Ta56(WO20)8
_symmetry_space_group_name_H-M   'P 1'
_cell_length_a   15.58138359
_cell_length_b   15.55689198
_cell_length_c   15.25291056
_cell_angle_alpha   90.08611845
_cell_angle_beta   89.95445745
_cell_angle_gamma   90.06724456
_symmetry_Int_Tables_number   1
_chemical_formula_structural   Gd19Ta56(WO20)8
_chemical_formula_sum   'Gd19 Ta56 W8 O160'
_cell_volume   3697.26562512
_cell_formula_units_Z   1
loop_
 _symmetry_equiv_pos_site_id
 _symmetry_equiv_pos_as_xyz
  1  'x, y, z'
loop_
 _atom_type_symbol
 _atom_type_oxidation_number
  Gd3+  3.0
  Ta5+  5.0
  W6+  6.0
  O2-  -2.0
loop_
 _atom_site_type_symbol
 _atom_site_label
 _atom_site_symmetry_multiplicity
 _atom_site_fract_x
 _atom_site_fract_y
 _atom_site_fract_z
 _atom_site_occupancy
  Gd3+  Gd0  1  0.73960844  0.74443354  0.49665927  1
  Gd3+  Gd1  1  0.75071342  0.74873046  0.00475342  1
  Gd3+  Gd2  1  -0.00307024  0.26119681  0.51252982  1
  Gd3+  Gd3  1  0.75918471  0.24937669  0.76680101  1
  Gd3+  Gd4  1  0.23955619  0.75896340  0.73948592  1
  Gd3+  Gd5  1  0.49648666  0.74707286  0.49927936  1
  Gd3+  Gd6  1  0.51914924  0.26014449  0.73129442  1
  Gd3+  Gd7  1  0.23952852  0.75275311  0.25523260  1
  Gd3+  Gd8  1  0.52621727  0.75964499  0.24503748  1
  Gd3+  Gd9  1  0.50354558  0.25623861  0.26455122  1
  Gd3+  Gd10  1  0.76001414  0.75399149  0.74098255  1
  Gd3+  Gd11  1  -0.00158349  0.25250524  0.25619240  1
  Gd3+  Gd12  1  0.47345824  0.74884407  -0.02441632  1
  Gd3+  Gd13  1  0.22709373  0.75052173  0.48766604  1
  Gd3+  Gd14  1  0.23690027  0.77281012  0.00623207  1
  Gd3+  Gd15  1  0.75920127  0.75416778  0.24680255  1
  Gd3+  Gd16  1  0.27830183  0.24497275  0.24171162  1
  Gd3+  Gd17  1  0.00826153  0.74660744  0.72699460  1
  Gd3+  Gd18  1  -0.00753575  0.24074387  -0.01932261  1
  Ta5+  Ta19  1  0.14427504  0.38525950  0.39362497  1
  Ta5+  Ta20  1  0.60626249  0.88449625  0.89178295  1
  Ta5+  Ta21  1  0.35906903  0.12390141  0.38198773  1
  Ta5+  Ta22  1  0.33913739  0.12367920  0.06897620  1
  Ta5+  Ta23  1  0.14026750  0.36685485  0.64149597  1
  Ta5+  Ta24  1  0.86872682  0.12390683  0.38191524  1
  Ta5+  Ta25  1  0.14619063  0.11125603  0.87952572  1
  Ta5+  Ta26  1  0.39377496  0.62449687  0.12280892  1
  Ta5+  Ta27  1  0.09616723  0.87897142  0.35673263  1
  Ta5+  Ta28  1  0.38171551  0.88118798  0.35972199  1
  Ta5+  Ta29  1  0.82895229  0.37433127  0.60519541  1
  Ta5+  Ta30  1  0.61969857  0.89086345  0.11209419  1
  Ta5+  Ta31  1  0.87578830  0.37297232  0.12578585  1
  Ta5+  Ta32  1  0.33235109  0.62289163  0.87513584  1
  Ta5+  Ta33  1  0.87684458  0.12062844  0.61828289  1
  Ta5+  Ta34  1  0.34677833  0.39315127  0.39562563  1
  Ta5+  Ta35  1  0.12395180  0.37582961  0.11461736  1
  Ta5+  Ta36  1  0.37704467  0.13889172  0.84482534  1
  Ta5+  Ta37  1  0.08783097  0.87694755  0.13583793  1
  Ta5+  Ta38  1  0.16313346  0.61653281  0.87236320  1
  Ta5+  Ta39  1  0.66186633  0.37606817  0.61432109  1
  Ta5+  Ta40  1  0.36737037  0.89179105  0.86392543  1
  Ta5+  Ta41  1  0.61287058  0.61883793  0.63552800  1
  Ta5+  Ta42  1  0.37511283  0.61833123  0.62371357  1
  Ta5+  Ta43  1  0.63374579  0.12842693  0.38248278  1
  Ta5+  Ta44  1  0.60081364  0.61928514  0.88110116  1
  Ta5+  Ta45  1  0.08498117  0.61867276  0.36500969  1
  Ta5+  Ta46  1  0.12517061  0.60984363  0.61185744  1
  Ta5+  Ta47  1  0.89019509  0.61886293  0.13088956  1
  Ta5+  Ta48  1  0.09871873  0.87891468  0.87764120  1
  Ta5+  Ta49  1  0.14802812  0.36797657  0.87909055  1
  Ta5+  Ta50  1  0.12356910  0.62212685  0.12470760  1
  Ta5+  Ta51  1  0.11566199  0.12281173  0.37586839  1
  Ta5+  Ta52  1  0.64231568  0.11844589  0.62164595  1
  Ta5+  Ta53  1  0.62921611  0.12465103  0.13432592  1
  Ta5+  Ta54  1  0.63497936  0.37482754  0.13727361  1
  Ta5+  Ta55  1  0.39012562  0.62469851  0.36053946  1
  Ta5+  Ta56  1  0.36641454  0.38145630  0.10392836  1
  Ta5+  Ta57  1  0.87153247  0.88214423  0.61508378  1
  Ta5+  Ta58  1  0.13380778  0.11702994  0.10940726  1
  Ta5+  Ta59  1  0.87702795  0.61562302  0.60927483  1
  Ta5+  Ta60  1  0.85852409  0.10564868  0.87461630  1
  Ta5+  Ta61  1  0.85375573  0.37466136  0.38285957  1
  Ta5+  Ta62  1  0.64867927  0.37688631  0.39198472  1
  Ta5+  Ta63  1  0.62639725  0.88258817  0.63843104  1
  Ta5+  Ta64  1  0.89895760  0.87510440  0.88179210  1
  Ta5+  Ta65  1  0.87440279  0.87971642  0.37602459  1
  Ta5+  Ta66  1  0.40488478  0.89379550  0.11756384  1
  Ta5+  Ta67  1  0.60622037  0.61742204  0.11779635  1
  Ta5+  Ta68  1  0.61689991  0.12785017  0.88725936  1
  Ta5+  Ta69  1  0.62771120  0.88990807  0.37825380  1
  Ta5+  Ta70  1  0.38766598  0.38326685  0.62380205  1
  Ta5+  Ta71  1  0.10806836  0.11805055  0.63652384  1
  Ta5+  Ta72  1  0.92095004  0.86883590  0.13491450  1
  Ta5+  Ta73  1  0.88567709  0.61770149  0.36860806  1
  Ta5+  Ta74  1  0.63184410  0.37467262  0.88651241  1
  W6+  W75  1  0.88188762  0.62534439  0.87397326  1
  W6+  W76  1  0.13713981  0.88789258  0.60940809  1
  W6+  W77  1  0.62001959  0.62296116  0.37310066  1
  W6+  W78  1  0.35242182  0.87594054  0.61028614  1
  W6+  W79  1  0.88361675  0.11251626  0.12846168  1
  W6+  W80  1  0.39686585  0.38710890  0.86430041  1
  W6+  W81  1  0.88476415  0.37810559  0.86226684  1
  W6+  W82  1  0.40052799  0.12287570  0.60996269  1
  O2-  O83  1  0.10606902  0.00093567  0.12917785  1
  O2-  O84  1  0.08545244  0.00706723  0.36498020  1
  O2-  O85  1  0.16969378  0.01904692  0.62660500  1
  O2-  O86  1  0.16744825  -0.01372758  0.88115952  1
  O2-  O87  1  0.12570909  0.49908863  0.11726572  1
  O2-  O88  1  0.09053868  0.49046344  0.36953789  1
  O2-  O89  1  0.15262159  0.49525262  0.63062276  1
  O2-  O90  1  0.14730615  0.49824313  0.87670047  1
  O2-  O91  1  0.38861394  0.01936751  0.10971221  1
  O2-  O92  1  0.35028566  0.00398847  0.37613312  1
  O2-  O93  1  0.38180699  0.00432665  0.60209395  1
  O2-  O94  1  0.37543030  0.01093060  0.86743763  1
  O2-  O95  1  0.36575101  0.50238334  0.11195593  1
  O2-  O96  1  0.38772338  0.49627059  0.34687005  1
  O2-  O97  1  0.34210344  0.50290008  0.61863534  1
  O2-  O98  1  0.36044804  0.50936258  0.88760651  1
  O2-  O99  1  0.65930885  0.00388094  0.13695803  1
  O2-  O100  1  0.65925972  0.00621332  0.36506156  1
  O2-  O101  1  0.60277054  0.00224265  0.64913014  1
  O2-  O102  1  0.59217528  0.00813749  0.87476725  1
  O2-  O103  1  0.63638941  0.50148388  0.13693875  1
  O2-  O104  1  0.65251015  0.49259034  0.37454227  1
  O2-  O105  1  0.64539582  0.50504176  0.63312195  1
  O2-  O106  1  0.60540105  0.49698974  0.87227529  1
  O2-  O107  1  0.90347357  -0.01462403  0.13321797  1
  O2-  O108  1  0.86797752  0.00202005  0.37990546  1
  O2-  O109  1  0.90950543  -0.00447762  0.61853589  1
  O2-  O110  1  0.83354701  -0.01775853  0.86852367  1
  O2-  O111  1  0.89795821  0.49590601  0.13223913  1
  O2-  O112  1  0.86442356  0.49675615  0.36895616  1
  O2-  O113  1  0.84661206  0.50144229  0.61817646  1
  O2-  O114  1  0.90533517  0.50446584  0.86124705  1
  O2-  O115  1  0.10366288  0.24315798  0.10289500  1
  O2-  O116  1  0.09356201  0.26580072  0.38090294  1
  O2-  O117  1  0.13443817  0.24039084  0.64019921  1
  O2-  O118  1  0.11524033  0.24167908  0.89044028  1
  O2-  O119  1  0.15518737  0.75317659  0.13569166  1
  O2-  O120  1  0.12459821  0.74295377  0.36177393  1
  O2-  O121  1  0.12877810  0.74291807  0.60307821  1
  O2-  O122  1  0.16813817  0.75920388  0.87574801  1
  O2-  O123  1  0.36459170  0.23524076  0.11567318  1
  O2-  O124  1  0.37165790  0.27338927  0.36495455  1
  O2-  O125  1  0.40543923  0.25950665  0.62700151  1
  O2-  O126  1  0.41386484  0.25584356  0.83569327  1
  O2-  O127  1  0.42016200  0.76019343  0.12303425  1
  O2-  O128  1  0.41753942  0.74962282  0.34762001  1
  O2-  O129  1  0.31618617  0.73476288  0.60946180  1
  O2-  O130  1  0.34563739  0.76177619  0.87901639  1
  O2-  O131  1  0.59782521  0.25288477  0.14204086  1
  O2-  O132  1  0.59425574  0.25075337  0.37972524  1
  O2-  O133  1  0.65218060  0.24453148  0.61415783  1
  O2-  O134  1  0.58683852  0.25369295  0.88172254  1
  O2-  O135  1  0.61221746  0.75663406  0.10256412  1
  O2-  O136  1  0.59751083  0.75966382  0.38621403  1
  O2-  O137  1  0.65604669  0.75031653  0.62779306  1
  O2-  O138  1  0.61431202  0.75327582  0.91137513  1
  O2-  O139  1  0.92066038  0.25259079  0.12374064  1
  O2-  O140  1  0.91007255  0.25510372  0.38636023  1
  O2-  O141  1  0.86106018  0.24514829  0.59785136  1
  O2-  O142  1  0.88576409  0.23824990  0.86833814  1
  O2-  O143  1  0.84909862  0.74831475  0.13103662  1
  O2-  O144  1  0.84179602  0.74274184  0.37205618  1
  O2-  O145  1  0.84373926  0.74601871  0.60458740  1
  O2-  O146  1  0.81515052  0.76715812  0.87689995  1
  O2-  O147  1  0.07394073  0.11179260  -0.01114808  1
  O2-  O148  1  0.10109852  0.14378663  0.24601054  1
  O2-  O149  1  0.10083772  0.13316989  0.50245640  1
  O2-  O150  1  0.09204043  0.10909111  0.76859659  1
  O2-  O151  1  0.15956694  0.63770276  0.00582561  1
  O2-  O152  1  0.15661406  0.62110869  0.24977895  1
  O2-  O153  1  0.15360700  0.61540844  0.48335108  1
  O2-  O154  1  0.13120977  0.64116117  0.74302268  1
  O2-  O155  1  0.40963007  0.14136293  -0.03179370  1
  O2-  O156  1  0.40085734  0.14482266  0.26860795  1
  O2-  O157  1  0.42308087  0.14719602  0.48008905  1
  O2-  O158  1  0.44430061  0.12098502  0.74147911  1
  O2-  O159  1  0.34026573  0.65728044  0.01152798  1
  O2-  O160  1  0.33648118  0.63805324  0.23566328  1
  O2-  O161  1  0.39630517  0.63089514  0.48834983  1
  O2-  O162  1  0.33843237  0.63658416  0.74473347  1
  O2-  O163  1  0.60113673  0.12451190  0.01351754  1
  O2-  O164  1  0.58631977  0.12572862  0.25847217  1
  O2-  O165  1  0.60062040  0.11047717  0.49983720  1
  O2-  O166  1  0.63306390  0.14816539  0.75213215  1
  O2-  O167  1  0.66410125  0.62149885  -0.00270333  1
  O2-  O168  1  0.64937691  0.65645945  0.23316157  1
  O2-  O169  1  0.59796380  0.63452207  0.51054849  1
  O2-  O170  1  0.64897393  0.64461853  0.76758767  1
  O2-  O171  1  0.89822555  0.11489740  -0.00976668  1
  O2-  O172  1  0.90471612  0.13418180  0.26393448  1
  O2-  O173  1  0.92542541  0.12326837  0.49482830  1
  O2-  O174  1  0.85460857  0.12451003  0.74417975  1
  O2-  O175  1  0.84541245  0.62527464  0.01620102  1
  O2-  O176  1  0.82806957  0.62107607  0.24319170  1
  O2-  O177  1  0.82352097  0.62151482  0.48942052  1
  O2-  O178  1  0.88053655  0.65386570  0.73732877  1
  O2-  O179  1  0.08168185  0.37469037  -0.00636569  1
  O2-  O180  1  0.08478479  0.36869534  0.23090737  1
  O2-  O181  1  0.10298397  0.36589038  0.51584624  1
  O2-  O182  1  0.10820028  0.37184866  0.76087520  1
  O2-  O183  1  0.11091653  0.85985463  0.00477065  1
  O2-  O184  1  0.16775015  0.88302573  0.25341705  1
  O2-  O185  1  0.15913324  0.88022661  0.46371360  1
  O2-  O186  1  0.11126073  0.85769195  0.74891603  1
  O2-  O187  1  0.42269348  0.36222692  0.00045791  1
  O2-  O188  1  0.40599001  0.35944899  0.21870341  1
  O2-  O189  1  0.41337372  0.38970648  0.49805426  1
  O2-  O190  1  0.44366688  0.39873195  0.73300814  1
  O2-  O191  1  0.34820473  0.87887732  -0.00088525  1
  O2-  O192  1  0.34635523  0.87523506  0.23097783  1
  O2-  O193  1  0.35502789  0.84075817  0.47504887  1
  O2-  O194  1  0.31905367  0.88295982  0.75101281  1
  O2-  O195  1  0.61254505  0.37926528  0.01338019  1
  O2-  O196  1  0.59163728  0.37622182  0.25884467  1
  O2-  O197  1  0.59573497  0.37606278  0.50509158  1
  O2-  O198  1  0.63846680  0.35498667  0.74837332  1
  O2-  O199  1  0.68698804  0.88598936  -0.00620541  1
  O2-  O200  1  0.65045076  0.85725071  0.24732707  1
  O2-  O201  1  0.62846047  0.88303378  0.50830529  1
  O2-  O202  1  0.64729339  0.86273996  0.77612186  1
  O2-  O203  1  0.90282166  0.36798867  0.00470928  1
  O2-  O204  1  0.90191767  0.36724653  0.25429360  1
  O2-  O205  1  0.91726965  0.38209722  0.49524133  1
  O2-  O206  1  0.84567160  0.36053547  0.72901297  1
  O2-  O207  1  0.89105642  0.85509321  0.00480863  1
  O2-  O208  1  0.84418447  0.87342378  0.25435522  1
  O2-  O209  1  0.81966481  0.87269545  0.49237564  1
  O2-  O210  1  0.89642935  0.85035660  0.74101608  1
  O2-  O211  1  -0.00118199  -0.04847980  -0.12291671  1
  O2-  O212  1  0.01083308  -0.16498188  0.23342371  1
  O2-  O213  1  -0.01426073  -0.14839379  0.41258084  1
  O2-  O214  1  -0.00362759  -0.21209827  0.86841891  1
  O2-  O215  1  0.00573633  0.64934690  0.11182442  1
  O2-  O216  1  -0.01497758  0.61561524  0.28340394  1
  O2-  O217  1  -0.01432528  0.63963671  0.44167001  1
  O2-  O218  1  0.00032447  0.61948774  0.61737969  1
  O2-  O219  1  0.23120041  0.11766849  0.00633187  1
  O2-  O220  1  0.24620808  0.12151746  0.16733459  1
  O2-  O221  1  0.23924277  0.15665885  0.36859973  1
  O2-  O222  1  0.25760780  0.14779239  0.83405225  1
  O2-  O223  1  0.24436926  0.35524039  0.11755435  1
  O2-  O224  1  0.23868211  0.36828150  0.30996134  1
  O2-  O225  1  0.24466586  0.42592884  0.45900811  1
  O2-  O226  1  0.26290756  0.35394043  0.88695540  1
  O2-  O227  1  0.52382315  -0.11015058  0.01927166  1
  O2-  O228  1  0.51122744  -0.09928558  0.18291844  1
  O2-  O229  1  0.50208752  -0.10011872  0.36757840  1
  O2-  O230  1  0.48538089  -0.13955738  0.85598476  1
  O2-  O231  1  0.50421923  0.61715141  0.03892383  1
  O2-  O232  1  0.49961763  0.61729262  0.19943145  1
  O2-  O233  1  0.49186449  0.66561976  0.64465626  1
  O2-  O234  1  0.48469724  0.64481642  0.86569681  1
  O2-  O235  1  0.73883791  0.13824201  -0.11126657  1
  O2-  O236  1  0.75213927  0.15610944  0.39280232  1
  O2-  O237  1  0.75736969  0.09410318  0.59651645  1
  O2-  O238  1  0.75243076  -0.10964812  0.65040424  1
  O2-  O239  1  0.75546897  0.36293967  0.13309653  1
  O2-  O240  1  0.74985402  0.33556074  0.32586309  1
  O2-  O241  1  0.75684599  0.37534147  0.48105570  1
  O2-  O242  1  0.74806541  0.35123992  0.88469225  1
