# generated using pymatgen
data_Gd19Ta56(WO20)8
_symmetry_space_group_name_H-M   'P 1'
_cell_length_a   15.56805831
_cell_length_b   15.49613309
_cell_length_c   15.29444096
_cell_angle_alpha   90.10657322
_cell_angle_beta   90.03527097
_cell_angle_gamma   90.16930904
_symmetry_Int_Tables_number   1
_chemical_formula_structural   Gd19Ta56(WO20)8
_chemical_formula_sum   'Gd19 Ta56 W8 O160'
_cell_volume   3689.67967362
_cell_formula_units_Z   1
loop_
 _symmetry_equiv_pos_site_id
 _symmetry_equiv_pos_as_xyz
  1  'x, y, z'
loop_
 _atom_type_symbol
 _atom_type_oxidation_number
  Gd3+  3.0
  Ta5+  5.0
  W6+  6.0
  O2-  -2.0
loop_
 _atom_site_type_symbol
 _atom_site_label
 _atom_site_symmetry_multiplicity
 _atom_site_fract_x
 _atom_site_fract_y
 _atom_site_fract_z
 _atom_site_occupancy
  Gd3+  Gd0  1  0.49609814  0.27707978  0.23499028  1
  Gd3+  Gd1  1  -0.01273303  0.73814360  0.26263299  1
  Gd3+  Gd2  1  -0.00955215  0.72887193  0.73653605  1
  Gd3+  Gd3  1  0.26151582  0.23167689  0.74277954  1
  Gd3+  Gd4  1  0.48689479  0.75805395  0.76150014  1
  Gd3+  Gd5  1  0.00791160  0.28056035  -0.00751010  1
  Gd3+  Gd6  1  -0.01618067  0.72463996  -0.00350225  1
  Gd3+  Gd7  1  0.01737440  0.26379164  0.75996615  1
  Gd3+  Gd8  1  0.73145829  0.76121824  0.24932907  1
  Gd3+  Gd9  1  0.74697365  0.73228948  0.00481991  1
  Gd3+  Gd10  1  0.25160176  0.74947626  -0.00618364  1
  Gd3+  Gd11  1  0.03330306  0.21878073  0.26185976  1
  Gd3+  Gd12  1  0.26103963  0.22657324  0.02420063  1
  Gd3+  Gd13  1  0.80784147  0.23790038  0.22050668  1
  Gd3+  Gd14  1  0.46295619  0.77116442  0.23968669  1
  Gd3+  Gd15  1  0.02959386  0.25520024  0.51346227  1
  Gd3+  Gd16  1  0.25100875  0.74661827  0.52688332  1
  Gd3+  Gd17  1  0.69640842  0.75951707  0.52571905  1
  Gd3+  Gd18  1  0.77124781  0.26548043  -0.02314812  1
  Ta5+  Ta19  1  0.11585567  0.60250254  0.87127304  1
  Ta5+  Ta20  1  0.39181389  0.61920429  0.62016371  1
  Ta5+  Ta21  1  0.11125968  0.85860593  0.37896392  1
  Ta5+  Ta22  1  0.15259407  0.41918278  0.37023708  1
  Ta5+  Ta23  1  0.15871626  0.36393772  0.14596070  1
  Ta5+  Ta24  1  0.62626714  0.13845448  0.84721398  1
  Ta5+  Ta25  1  0.38086775  0.38461615  0.38360826  1
  Ta5+  Ta26  1  0.84868556  0.61670921  0.85564626  1
  Ta5+  Ta27  1  0.39397070  0.13005417  0.62109179  1
  Ta5+  Ta28  1  0.62053645  0.37367172  0.61163002  1
  Ta5+  Ta29  1  0.84077584  0.86768711  0.83796163  1
  Ta5+  Ta30  1  0.40034401  0.12173169  0.13708658  1
  Ta5+  Ta31  1  0.91535272  0.10725475  0.07189206  1
  Ta5+  Ta32  1  0.56003432  0.61836889  0.61351244  1
  Ta5+  Ta33  1  0.15299750  0.08729828  0.13410787  1
  Ta5+  Ta34  1  0.09248691  0.87883459  0.13148497  1
  Ta5+  Ta35  1  0.86116007  0.36993132  0.62718495  1
  Ta5+  Ta36  1  0.55735911  0.14122176  0.60218375  1
  Ta5+  Ta37  1  0.17128918  0.36664645  0.88293564  1
  Ta5+  Ta38  1  0.86684238  0.87753586  0.38514437  1
  Ta5+  Ta39  1  0.60213954  0.89098902  0.36702244  1
  Ta5+  Ta40  1  0.35696742  0.62129495  0.87063005  1
  Ta5+  Ta41  1  0.62770807  0.11355307  0.10780398  1
  Ta5+  Ta42  1  0.96409916  0.44049436  0.18190087  1
  Ta5+  Ta43  1  0.87168062  0.12249972  0.43186310  1
  Ta5+  Ta44  1  0.11626695  0.60649305  0.12953894  1
  Ta5+  Ta45  1  0.88134318  0.11195754  0.62770618  1
  Ta5+  Ta46  1  0.91357516  0.86608033  0.59521655  1
  Ta5+  Ta47  1  0.55311118  0.89433732  0.61407799  1
  Ta5+  Ta48  1  0.39155785  0.12357258  0.87862503  1
  Ta5+  Ta49  1  0.89676589  0.10618681  0.85914980  1
  Ta5+  Ta50  1  0.11483129  0.10289483  0.88552903  1
  Ta5+  Ta51  1  0.17318553  0.09936046  0.38825287  1
  Ta5+  Ta52  1  0.11294792  0.85971971  0.86887048  1
  Ta5+  Ta53  1  0.08040589  0.86413076  0.61519080  1
  Ta5+  Ta54  1  0.38242090  0.63137675  0.38249435  1
  Ta5+  Ta55  1  0.11859450  0.60545232  0.37921862  1
  Ta5+  Ta56  1  0.63929285  0.88943435  0.85361836  1
  Ta5+  Ta57  1  0.32824051  0.37966499  0.14133128  1
  Ta5+  Ta58  1  0.64605630  0.13503459  0.36496925  1
  Ta5+  Ta59  1  0.87514082  0.61610273  0.59587409  1
  Ta5+  Ta60  1  0.59034642  0.59024151  0.11631650  1
  Ta5+  Ta61  1  0.11521426  0.60218155  0.61794061  1
  Ta5+  Ta62  1  0.59610952  0.37516675  0.86306656  1
  Ta5+  Ta63  1  0.40056750  0.13302004  0.38907219  1
  Ta5+  Ta64  1  0.65349755  0.40531829  0.10689871  1
  Ta5+  Ta65  1  0.62366977  0.91838636  0.10451615  1
  Ta5+  Ta66  1  0.87146623  0.59929446  0.13690289  1
  Ta5+  Ta67  1  0.32291970  0.89796914  0.13570195  1
  Ta5+  Ta68  1  0.15909342  0.09455469  0.63720452  1
  Ta5+  Ta69  1  0.85818550  0.87823831  0.12755231  1
  Ta5+  Ta70  1  0.65632229  0.37372192  0.35764990  1
  Ta5+  Ta71  1  0.38581023  0.88581667  0.62162724  1
  Ta5+  Ta72  1  0.92154374  0.43849967  0.86343160  1
  Ta5+  Ta73  1  0.35150825  0.62650709  0.13190480  1
  Ta5+  Ta74  1  0.32979842  0.38208321  0.61968098  1
  W6+  W75  1  0.90201044  0.37313647  0.37522024  1
  W6+  W76  1  0.35673610  0.88481886  0.39706550  1
  W6+  W77  1  0.36193956  0.88257934  0.87843248  1
  W6+  W78  1  0.62255811  0.62473487  0.36510559  1
  W6+  W79  1  0.34218262  0.37173074  0.88064583  1
  W6+  W80  1  0.85134907  0.61681981  0.38540737  1
  W6+  W81  1  0.60045157  0.62875144  0.87072204  1
  W6+  W82  1  0.16581202  0.36241028  0.61746102  1
  O2-  O83  1  0.05826180  0.00111796  0.11157623  1
  O2-  O84  1  0.15169202  -0.02064092  0.37869900  1
  O2-  O85  1  0.10914336  -0.01239705  0.63188349  1
  O2-  O86  1  0.09776516  -0.02135928  0.89110533  1
  O2-  O87  1  0.15369979  0.49083785  0.13826237  1
  O2-  O88  1  0.05425965  0.50182796  0.39440171  1
  O2-  O89  1  0.17019343  0.49765692  0.62536566  1
  O2-  O90  1  0.15756934  0.48994653  0.88080827  1
  O2-  O91  1  0.39154524  -0.00351589  0.12622515  1
  O2-  O92  1  0.38713922  0.01619191  0.39728530  1
  O2-  O93  1  0.37021399  0.01223451  0.62250844  1
  O2-  O94  1  0.34277824  0.01748277  0.87404054  1
  O2-  O95  1  0.33877945  0.50865088  0.13712411  1
  O2-  O96  1  0.40538355  0.50899093  0.37613895  1
  O2-  O97  1  0.35803584  0.49862833  0.63671320  1
  O2-  O98  1  0.36860514  0.50459308  0.87318058  1
  O2-  O99  1  0.70309927  0.01034026  0.09027324  1
  O2-  O100  1  0.61478310  0.01501762  0.34032981  1
  O2-  O101  1  0.55941031  0.01670400  0.60439028  1
  O2-  O102  1  0.65857020  0.02093879  0.86252832  1
  O2-  O103  1  0.70069002  0.51708395  0.10163935  1
  O2-  O104  1  0.63647281  0.49103491  0.34965359  1
  O2-  O105  1  0.57682625  0.48661241  0.60105371  1
  O2-  O106  1  0.59772582  0.49284644  0.88027989  1
  O2-  O107  1  0.87010745  -0.00520342  0.09975137  1
  O2-  O108  1  0.87864034  0.00904768  0.39195403  1
  O2-  O109  1  0.89274024  -0.00645594  0.61561324  1
  O2-  O110  1  0.89020611  -0.02468638  0.86883596  1
  O2-  O111  1  0.84842880  0.47769881  0.15167112  1
  O2-  O112  1  0.85908058  0.49281826  0.38999339  1
  O2-  O113  1  0.84706410  0.48858239  0.61682295  1
  O2-  O114  1  0.97363142  0.55566295  0.88025349  1
  O2-  O115  1  0.11852457  0.21376312  0.12697026  1
  O2-  O116  1  0.09193312  0.19128059  0.39504398  1
  O2-  O117  1  0.11470503  0.21860738  0.63574365  1
  O2-  O118  1  0.11975305  0.23200401  0.88686470  1
  O2-  O119  1  0.05424481  0.73389246  0.12714485  1
  O2-  O120  1  0.08209699  0.72987981  0.38109191  1
  O2-  O121  1  0.10606609  0.73305726  0.62709763  1
  O2-  O122  1  0.06451940  0.73567947  0.87211357  1
  O2-  O123  1  0.36282722  0.24973054  0.15084711  1
  O2-  O124  1  0.42862801  0.26836430  0.36943469  1
  O2-  O125  1  0.32967719  0.24253944  0.60719578  1
  O2-  O126  1  0.31650640  0.22675231  0.88418252  1
  O2-  O127  1  0.36159606  0.77405557  0.12437750  1
  O2-  O128  1  0.32800876  0.74947233  0.39983523  1
  O2-  O129  1  0.37900994  0.75121152  0.61207738  1
  O2-  O130  1  0.39281796  0.74899237  0.88376825  1
  O2-  O131  1  0.74151717  0.31530427  0.11676035  1
  O2-  O132  1  0.60200716  0.25047205  0.34051392  1
  O2-  O133  1  0.55066651  0.27661684  0.60254994  1
  O2-  O134  1  0.67599043  0.25496463  0.85595970  1
  O2-  O135  1  0.73168118  0.84122878  0.11213670  1
  O2-  O136  1  0.65453565  0.77031798  0.37597294  1
  O2-  O137  1  0.57247060  0.75875768  0.61937190  1
  O2-  O138  1  0.59969040  0.77032308  0.85936485  1
  O2-  O139  1  0.88786885  0.23042686  0.06986448  1
  O2-  O140  1  0.92121169  0.22319807  0.37401511  1
  O2-  O141  1  0.92002048  0.24157063  0.64761036  1
  O2-  O142  1  0.90918603  0.23183334  0.87037021  1
  O2-  O143  1  0.84545328  0.72811164  0.14597125  1
  O2-  O144  1  0.85358335  0.75002073  0.35113186  1
  O2-  O145  1  0.91230144  0.73585408  0.59449735  1
  O2-  O146  1  0.88869545  0.74851229  0.86323239  1
  O2-  O147  1  0.17542548  0.10124220  -0.00015057  1
  O2-  O148  1  0.12579041  0.09831515  0.25691227  1
  O2-  O149  1  0.18378576  0.10221664  0.51340071  1
  O2-  O150  1  0.17789449  0.10354275  0.77201295  1
  O2-  O151  1  0.10572736  0.62619075  -0.00252414  1
  O2-  O152  1  0.09344972  0.62135011  0.25241150  1
  O2-  O153  1  0.15910358  0.62591054  0.49913557  1
  O2-  O154  1  0.08645324  0.60767138  0.74894884  1
  O2-  O155  1  0.38062942  0.13581608  0.01118374  1
  O2-  O156  1  0.43678242  0.12969854  0.26310069  1
  O2-  O157  1  0.45442294  0.14914714  0.50239768  1
  O2-  O158  1  0.38818492  0.14712828  0.75270186  1
  O2-  O159  1  0.34738007  0.63461181  0.00403240  1
  O2-  O160  1  0.34879091  0.64866626  0.25885527  1
  O2-  O161  1  0.34056045  0.61721757  0.50101525  1
  O2-  O162  1  0.38547140  0.63962852  0.74922133  1
  O2-  O163  1  0.65735992  0.15956151  -0.00306471  1
  O2-  O164  1  0.67777916  0.15318116  0.21372772  1
  O2-  O165  1  0.61965039  0.13978841  0.48113022  1
  O2-  O166  1  0.60049078  0.14406924  0.72842850  1
  O2-  O167  1  0.62143249  0.65338790  0.01490905  1
  O2-  O168  1  0.63779763  0.64266951  0.21953412  1
  O2-  O169  1  0.61285506  0.63955064  0.49992635  1
  O2-  O170  1  0.57444350  0.62589398  0.73716562  1
  O2-  O171  1  0.83031625  0.11201231  -0.03050935  1
  O2-  O172  1  0.92491700  0.13502118  0.19591819  1
  O2-  O173  1  0.96429085  0.12338276  0.52039044  1
  O2-  O174  1  0.83780090  0.11050239  0.75101289  1
  O2-  O175  1  0.86058405  0.62954979  -0.00103322  1
  O2-  O176  1  0.90737858  0.61420882  0.25743729  1
  O2-  O177  1  0.79256901  0.64392091  0.50913272  1
  O2-  O178  1  0.87483859  0.62881793  0.73250786  1
  O2-  O179  1  0.15761143  0.34252274  0.01002517  1
  O2-  O180  1  0.12132315  0.34105254  0.27594944  1
  O2-  O181  1  0.12740807  0.36224877  0.47740445  1
  O2-  O182  1  0.15397813  0.34114795  0.75689183  1
  O2-  O183  1  0.11274570  0.83890912  0.01022728  1
  O2-  O184  1  0.12800632  0.84244563  0.24581520  1
  O2-  O185  1  0.13838108  0.84867251  0.49971048  1
  O2-  O186  1  0.08168295  0.85953204  0.74973719  1
  O2-  O187  1  0.34162916  0.36065553  0.01993608  1
  O2-  O188  1  0.40397702  0.38782489  0.25016578  1
  O2-  O189  1  0.39171458  0.37879654  0.50708630  1
  O2-  O190  1  0.34772039  0.35233416  0.74081880  1
  O2-  O191  1  0.31201851  0.88177610  0.00970984  1
  O2-  O192  1  0.35657638  0.87671672  0.25502682  1
  O2-  O193  1  0.30788854  0.88406970  0.51875393  1
  O2-  O194  1  0.38459720  0.86978553  0.74568593  1
  O2-  O195  1  0.64580752  0.36032488  -0.01154414  1
  O2-  O196  1  0.61298286  0.36802845  0.22236891  1
  O2-  O197  1  0.64599915  0.36526663  0.47884628  1
  O2-  O198  1  0.61839203  0.37668353  0.73924824  1
  O2-  O199  1  0.59325487  0.89552130  -0.01120038  1
  O2-  O200  1  0.60025128  0.85737476  0.22314660  1
  O2-  O201  1  0.61066061  0.88724252  0.49309130  1
  O2-  O202  1  0.57078615  0.89493466  0.74656965  1
  O2-  O203  1  0.87569003  0.37909915  -0.04179759  1
  O2-  O204  1  0.92280997  0.33457303  0.24058868  1
  O2-  O205  1  0.91320467  0.35207146  0.51637614  1
  O2-  O206  1  0.91367472  0.38020438  0.74773228  1
  O2-  O207  1  0.89126315  0.83620441  0.01503927  1
  O2-  O208  1  0.81968612  0.88547056  0.25570051  1
  O2-  O209  1  0.81372040  0.85852729  0.49441204  1
  O2-  O210  1  0.90191505  0.85173826  0.72860864  1
  O2-  O211  1  0.00068610  0.11630226  -0.02185374  1
  O2-  O212  1  -0.02649143  -0.13282036  0.17465968  1
  O2-  O213  1  -0.01172771  -0.12741763  0.36081021  1
  O2-  O214  1  0.01106879  0.11420562  0.80433378  1
  O2-  O215  1  0.02330696  0.37442569  0.09962945  1
  O2-  O216  1  -0.00962090  0.55878921  0.10910231  1
  O2-  O217  1  -0.00364353  0.58226984  0.59141655  1
  O2-  O218  1  0.03116521  0.37521891  0.87549399  1
  O2-  O219  1  0.20696660  -0.05171426  0.14029940  1
  O2-  O220  1  0.27200419  0.11225686  0.15113653  1
  O2-  O221  1  0.27954682  0.15452644  0.36460736  1
  O2-  O222  1  0.22819993  -0.16304516  0.86344620  1
  O2-  O223  1  0.22680002  0.66556860  0.12311465  1
  O2-  O224  1  0.21702872  0.53000291  0.35294140  1
  O2-  O225  1  0.26558917  0.36056384  0.37174007  1
  O2-  O226  1  0.23098590  0.65169258  0.86841480  1
  O2-  O227  1  0.51816278  0.17878244  0.11923971  1
  O2-  O228  1  0.55128510  0.01537604  0.13616336  1
  O2-  O229  1  0.48748736  -0.14056800  0.36170787  1
  O2-  O230  1  0.51262948  0.13228167  0.89147770  1
  O2-  O231  1  0.54225234  0.47684233  0.10410706  1
  O2-  O232  1  0.47906930  0.64517118  0.13924315  1
  O2-  O233  1  0.49343817  0.67463189  0.35256048  1
  O2-  O234  1  0.48660188  0.33790524  0.87653192  1
  O2-  O235  1  0.74577446  -0.14650301  -0.07408384  1
  O2-  O236  1  0.76685418  0.14921329  0.35758265  1
  O2-  O237  1  0.79976896  0.13850270  0.53501461  1
  O2-  O238  1  0.73963116  -0.11271340  0.77120465  1
  O2-  O239  1  0.73742723  0.65990553  -0.12709045  1
  O2-  O240  1  0.76719999  0.33565817  0.32703513  1
  O2-  O241  1  0.74583121  0.33849971  0.62291451  1
  O2-  O242  1  0.81327671  0.49837810  0.84200187  1
