# generated using pymatgen
data_Gd19Ta56(WO20)8
_symmetry_space_group_name_H-M   'P 1'
_cell_length_a   15.46589700
_cell_length_b   15.40275879
_cell_length_c   15.19156857
_cell_angle_alpha   90.32943976
_cell_angle_beta   89.68466928
_cell_angle_gamma   89.65495671
_symmetry_Int_Tables_number   1
_chemical_formula_structural   Gd19Ta56(WO20)8
_chemical_formula_sum   'Gd19 Ta56 W8 O160'
_cell_volume   3618.71625454
_cell_formula_units_Z   1
loop_
 _symmetry_equiv_pos_site_id
 _symmetry_equiv_pos_as_xyz
  1  'x, y, z'
loop_
 _atom_type_symbol
 _atom_type_oxidation_number
  Gd3+  3.0
  Ta5+  5.0
  W6+  6.0
  O2-  -2.0
loop_
 _atom_site_type_symbol
 _atom_site_label
 _atom_site_symmetry_multiplicity
 _atom_site_fract_x
 _atom_site_fract_y
 _atom_site_fract_z
 _atom_site_occupancy
  Gd3+  Gd0  1  0.73130023  0.74446549  0.75422926  1
  Gd3+  Gd1  1  0.00088326  0.25457240  0.72410469  1
  Gd3+  Gd2  1  0.47605892  0.26082068  0.50441660  1
  Gd3+  Gd3  1  0.48213306  0.73741514  0.26495823  1
  Gd3+  Gd4  1  0.24900414  0.25895030  0.00357807  1
  Gd3+  Gd5  1  0.20111806  0.26762494  0.54151482  1
  Gd3+  Gd6  1  0.75209187  0.72395598  0.25797863  1
  Gd3+  Gd7  1  -0.00987304  0.72162725  -0.03089340  1
  Gd3+  Gd8  1  0.49258296  0.26495562  -0.00592636  1
  Gd3+  Gd9  1  0.48850771  0.27606618  0.26026482  1
  Gd3+  Gd10  1  0.00192947  0.24351507  0.01662375  1
  Gd3+  Gd11  1  0.76620009  0.23024258  0.00971756  1
  Gd3+  Gd12  1  0.47125567  0.28947360  0.73662170  1
  Gd3+  Gd13  1  0.23786799  0.76376945  0.22966080  1
  Gd3+  Gd14  1  -0.00499562  0.69580433  0.72848973  1
  Gd3+  Gd15  1  0.75250238  0.71708931  0.01198518  1
  Gd3+  Gd16  1  0.77777244  0.19378577  0.70771876  1
  Gd3+  Gd17  1  0.01972913  0.74930424  0.50688841  1
  Gd3+  Gd18  1  0.78781877  0.24217376  0.24157355  1
  Ta5+  Ta19  1  0.88294122  0.52640342  0.59183587  1
  Ta5+  Ta20  1  0.31666878  0.88314789  0.37690736  1
  Ta5+  Ta21  1  0.17881023  0.85882673  0.62710768  1
  Ta5+  Ta22  1  0.10448948  0.09412857  0.61610338  1
  Ta5+  Ta23  1  0.34913650  0.13130095  0.37062123  1
  Ta5+  Ta24  1  0.62240347  0.08743675  0.10240234  1
  Ta5+  Ta25  1  0.86375242  0.88390572  0.63034016  1
  Ta5+  Ta26  1  0.64886658  0.41175926  0.63197620  1
  Ta5+  Ta27  1  0.38469126  0.13124546  0.12777092  1
  Ta5+  Ta28  1  0.15184350  0.63781118  0.37087087  1
  Ta5+  Ta29  1  0.13752848  0.12185036  0.12845230  1
  Ta5+  Ta30  1  0.13705735  0.12506502  0.86095585  1
  Ta5+  Ta31  1  0.87215998  0.40102850  0.12538163  1
  Ta5+  Ta32  1  0.38433604  0.13115396  0.86268611  1
  Ta5+  Ta33  1  0.40592512  0.65011944  0.87436926  1
  Ta5+  Ta34  1  0.20136886  0.65698558  0.61545754  1
  Ta5+  Ta35  1  0.10890931  0.39650039  0.12953523  1
  Ta5+  Ta36  1  0.86223308  0.36874904  0.87220923  1
  Ta5+  Ta37  1  0.13782275  0.63400079  0.10389657  1
  Ta5+  Ta38  1  0.34340273  0.12562775  0.62662225  1
  Ta5+  Ta39  1  0.63787765  0.11762480  0.41661046  1
  Ta5+  Ta40  1  0.60895987  0.89368035  0.12232214  1
  Ta5+  Ta41  1  0.85568755  0.87015905  0.37922904  1
  Ta5+  Ta42  1  0.41205802  0.87888658  0.87388287  1
  Ta5+  Ta43  1  0.37381886  0.67196096  0.62818309  1
  Ta5+  Ta44  1  0.12709416  0.12006137  0.38018672  1
  Ta5+  Ta45  1  0.88703026  0.56866355  0.85098578  1
  Ta5+  Ta46  1  0.14896363  0.62405792  0.85219997  1
  Ta5+  Ta47  1  0.37933717  0.41303161  0.38062222  1
  Ta5+  Ta48  1  0.88140153  0.11222351  0.38143607  1
  Ta5+  Ta49  1  0.36900683  0.88368008  0.11026345  1
  Ta5+  Ta50  1  0.35566610  0.40067350  0.12561319  1
  Ta5+  Ta51  1  0.90419669  0.05187390  0.12879210  1
  Ta5+  Ta52  1  0.10465452  0.88085040  0.11040282  1
  Ta5+  Ta53  1  0.09359375  0.88160535  0.85027309  1
  Ta5+  Ta54  1  0.62254878  0.87423188  0.62085270  1
  Ta5+  Ta55  1  0.61188596  0.61435156  0.37912622  1
  Ta5+  Ta56  1  0.57776666  0.86575346  0.87961242  1
  Ta5+  Ta57  1  0.61433348  0.87798691  0.36696541  1
  Ta5+  Ta58  1  0.11262749  0.38874074  0.37948796  1
  Ta5+  Ta59  1  0.63267145  0.10517367  0.86000065  1
  Ta5+  Ta60  1  0.86809418  0.37438138  0.38790461  1
  Ta5+  Ta61  1  0.37649478  0.64957647  0.10862418  1
  Ta5+  Ta62  1  0.57825109  0.64924051  0.62398598  1
  Ta5+  Ta63  1  0.89539073  0.84411858  0.13663690  1
  Ta5+  Ta64  1  0.14439146  0.87175542  0.37550719  1
  Ta5+  Ta65  1  0.59158589  0.09763676  0.61139876  1
  Ta5+  Ta66  1  0.60596636  0.57944046  0.12444163  1
  Ta5+  Ta67  1  0.10964991  0.45501080  0.62918992  1
  Ta5+  Ta68  1  0.65769279  0.43996145  0.91881567  1
  Ta5+  Ta69  1  0.57065702  0.65826449  0.88317594  1
  Ta5+  Ta70  1  0.63978988  0.39410689  0.15868634  1
  Ta5+  Ta71  1  0.32000223  0.65776666  0.38619258  1
  Ta5+  Ta72  1  0.87205206  0.90545517  0.87462864  1
  Ta5+  Ta73  1  0.34748843  0.87527373  0.62740086  1
  Ta5+  Ta74  1  0.32593199  0.44480706  0.62274752  1
  W6+  W75  1  0.63575849  0.37048588  0.40636719  1
  W6+  W76  1  0.93700193  0.09466653  0.61894729  1
  W6+  W77  1  0.86809893  0.10124530  0.88461785  1
  W6+  W78  1  0.09888938  0.38552688  0.86534515  1
  W6+  W79  1  0.91398949  0.59161173  0.16368530  1
  W6+  W80  1  0.84496400  0.35408227  0.60000933  1
  W6+  W81  1  0.34829627  0.40596659  0.86924292  1
  W6+  W82  1  0.85915991  0.61657799  0.41107822  1
  O2-  O83  1  0.15220781  -0.00247267  0.10232867  1
  O2-  O84  1  0.13605693  -0.00400788  0.37692329  1
  O2-  O85  1  0.15302381  -0.01940167  0.62813212  1
  O2-  O86  1  0.12977360  0.00357348  0.87115416  1
  O2-  O87  1  0.15314194  0.50924980  0.11309857  1
  O2-  O88  1  0.13870987  0.50954711  0.37287417  1
  O2-  O89  1  0.08230639  0.57350646  0.65804197  1
  O2-  O90  1  0.15676198  0.50427696  0.84463603  1
  O2-  O91  1  0.38271311  0.01064993  0.11369366  1
  O2-  O92  1  0.33482220  0.01255643  0.36053262  1
  O2-  O93  1  0.35538417  0.00490047  0.63235629  1
  O2-  O94  1  0.39807772  0.01217207  0.87871421  1
  O2-  O95  1  0.35639835  0.52105386  0.11324171  1
  O2-  O96  1  0.35056632  0.52947638  0.38272972  1
  O2-  O97  1  0.39782006  0.54395493  0.61372803  1
  O2-  O98  1  0.38272681  0.53130308  0.87327375  1
  O2-  O99  1  0.67516677  -0.01570502  0.05753657  1
  O2-  O100  1  0.60971074  0.00908887  0.36943366  1
  O2-  O101  1  0.55481089  -0.01780145  0.63359156  1
  O2-  O102  1  0.60166535  -0.00849326  0.87717429  1
  O2-  O103  1  0.65119295  0.47257755  0.04125181  1
  O2-  O104  1  0.65587162  0.50361879  0.39575855  1
  O2-  O105  1  0.60388965  0.53270217  0.63392775  1
  O2-  O106  1  0.61255444  0.53794844  0.86431786  1
  O2-  O107  1  0.82704044  -0.05010134  0.13356055  1
  O2-  O108  1  0.87517840  -0.00920769  0.34983347  1
  O2-  O109  1  0.94915263  -0.03872142  0.65373585  1
  O2-  O110  1  0.95393672  -0.00956333  0.90426687  1
  O2-  O111  1  0.81257389  0.50952227  0.13034661  1
  O2-  O112  1  0.87440232  0.48719451  0.45206105  1
  O2-  O113  1  0.97303558  0.43977151  0.59305850  1
  O2-  O114  1  0.95735609  0.44764607  0.85618216  1
  O2-  O115  1  0.11246862  0.25439944  0.11866569  1
  O2-  O116  1  0.14704795  0.26181917  0.39752729  1
  O2-  O117  1  0.08090253  0.22589242  0.60538772  1
  O2-  O118  1  0.06914583  0.24042608  0.86657659  1
  O2-  O119  1  0.17121475  0.76520026  0.09963165  1
  O2-  O120  1  0.08391725  0.75344437  0.36561216  1
  O2-  O121  1  0.09994668  0.74794165  0.63804685  1
  O2-  O122  1  0.08874950  0.74353583  0.85140519  1
  O2-  O123  1  0.39468106  0.26840494  0.13466524  1
  O2-  O124  1  0.38650571  0.26293009  0.37785458  1
  O2-  O125  1  0.37926000  0.25477980  0.61824789  1
  O2-  O126  1  0.39228090  0.26919206  0.86184810  1
  O2-  O127  1  0.42771862  0.77342074  0.12527962  1
  O2-  O128  1  0.38896726  0.77195489  0.37788879  1
  O2-  O129  1  0.42442021  0.78083745  0.59323956  1
  O2-  O130  1  0.48120212  0.76549480  0.89589307  1
  O2-  O131  1  0.70678466  0.16037762  0.15092300  1
  O2-  O132  1  0.58784953  0.22926065  0.38656880  1
  O2-  O133  1  0.54721556  0.20951709  0.63692417  1
  O2-  O134  1  0.56481000  0.36536400  0.91630637  1
  O2-  O135  1  0.69178749  0.80109110  0.13302741  1
  O2-  O136  1  0.62121812  0.74517405  0.35329770  1
  O2-  O137  1  0.66207854  0.74865287  0.61320888  1
  O2-  O138  1  0.66965584  0.75722422  0.89109022  1
  O2-  O139  1  0.89603991  0.27057874  0.12519427  1
  O2-  O140  1  0.87640412  0.24422329  0.36609200  1
  O2-  O141  1  0.89794807  0.22856096  0.61225504  1
  O2-  O142  1  0.89041890  0.24791721  0.91224469  1
  O2-  O143  1  0.84843801  0.72113116  0.13284935  1
  O2-  O144  1  0.82636164  0.74699443  0.39049807  1
  O2-  O145  1  0.91500971  0.77304653  0.63412134  1
  O2-  O146  1  0.85718297  0.68569962  0.80767474  1
  O2-  O147  1  0.01174007  0.11406129  0.09928460  1
  O2-  O148  1  0.13689676  0.12638403  0.25109226  1
  O2-  O149  1  0.16333089  0.11789115  0.50070545  1
  O2-  O150  1  0.08685432  0.11982134  0.74547929  1
  O2-  O151  1  0.16691045  0.63819245  -0.02339128  1
  O2-  O152  1  0.14429679  0.64386032  0.23201077  1
  O2-  O153  1  0.13242127  0.65150693  0.49801126  1
  O2-  O154  1  0.20886010  0.65406649  0.74782634  1
  O2-  O155  1  0.36948979  0.16226871  -0.00813447  1
  O2-  O156  1  0.41405084  0.14088033  0.25256552  1
  O2-  O157  1  0.34669552  0.13678123  0.49835207  1
  O2-  O158  1  0.40973963  0.13753894  0.73799557  1
  O2-  O159  1  0.34962698  0.67420671  -0.00741820  1
  O2-  O160  1  0.34910182  0.66037868  0.24371629  1
  O2-  O161  1  0.30560181  0.66683348  0.51332453  1
  O2-  O162  1  0.39017527  0.67814941  0.75354743  1
  O2-  O163  1  0.64093244  0.15240199  -0.01552706  1
  O2-  O164  1  0.74774795  0.13404673  0.35976683  1
  O2-  O165  1  0.69103750  0.10692397  0.53531833  1
  O2-  O166  1  0.65121085  0.10449057  0.72980803  1
  O2-  O167  1  0.62225768  0.64892115  0.01671964  1
  O2-  O168  1  0.64608653  0.61970078  0.24153301  1
  O2-  O169  1  0.57043924  0.64171923  0.49401515  1
  O2-  O170  1  0.58770372  0.67486792  0.75212731  1
  O2-  O171  1  0.84780372  0.10330229  0.03160638  1
  O2-  O172  1  0.87790204  0.11466205  0.23090908  1
  O2-  O173  1  0.87297892  0.08960010  0.49829344  1
  O2-  O174  1  0.90254846  0.12932901  0.75347213  1
  O2-  O175  1  0.86934210  0.62637747  -0.03546063  1
  O2-  O176  1  0.83987921  0.60941423  0.27655838  1
  O2-  O177  1  0.92896467  0.62749373  0.53178823  1
  O2-  O178  1  0.89972152  0.55817972  0.71270173  1
  O2-  O179  1  0.07737735  0.37242056  0.00663317  1
  O2-  O180  1  0.12374372  0.37594602  0.25267593  1
  O2-  O181  1  0.12308077  0.39782661  0.51314007  1
  O2-  O182  1  0.07353067  0.38563395  0.72574542  1
  O2-  O183  1  0.09111221  0.86371613  -0.02497999  1
  O2-  O184  1  0.12721288  0.87149635  0.23540820  1
  O2-  O185  1  0.13274624  0.85244623  0.50444636  1
  O2-  O186  1  0.17619167  0.86181722  0.76206504  1
  O2-  O187  1  0.38222531  0.37215378  0.00277890  1
  O2-  O188  1  0.38511211  0.39493691  0.24963000  1
  O2-  O189  1  0.36044582  0.39577107  0.51007669  1
  O2-  O190  1  0.37634385  0.40644144  0.73027411  1
  O2-  O191  1  0.34625081  0.86959987  -0.01158921  1
  O2-  O192  1  0.33398552  0.87909765  0.23541364  1
  O2-  O193  1  0.32460367  0.88716900  0.49923594  1
  O2-  O194  1  0.38403057  0.86789244  0.75657792  1
  O2-  O195  1  0.56390790  0.30938619  0.11810743  1
  O2-  O196  1  0.66252321  0.33900827  0.26976488  1
  O2-  O197  1  0.57988351  0.36878544  0.53863063  1
  O2-  O198  1  0.71967683  0.30610401  0.63767924  1
  O2-  O199  1  0.56162525  0.86124136  0.01475759  1
  O2-  O200  1  0.55838349  0.86199602  0.24843892  1
  O2-  O201  1  0.59872310  0.87074747  0.48981612  1
  O2-  O202  1  0.62199548  0.85692319  0.74925121  1
  O2-  O203  1  0.88309274  0.39491983  0.00187965  1
  O2-  O204  1  0.84675110  0.38487386  0.26541074  1
  O2-  O205  1  0.76935298  0.35112517  0.46093004  1
  O2-  O206  1  0.86059715  0.33180859  0.74979760  1
  O2-  O207  1  0.87287604  0.83134903  -0.01884969  1
  O2-  O208  1  0.90148088  0.83554365  0.25939025  1
  O2-  O209  1  0.88951567  0.87689916  0.49857290  1
  O2-  O210  1  0.82067702  0.86669033  0.75855386  1
  O2-  O211  1  -0.01370128  -0.05178508  0.12916351  1
  O2-  O212  1  0.00521345  -0.20786267  0.10317157  1
  O2-  O213  1  0.00569002  0.12494345  0.37899206  1
  O2-  O214  1  -0.02096898  -0.14648598  0.80835462  1
  O2-  O215  1  0.01861824  0.62274540  0.07824885  1
  O2-  O216  1  -0.01329269  0.44828876  0.15307067  1
  O2-  O217  1  -0.00668504  0.37884153  0.38551103  1
  O2-  O218  1  0.01205549  0.60735101  0.85896293  1
  O2-  O219  1  0.14569544  0.14885251  -0.01116651  1
  O2-  O220  1  0.26107475  0.15227839  0.12425725  1
  O2-  O221  1  0.23020155  0.15293622  0.65323775  1
  O2-  O222  1  0.25783160  0.14048482  0.84679052  1
  O2-  O223  1  0.22772926  0.34282741  -0.11146012  1
  O2-  O224  1  0.23945221  0.36542557  0.11200618  1
  O2-  O225  1  0.22594563  0.52429506  0.60003893  1
  O2-  O226  1  0.22073073  0.37414327  0.64615068  1
  O2-  O227  1  0.50784792  0.14211301  0.08880254  1
  O2-  O228  1  0.57309661  0.00784742  0.18269941  1
  O2-  O229  1  0.52865045  0.11470928  0.49789870  1
  O2-  O230  1  0.52127543  0.16113833  0.86462774  1
  O2-  O231  1  0.49874558  0.63448317  0.14627513  1
  O2-  O232  1  0.55453023  0.47790154  0.19021596  1
  O2-  O233  1  0.50161244  0.38542860  0.37701223  1
  O2-  O234  1  0.58752527  0.38137389  0.73137491  1
  O2-  O235  1  0.74427411  0.16795761  -0.14533916  1
  O2-  O236  1  0.73386550  -0.11886036  0.33511091  1
  O2-  O237  1  0.74010515  -0.08817379  0.60742492  1
  O2-  O238  1  0.78360860  -0.01160038  0.88004363  1
  O2-  O239  1  0.73851206  0.33994370  -0.08861649  1
  O2-  O240  1  0.74865321  0.33996722  0.11372113  1
  O2-  O241  1  0.76727534  0.47530174  0.61482941  1
  O2-  O242  1  0.78875342  0.48697824  0.86410081  1
