# generated using pymatgen
data_Gd19Ta56(WO20)8
_symmetry_space_group_name_H-M   'P 1'
_cell_length_a   15.51331417
_cell_length_b   15.54125350
_cell_length_c   15.41733463
_cell_angle_alpha   89.66527227
_cell_angle_beta   90.28649968
_cell_angle_gamma   90.00345920
_symmetry_Int_Tables_number   1
_chemical_formula_structural   Gd19Ta56(WO20)8
_chemical_formula_sum   'Gd19 Ta56 W8 O160'
_cell_volume   3716.95317525
_cell_formula_units_Z   1
loop_
 _symmetry_equiv_pos_site_id
 _symmetry_equiv_pos_as_xyz
  1  'x, y, z'
loop_
 _atom_type_symbol
 _atom_type_oxidation_number
  Gd3+  3.0
  Ta5+  5.0
  W6+  6.0
  O2-  -2.0
loop_
 _atom_site_type_symbol
 _atom_site_label
 _atom_site_symmetry_multiplicity
 _atom_site_fract_x
 _atom_site_fract_y
 _atom_site_fract_z
 _atom_site_occupancy
  Gd3+  Gd0  1  0.50843530  0.25001906  0.50849420  1
  Gd3+  Gd1  1  0.74391004  0.75670694  0.25554489  1
  Gd3+  Gd2  1  0.03530794  0.74862888  0.78346061  1
  Gd3+  Gd3  1  0.77066589  0.23721836  0.53421108  1
  Gd3+  Gd4  1  0.25522141  0.26180274  0.48082280  1
  Gd3+  Gd5  1  0.51081909  0.21668144  0.75684994  1
  Gd3+  Gd6  1  -0.01227233  0.75740985  0.22131964  1
  Gd3+  Gd7  1  -0.01550972  0.23607315  0.22970643  1
  Gd3+  Gd8  1  0.77669641  0.25301534  0.03178097  1
  Gd3+  Gd9  1  0.24268944  0.74093821  0.49543047  1
  Gd3+  Gd10  1  0.02578734  0.25962731  0.73408932  1
  Gd3+  Gd11  1  0.26691560  0.27919581  0.76723991  1
  Gd3+  Gd12  1  0.75497731  0.73392640  0.75666093  1
  Gd3+  Gd13  1  0.02286913  0.27601300  -0.00554493  1
  Gd3+  Gd14  1  0.50096965  0.73526999  0.01482795  1
  Gd3+  Gd15  1  0.75352205  0.73526195  0.51072266  1
  Gd3+  Gd16  1  0.26019748  0.24468470  0.22459800  1
  Gd3+  Gd17  1  -0.00816753  0.23473536  0.49437931  1
  Gd3+  Gd18  1  0.46309616  0.75431278  0.77345105  1
  Ta5+  Ta19  1  0.39857984  0.38057354  0.36331969  1
  Ta5+  Ta20  1  0.36298685  0.86929729  0.36698333  1
  Ta5+  Ta21  1  0.63451610  0.09953307  0.62327597  1
  Ta5+  Ta22  1  0.64111322  0.36956423  0.38261019  1
  Ta5+  Ta23  1  0.61094799  0.61478538  0.37219853  1
  Ta5+  Ta24  1  0.33276730  0.62689685  0.09722017  1
  Ta5+  Ta25  1  0.18150787  0.86821825  0.86794834  1
  Ta5+  Ta26  1  0.63739562  0.37432738  0.12995070  1
  Ta5+  Ta27  1  0.59957017  0.35825827  0.88919431  1
  Ta5+  Ta28  1  0.85996216  0.39184144  0.86744885  1
  Ta5+  Ta29  1  0.14167260  0.39940882  0.11988324  1
  Ta5+  Ta30  1  0.40340413  0.11982461  0.11444609  1
  Ta5+  Ta31  1  0.36774546  0.62466243  0.62737863  1
  Ta5+  Ta32  1  0.87139655  0.13663024  0.87104339  1
  Ta5+  Ta33  1  0.15002422  0.60739209  0.88691783  1
  Ta5+  Ta34  1  0.87942868  0.38452487  0.36184825  1
  Ta5+  Ta35  1  0.88656972  0.40314953  0.11759191  1
  Ta5+  Ta36  1  0.91689070  0.62915319  0.62944026  1
  Ta5+  Ta37  1  0.60582557  0.86978868  0.38284674  1
  Ta5+  Ta38  1  0.12744370  0.12200796  0.10967514  1
  Ta5+  Ta39  1  0.83324258  0.63750601  0.11463878  1
  Ta5+  Ta40  1  0.13452020  0.64240209  0.11562203  1
  Ta5+  Ta41  1  0.61141261  0.61717727  0.63032310  1
  Ta5+  Ta42  1  0.36910768  0.11689041  0.36539591  1
  Ta5+  Ta43  1  0.64014894  0.37309349  0.63994317  1
  Ta5+  Ta44  1  0.88820131  0.07001408  0.11901016  1
  Ta5+  Ta45  1  0.13673647  0.39550900  0.61124733  1
  Ta5+  Ta46  1  0.87844540  0.39051443  0.66594523  1
  Ta5+  Ta47  1  0.62615983  0.60707474  0.88304590  1
  Ta5+  Ta48  1  0.38947861  0.38504327  0.11334435  1
  Ta5+  Ta49  1  0.36055278  0.87841308  0.62277180  1
  Ta5+  Ta50  1  0.36218858  0.88110291  0.11950522  1
  Ta5+  Ta51  1  0.61268379  0.87125221  0.13434410  1
  Ta5+  Ta52  1  0.36630791  0.10860634  0.87795113  1
  Ta5+  Ta53  1  0.88245276  0.87745034  0.63110748  1
  Ta5+  Ta54  1  0.10105622  0.87946864  0.62060659  1
  Ta5+  Ta55  1  0.34793026  0.89444671  0.88238789  1
  Ta5+  Ta56  1  0.35218152  0.12375383  0.62314773  1
  Ta5+  Ta57  1  0.60981505  0.11645086  0.37858122  1
  Ta5+  Ta58  1  0.88528888  0.62995798  0.37521427  1
  Ta5+  Ta59  1  0.35078019  0.58440498  0.88515116  1
  Ta5+  Ta60  1  0.85089200  0.88506205  0.10527691  1
  Ta5+  Ta61  1  0.59106316  0.11000627  0.94955823  1
  Ta5+  Ta62  1  0.10117999  0.63370189  0.36911183  1
  Ta5+  Ta63  1  0.13279201  0.11533590  0.86348107  1
  Ta5+  Ta64  1  0.66521798  0.62055234  0.12575204  1
  Ta5+  Ta65  1  0.10986515  0.87457203  0.37016988  1
  Ta5+  Ta66  1  0.08427155  0.62756106  0.62325715  1
  Ta5+  Ta67  1  0.87561974  0.63589463  0.88416762  1
  Ta5+  Ta68  1  0.43209513  0.36111539  0.88527628  1
  Ta5+  Ta69  1  0.59843437  0.86089188  0.62260459  1
  Ta5+  Ta70  1  0.14541309  0.11753087  0.61753913  1
  Ta5+  Ta71  1  0.86963519  0.88310053  0.38143975  1
  Ta5+  Ta72  1  0.11947689  0.11417761  0.36987660  1
  Ta5+  Ta73  1  0.63290666  0.11723173  0.14138036  1
  Ta5+  Ta74  1  0.10211707  0.38710567  0.36961528  1
  W6+  W75  1  0.13493718  0.88114586  0.11213136  1
  W6+  W76  1  0.86156484  0.12515248  0.35877007  1
  W6+  W77  1  0.59774131  0.87150151  0.88161150  1
  W6+  W78  1  0.15034951  0.40584743  0.86650480  1
  W6+  W79  1  0.84049988  0.05540500  0.71938772  1
  W6+  W80  1  0.38905247  0.37661309  0.62781214  1
  W6+  W81  1  0.35132736  0.62047434  0.35539823  1
  W6+  W82  1  0.88559647  0.89227474  0.85905339  1
  O2-  O83  1  0.17154597  0.01184316  0.11351311  1
  O2-  O84  1  0.14757778  -0.00683616  0.36735394  1
  O2-  O85  1  0.14906077  -0.00247880  0.62769904  1
  O2-  O86  1  0.15752388  0.00044179  0.85635628  1
  O2-  O87  1  0.15026348  0.51681487  0.14182529  1
  O2-  O88  1  0.10344008  0.50895778  0.36288566  1
  O2-  O89  1  0.14970351  0.51221344  0.61345369  1
  O2-  O90  1  0.07226377  0.51366035  0.86888466  1
  O2-  O91  1  0.41298111  -0.00162515  0.13635159  1
  O2-  O92  1  0.37370850  0.00053085  0.38104361  1
  O2-  O93  1  0.37539966  0.00645075  0.60682151  1
  O2-  O94  1  0.42198050  0.00325216  0.88436166  1
  O2-  O95  1  0.36298845  0.50233928  0.09631110  1
  O2-  O96  1  0.35465102  0.48828272  0.38203542  1
  O2-  O97  1  0.35791335  0.50714810  0.63514160  1
  O2-  O98  1  0.41967637  0.48786008  0.87966278  1
  O2-  O99  1  0.60238137  -0.00642185  0.13939951  1
  O2-  O100  1  0.61609130  -0.00665118  0.39609825  1
  O2-  O101  1  0.63161383  -0.02357037  0.60897202  1
  O2-  O102  1  0.60875536  0.00750885  0.89694001  1
  O2-  O103  1  0.65601035  0.49459825  0.12592730  1
  O2-  O104  1  0.63291579  0.49125144  0.38762588  1
  O2-  O105  1  0.61848668  0.49535822  0.63901663  1
  O2-  O106  1  0.61616853  0.48808164  0.88207862  1
  O2-  O107  1  0.95353438  -0.03848610  0.12538955  1
  O2-  O108  1  0.82842673  -0.00724406  0.36948001  1
  O2-  O109  1  0.78874766  -0.06779916  0.68013703  1
  O2-  O110  1  0.91739492  0.02347236  0.83981755  1
  O2-  O111  1  0.86683209  0.51819026  0.14179285  1
  O2-  O112  1  0.87148057  0.50803881  0.36680729  1
  O2-  O113  1  0.88717957  0.50706616  0.63597919  1
  O2-  O114  1  0.86895322  0.51087869  0.86149649  1
  O2-  O115  1  0.12917310  0.25375640  0.10439961  1
  O2-  O116  1  0.11151365  0.25105759  0.39009260  1
  O2-  O117  1  0.10043579  0.24131086  0.60164147  1
  O2-  O118  1  0.09703450  0.26377004  0.86526733  1
  O2-  O119  1  0.08462901  0.75760361  0.11049232  1
  O2-  O120  1  0.15486045  0.75847192  0.37006810  1
  O2-  O121  1  0.06318179  0.75668650  0.62584169  1
  O2-  O122  1  0.16385074  0.73471536  0.86690956  1
  O2-  O123  1  0.38002278  0.24563856  0.13527088  1
  O2-  O124  1  0.33319809  0.27118068  0.34907933  1
  O2-  O125  1  0.42383950  0.23438173  0.63181091  1
  O2-  O126  1  0.41084524  0.22933081  0.87298336  1
  O2-  O127  1  0.36552084  0.75675387  0.09529861  1
  O2-  O128  1  0.33173509  0.75213549  0.37139966  1
  O2-  O129  1  0.33034384  0.75312102  0.63427509  1
  O2-  O130  1  0.39966284  0.78434280  0.89986976  1
  O2-  O131  1  0.64788886  0.24042913  0.13417392  1
  O2-  O132  1  0.65400768  0.23091924  0.41350937  1
  O2-  O133  1  0.62493270  0.23806707  0.62282023  1
  O2-  O134  1  0.59577667  0.21817385  0.89086735  1
  O2-  O135  1  0.59897608  0.73970361  0.14770138  1
  O2-  O136  1  0.64449334  0.74243480  0.37259757  1
  O2-  O137  1  0.66200133  0.74721496  0.63399476  1
  O2-  O138  1  0.56861741  0.72907608  0.87640724  1
  O2-  O139  1  0.91277905  0.26670417  0.09894691  1
  O2-  O140  1  0.90388313  0.25638033  0.35663151  1
  O2-  O141  1  0.89460564  0.28476903  0.59994829  1
  O2-  O142  1  0.88876512  0.26209861  0.91004795  1
  O2-  O143  1  0.88474308  0.76453563  0.11306585  1
  O2-  O144  1  0.82401443  0.75705387  0.38213856  1
  O2-  O145  1  0.84574485  0.75037420  0.63512224  1
  O2-  O146  1  0.85460241  0.76094455  0.86892510  1
  O2-  O147  1  0.08931981  0.12981122  -0.01787831  1
  O2-  O148  1  0.14527882  0.14635045  0.23832451  1
  O2-  O149  1  0.08621713  0.11210432  0.49340280  1
  O2-  O150  1  0.09169509  0.12607473  0.74190994  1
  O2-  O151  1  0.09895141  0.62129982  0.00116132  1
  O2-  O152  1  0.09158262  0.64689453  0.24065598  1
  O2-  O153  1  0.12125627  0.64366477  0.49547809  1
  O2-  O154  1  0.11206894  0.62879169  0.74673421  1
  O2-  O155  1  0.34615171  0.11604595  0.00870608  1
  O2-  O156  1  0.35063596  0.12330627  0.23882428  1
  O2-  O157  1  0.39060608  0.15745803  0.48723471  1
  O2-  O158  1  0.39009256  0.11647848  0.74779877  1
  O2-  O159  1  0.41799028  0.62285549  -0.01343590  1
  O2-  O160  1  0.33293012  0.62720424  0.21736611  1
  O2-  O161  1  0.34960537  0.63408458  0.50507621  1
  O2-  O162  1  0.37047021  0.63572172  0.77033879  1
  O2-  O163  1  0.69149217  0.12076930  0.02381689  1
  O2-  O164  1  0.65511122  0.11486649  0.26460908  1
  O2-  O165  1  0.57506294  0.11529315  0.51214850  1
  O2-  O166  1  0.57675609  0.09670327  0.72673689  1
  O2-  O167  1  0.61386310  0.62777826  0.00719643  1
  O2-  O168  1  0.67137260  0.61858048  0.26229341  1
  O2-  O169  1  0.63658539  0.62830831  0.50240976  1
  O2-  O170  1  0.64125676  0.62842653  0.75213950  1
  O2-  O171  1  0.86870991  0.11563870  0.00508938  1
  O2-  O172  1  0.86389643  0.14015216  0.21751271  1
  O2-  O173  1  0.87557992  0.15118587  0.49033258  1
  O2-  O174  1  0.91014700  0.17624773  0.75681643  1
  O2-  O175  1  0.89301562  0.63101834  0.00288304  1
  O2-  O176  1  0.86538467  0.65922965  0.24839007  1
  O2-  O177  1  0.87443549  0.63663054  0.50222277  1
  O2-  O178  1  0.91788070  0.64954093  0.75902981  1
  O2-  O179  1  0.15760359  0.39468118  0.00077844  1
  O2-  O180  1  0.11289265  0.35700936  0.24916117  1
  O2-  O181  1  0.16540095  0.38298974  0.48207074  1
  O2-  O182  1  0.14756543  0.36583876  0.73460960  1
  O2-  O183  1  0.15088773  0.87384990  -0.01715840  1
  O2-  O184  1  0.08834452  0.86930293  0.24846199  1
  O2-  O185  1  0.14440641  0.86122250  0.50385657  1
  O2-  O186  1  0.13595819  0.85886870  0.74091667  1
  O2-  O187  1  0.37655671  0.35303901  -0.00470539  1
  O2-  O188  1  0.40559819  0.38848197  0.24283029  1
  O2-  O189  1  0.38285781  0.34396201  0.49137945  1
  O2-  O190  1  0.38811021  0.35982322  0.76313725  1
  O2-  O191  1  0.32717441  0.91141849  0.00822398  1
  O2-  O192  1  0.33402247  0.87986097  0.24793309  1
  O2-  O193  1  0.32824347  0.86940839  0.49338882  1
  O2-  O194  1  0.37771728  0.88179370  0.74746315  1
  O2-  O195  1  0.65999240  0.35087255  0.00326406  1
  O2-  O196  1  0.64097412  0.36524786  0.26179196  1
  O2-  O197  1  0.60352507  0.36789858  0.51757609  1
  O2-  O198  1  0.59709213  0.34714963  0.75484072  1
  O2-  O199  1  0.57799898  0.86439869  0.01618154  1
  O2-  O200  1  0.64941795  0.87427345  0.26728402  1
  O2-  O201  1  0.64670387  0.84584836  0.49885621  1
  O2-  O202  1  0.58063627  0.85646763  0.74408693  1
  O2-  O203  1  0.85031151  0.39702629  -0.00521962  1
  O2-  O204  1  0.92006590  0.37854069  0.24465759  1
  O2-  O205  1  0.76669444  0.36057703  0.41160248  1
  O2-  O206  1  0.95024724  0.37693442  0.77416069  1
  O2-  O207  1  0.85064786  0.90263374  -0.01192840  1
  O2-  O208  1  0.86673367  0.85740592  0.25495451  1
  O2-  O209  1  0.83663947  0.86727206  0.50568962  1
  O2-  O210  1  0.94269971  0.85436810  0.74117990  1
  O2-  O211  1  0.00816630  0.12051175  0.13458808  1
  O2-  O212  1  0.00230671  0.11697254  0.33257289  1
  O2-  O213  1  -0.00967134  -0.11343428  0.39882945  1
  O2-  O214  1  -0.00909702  -0.07321875  0.58936877  1
  O2-  O215  1  0.01400138  0.39769769  0.09298796  1
  O2-  O216  1  -0.01076589  0.38083497  0.42733487  1
  O2-  O217  1  -0.00961542  0.69935579  0.37177347  1
  O2-  O218  1  0.01571119  0.38913767  0.61881178  1
  O2-  O219  1  0.24511148  0.16395928  -0.13276298  1
  O2-  O220  1  0.24540840  0.13979101  0.37781767  1
  O2-  O221  1  0.24724068  0.12353598  0.54278636  1
  O2-  O222  1  0.24587033  0.15922643  0.68969386  1
  O2-  O223  1  0.26196346  0.62144248  -0.02655713  1
  O2-  O224  1  0.26077032  0.36903651  0.14973891  1
  O2-  O225  1  0.25549794  0.32907587  0.61753798  1
  O2-  O226  1  0.23970688  0.52350663  0.84601753  1
  O2-  O227  1  0.52030057  0.13304181  0.06194256  1
  O2-  O228  1  0.49498359  0.14741168  0.35112613  1
  O2-  O229  1  0.48657569  -0.14369482  0.37713066  1
  O2-  O230  1  0.48180991  -0.14837776  0.59313176  1
  O2-  O231  1  0.51548473  0.37854089  0.11311772  1
  O2-  O232  1  0.51541481  0.33970787  0.38146653  1
  O2-  O233  1  0.49648172  0.62267854  0.35825192  1
  O2-  O234  1  0.49205290  0.65293434  0.63741969  1
  O2-  O235  1  0.73199487  -0.15757510  0.11992345  1
  O2-  O236  1  0.79059511  -0.00034034  0.13826212  1
  O2-  O237  1  0.75397542  0.12134150  0.62562626  1
  O2-  O238  1  0.76243009  0.11739474  0.82897234  1
  O2-  O239  1  0.74701179  0.63130851  -0.11918976  1
  O2-  O240  1  0.77171219  0.35683943  0.13993069  1
  O2-  O241  1  0.75776085  0.37343270  0.60400605  1
  O2-  O242  1  0.79173809  0.37053252  0.76170698  1
