# generated using pymatgen
data_Gd19Ta56(WO20)8
_symmetry_space_group_name_H-M   'P 1'
_cell_length_a   15.50395722
_cell_length_b   15.49272948
_cell_length_c   15.32108188
_cell_angle_alpha   90.07582714
_cell_angle_beta   90.00625951
_cell_angle_gamma   90.10314691
_symmetry_Int_Tables_number   1
_chemical_formula_structural   Gd19Ta56(WO20)8
_chemical_formula_sum   'Gd19 Ta56 W8 O160'
_cell_volume   3680.09343882
_cell_formula_units_Z   1
loop_
 _symmetry_equiv_pos_site_id
 _symmetry_equiv_pos_as_xyz
  1  'x, y, z'
loop_
 _atom_type_symbol
 _atom_type_oxidation_number
  Gd3+  3.0
  Ta5+  5.0
  W6+  6.0
  O2-  -2.0
loop_
 _atom_site_type_symbol
 _atom_site_label
 _atom_site_symmetry_multiplicity
 _atom_site_fract_x
 _atom_site_fract_y
 _atom_site_fract_z
 _atom_site_occupancy
  Gd3+  Gd0  1  0.49241075  0.74437133  0.01741144  1
  Gd3+  Gd1  1  0.01199987  0.75042135  0.00047246  1
  Gd3+  Gd2  1  -0.00294576  0.74802567  0.75582211  1
  Gd3+  Gd3  1  0.20138147  0.73369948  0.49151982  1
  Gd3+  Gd4  1  -0.01549462  0.75364642  0.48373771  1
  Gd3+  Gd5  1  0.76906175  0.25722721  0.47740239  1
  Gd3+  Gd6  1  0.50333481  0.25332544  0.23623232  1
  Gd3+  Gd7  1  0.77461303  0.73515676  0.52107996  1
  Gd3+  Gd8  1  -0.05848419  0.23976250  0.01867641  1
  Gd3+  Gd9  1  -0.01698018  0.26673873  0.25655808  1
  Gd3+  Gd10  1  0.49586257  0.22525338  -0.00400164  1
  Gd3+  Gd11  1  0.50209402  0.74716881  0.74621337  1
  Gd3+  Gd12  1  0.53262810  0.24711443  0.76204749  1
  Gd3+  Gd13  1  0.25158191  0.22991833  -0.00388633  1
  Gd3+  Gd14  1  0.25078821  0.24849010  0.50455840  1
  Gd3+  Gd15  1  0.51234488  0.74113163  0.49266357  1
  Gd3+  Gd16  1  0.51086758  0.71277957  0.25320559  1
  Gd3+  Gd17  1  0.24709460  0.23297808  0.76134730  1
  Gd3+  Gd18  1  0.26468558  0.26134546  0.24632280  1
  Ta5+  Ta19  1  0.13178374  0.38420686  0.37803248  1
  Ta5+  Ta20  1  0.11665045  0.40146695  0.12342693  1
  Ta5+  Ta21  1  0.87610003  0.87663371  0.12122030  1
  Ta5+  Ta22  1  0.35097502  0.41372054  0.09310804  1
  Ta5+  Ta23  1  0.15040020  0.64402717  0.12756032  1
  Ta5+  Ta24  1  0.64963372  0.87459797  0.62833684  1
  Ta5+  Ta25  1  0.63097238  0.38808502  0.87905809  1
  Ta5+  Ta26  1  0.59475850  0.38053646  0.61758071  1
  Ta5+  Ta27  1  0.84876690  0.87163217  0.36874867  1
  Ta5+  Ta28  1  0.36359668  0.86852497  0.37500763  1
  Ta5+  Ta29  1  0.38654074  0.11295156  0.62960640  1
  Ta5+  Ta30  1  0.90107234  0.88550647  0.62791940  1
  Ta5+  Ta31  1  0.69263123  0.59215512  0.11420042  1
  Ta5+  Ta32  1  0.64347654  0.61996468  0.63155253  1
  Ta5+  Ta33  1  0.88451888  0.61719696  0.35694886  1
  Ta5+  Ta34  1  0.89217436  0.40841993  0.38065217  1
  Ta5+  Ta35  1  0.35680293  0.62528531  0.62128002  1
  Ta5+  Ta36  1  0.09143089  0.11895182  0.88662894  1
  Ta5+  Ta37  1  0.82862591  0.12503504  0.88116618  1
  Ta5+  Ta38  1  0.87267190  0.88130541  0.88246120  1
  Ta5+  Ta39  1  0.37744733  0.38700092  0.88404663  1
  Ta5+  Ta40  1  0.86775623  0.61856108  0.87877690  1
  Ta5+  Ta41  1  0.08310103  0.61561869  0.61823843  1
  Ta5+  Ta42  1  0.40797577  0.38054950  0.42223184  1
  Ta5+  Ta43  1  0.32754199  0.83845142  0.12620099  1
  Ta5+  Ta44  1  0.67965317  0.87452439  0.37025328  1
  Ta5+  Ta45  1  0.60500245  0.09174043  0.12387508  1
  Ta5+  Ta46  1  0.87795386  0.13295137  0.63320387  1
  Ta5+  Ta47  1  0.07284669  0.88289574  0.61818044  1
  Ta5+  Ta48  1  0.06490062  0.61017796  0.35885279  1
  Ta5+  Ta49  1  0.31806926  0.64193383  0.13408275  1
  Ta5+  Ta50  1  0.64087759  0.39426584  0.12805776  1
  Ta5+  Ta51  1  0.90041134  0.11169932  0.37982281  1
  Ta5+  Ta52  1  0.87661657  0.42289050  0.12803693  1
  Ta5+  Ta53  1  0.13614841  0.88578019  0.86852389  1
  Ta5+  Ta54  1  0.10676102  0.12933586  0.37231300  1
  Ta5+  Ta55  1  0.40644560  0.08750614  0.84408627  1
  Ta5+  Ta56  1  0.39490532  0.11837653  0.38427435  1
  Ta5+  Ta57  1  0.61151869  0.12004889  0.61175157  1
  Ta5+  Ta58  1  0.11274642  0.37583821  0.88185951  1
  Ta5+  Ta59  1  0.64464401  0.87757746  0.12333382  1
  Ta5+  Ta60  1  0.17051765  0.07756802  0.14039254  1
  Ta5+  Ta61  1  0.37327891  0.61668732  0.87604927  1
  Ta5+  Ta62  1  0.11748846  0.37792026  0.62910379  1
  Ta5+  Ta63  1  0.88070686  0.37249512  0.62970954  1
  Ta5+  Ta64  1  0.61321766  0.38109875  0.39119408  1
  Ta5+  Ta65  1  0.85862003  0.63042813  0.10771256  1
  Ta5+  Ta66  1  0.13418099  0.62414285  0.87159983  1
  Ta5+  Ta67  1  0.12044782  0.88063013  0.36342492  1
  Ta5+  Ta68  1  0.63771541  0.87660739  0.87910415  1
  Ta5+  Ta69  1  0.87156233  0.37380182  0.87900968  1
  Ta5+  Ta70  1  0.83941893  0.10028939  0.15101811  1
  Ta5+  Ta71  1  0.66106286  0.63234414  0.90754083  1
  Ta5+  Ta72  1  0.91116449  0.61124592  0.62645703  1
  Ta5+  Ta73  1  0.35984951  0.06704562  0.15526209  1
  Ta5+  Ta74  1  0.16249118  0.85736859  0.11913060  1
  W6+  W75  1  0.37758069  0.87281489  0.61470639  1
  W6+  W76  1  0.34473563  0.37774413  0.66305418  1
  W6+  W77  1  0.12113178  0.12349860  0.62292990  1
  W6+  W78  1  0.36324576  0.61555193  0.37908167  1
  W6+  W79  1  0.35439674  0.84973738  0.87223741  1
  W6+  W80  1  0.64614044  0.12209945  0.37072124  1
  W6+  W81  1  0.66372986  0.12807273  0.87386217  1
  W6+  W82  1  0.66133006  0.62893238  0.36261321  1
  O2-  O83  1  0.10765490  -0.01863363  0.11189086  1
  O2-  O84  1  0.11407853  0.00778364  0.36463486  1
  O2-  O85  1  0.10621140  -0.00293425  0.61799339  1
  O2-  O86  1  0.08023232  -0.00289030  0.88993298  1
  O2-  O87  1  0.11492823  0.51663442  0.10565853  1
  O2-  O88  1  0.14817186  0.49994334  0.36320984  1
  O2-  O89  1  0.12877577  0.49626578  0.62991041  1
  O2-  O90  1  0.11793465  0.49667513  0.88762723  1
  O2-  O91  1  0.37761984  -0.03757093  0.10244316  1
  O2-  O92  1  0.37988124  -0.00014613  0.37619627  1
  O2-  O93  1  0.34390063  0.00324046  0.61254619  1
  O2-  O94  1  0.42306804  -0.02493911  0.87335045  1
  O2-  O95  1  0.38401992  0.51940916  0.13367878  1
  O2-  O96  1  0.35651947  0.47665975  0.37887040  1
  O2-  O97  1  0.35272345  0.50962462  0.64369374  1
  O2-  O98  1  0.42093558  0.50459566  0.85797031  1
  O2-  O99  1  0.56762013  -0.02442725  0.12574160  1
  O2-  O100  1  0.65118116  -0.00975700  0.38177655  1
  O2-  O101  1  0.62270118  -0.00843086  0.61582402  1
  O2-  O102  1  0.64976941  -0.00732181  0.88312169  1
  O2-  O103  1  0.58714874  0.49867252  0.12041411  1
  O2-  O104  1  0.63771394  0.49613375  0.37826863  1
  O2-  O105  1  0.61207351  0.50520175  0.60671073  1
  O2-  O106  1  0.63066790  0.51761477  0.87874619  1
  O2-  O107  1  0.90739834  0.00247298  0.14023025  1
  O2-  O108  1  0.89635709  -0.00745181  0.38525122  1
  O2-  O109  1  0.87826568  0.01122706  0.62621157  1
  O2-  O110  1  0.85170302  0.00164861  0.88377506  1
  O2-  O111  1  0.93392877  0.52287608  0.11097941  1
  O2-  O112  1  0.81661038  0.50360088  0.36716833  1
  O2-  O113  1  0.86470204  0.49108919  0.63615209  1
  O2-  O114  1  0.84291250  0.49321483  0.88390083  1
  O2-  O115  1  -0.00179795  0.35315744  0.11541475  1
  O2-  O116  1  0.17464538  0.25541203  0.37139637  1
  O2-  O117  1  0.16621016  0.25607526  0.63432098  1
  O2-  O118  1  0.15588088  0.24660520  0.88259902  1
  O2-  O119  1  0.09030775  0.75468573  0.13170374  1
  O2-  O120  1  0.09663583  0.74790354  0.37822910  1
  O2-  O121  1  0.09308156  0.74948159  0.60725630  1
  O2-  O122  1  0.09680404  0.75237048  0.86698166  1
  O2-  O123  1  0.47349098  0.13313531  0.11507415  1
  O2-  O124  1  0.35646896  0.27134089  0.37842348  1
  O2-  O125  1  0.34059767  0.23165897  0.64287412  1
  O2-  O126  1  0.39530594  0.26980416  0.82626158  1
  O2-  O127  1  0.41367590  0.73247736  0.14433953  1
  O2-  O128  1  0.41665891  0.74801765  0.36955730  1
  O2-  O129  1  0.42313628  0.74441027  0.61243590  1
  O2-  O130  1  0.43448170  0.73041798  0.87878544  1
  O2-  O131  1  0.55872082  0.30243605  0.10673863  1
  O2-  O132  1  0.65529441  0.26170980  0.38009157  1
  O2-  O133  1  0.59552462  0.25049775  0.62055863  1
  O2-  O134  1  0.64633460  0.26580619  0.86272915  1
  O2-  O135  1  0.57491239  0.78026320  0.14421271  1
  O2-  O136  1  0.60872447  0.76229952  0.35499920  1
  O2-  O137  1  0.59941593  0.75238473  0.62710293  1
  O2-  O138  1  0.60378836  0.73826750  0.87722795  1
  O2-  O139  1  0.89323451  0.21454578  0.15413878  1
  O2-  O140  1  0.87064545  0.26950954  0.36536284  1
  O2-  O141  1  0.82178281  0.25830880  0.61994614  1
  O2-  O142  1  0.83611790  0.25518236  0.89742556  1
  O2-  O143  1  0.88317704  0.75386519  0.09369962  1
  O2-  O144  1  0.86706201  0.74228157  0.37755143  1
  O2-  O145  1  0.90153114  0.74581660  0.62805458  1
  O2-  O146  1  0.90880307  0.75080218  0.87912102  1
  O2-  O147  1  0.14121204  0.12933890  0.00944938  1
  O2-  O148  1  0.14506847  0.16056355  0.24014359  1
  O2-  O149  1  0.16419886  0.12880727  0.48631536  1
  O2-  O150  1  0.12684742  0.12826863  0.76890567  1
  O2-  O151  1  0.13561613  0.64871001  -0.00524639  1
  O2-  O152  1  0.10879373  0.62371641  0.24705760  1
  O2-  O153  1  0.10106999  0.62051065  0.48729004  1
  O2-  O154  1  0.10045285  0.62785951  0.74986207  1
  O2-  O155  1  0.34997167  0.13815065  -0.05817467  1
  O2-  O156  1  0.37603643  0.15622689  0.26268105  1
  O2-  O157  1  0.35085638  0.14073519  0.49817681  1
  O2-  O158  1  0.31466122  0.10452804  0.75759491  1
  O2-  O159  1  0.36799159  0.63175195  -0.00120037  1
  O2-  O160  1  0.31625115  0.63540047  0.25560206  1
  O2-  O161  1  0.42150491  0.61604833  0.51120114  1
  O2-  O162  1  0.38976447  0.64528350  0.74473606  1
  O2-  O163  1  0.62673736  0.14702476  0.01713864  1
  O2-  O164  1  0.60864950  0.14767955  0.23383572  1
  O2-  O165  1  0.67791527  0.13453177  0.50968814  1
  O2-  O166  1  0.64896064  0.13211027  0.72943565  1
  O2-  O167  1  0.60873900  0.64490805  0.02421672  1
  O2-  O168  1  0.66221201  0.63021650  0.22425281  1
  O2-  O169  1  0.64151188  0.65267152  0.50258982  1
  O2-  O170  1  0.59059692  0.62632576  0.74107885  1
  O2-  O171  1  0.84422778  0.12799795  0.01914189  1
  O2-  O172  1  0.82077137  0.11621346  0.27937861  1
  O2-  O173  1  0.85430557  0.13558596  0.49880131  1
  O2-  O174  1  0.84644816  0.13517113  0.75510937  1
  O2-  O175  1  0.93530071  0.62264332  -0.01530851  1
  O2-  O176  1  0.87006207  0.63066203  0.23219949  1
  O2-  O177  1  0.88073475  0.62572474  0.49886799  1
  O2-  O178  1  0.91659282  0.61443145  0.76470809  1
  O2-  O179  1  0.14527525  0.35165250  0.00989494  1
  O2-  O180  1  0.11439457  0.35275920  0.24490415  1
  O2-  O181  1  0.15402605  0.37087040  0.50295144  1
  O2-  O182  1  0.10935162  0.36507516  0.75908269  1
  O2-  O183  1  0.13533495  0.85352813  -0.01034501  1
  O2-  O184  1  0.14526855  0.86876913  0.24687476  1
  O2-  O185  1  0.07372377  0.87590252  0.48747246  1
  O2-  O186  1  0.09150762  0.86994495  0.74966826  1
  O2-  O187  1  0.38026672  0.31421854  0.00131811  1
  O2-  O188  1  0.38945816  0.32564714  0.17759148  1
  O2-  O189  1  0.34442765  0.36417232  0.52605145  1
  O2-  O190  1  0.28683246  0.38794799  0.79842907  1
  O2-  O191  1  0.35929205  0.82365914  0.00261950  1
  O2-  O192  1  0.34733569  0.85840083  0.25486439  1
  O2-  O193  1  0.43019805  0.86972481  0.48924470  1
  O2-  O194  1  0.39127064  0.85169015  0.74121979  1
  O2-  O195  1  0.67086916  0.38468248  -0.00476803  1
  O2-  O196  1  0.64594991  0.36921013  0.24796414  1
  O2-  O197  1  0.67473957  0.36821824  0.51242254  1
  O2-  O198  1  0.63571835  0.38458994  0.73915444  1
  O2-  O199  1  0.58771500  0.86236370  -0.00631485  1
  O2-  O200  1  0.68016558  0.88436069  0.23942610  1
  O2-  O201  1  0.66088291  0.84740401  0.50204462  1
  O2-  O202  1  0.60394746  0.86681169  0.75535392  1
  O2-  O203  1  0.85949790  0.36492423  0.01849216  1
  O2-  O204  1  0.89353449  0.39069872  0.24796294  1
  O2-  O205  1  0.86019190  0.38150721  0.49888497  1
  O2-  O206  1  0.88387982  0.36245516  0.75730745  1
  O2-  O207  1  0.93500886  0.88362676  -0.00660967  1
  O2-  O208  1  0.86732026  0.86273798  0.24142430  1
  O2-  O209  1  0.86906908  0.85922989  0.50264415  1
  O2-  O210  1  0.90767140  0.87861188  0.76337730  1
  O2-  O211  1  -0.02340073  0.15111096  -0.10457197  1
  O2-  O212  1  -0.00673755  0.12317557  0.28892984  1
  O2-  O213  1  0.00836388  0.16300700  0.43843246  1
  O2-  O214  1  -0.00919775  0.16335184  0.63723922  1
  O2-  O215  1  -0.00605704  0.35194591  -0.09188614  1
  O2-  O216  1  -0.02475524  0.51836089  0.37574459  1
  O2-  O217  1  0.01297241  0.35916372  0.38641987  1
  O2-  O218  1  -0.00136775  0.35478602  0.60918516  1
  O2-  O219  1  0.27724177  0.17112062  0.12389458  1
  O2-  O220  1  0.25719349  0.03190691  0.21864844  1
  O2-  O221  1  0.24305238  -0.13489626  0.40805726  1
  O2-  O222  1  0.24454947  -0.07215786  0.85044405  1
  O2-  O223  1  0.30626714  0.44595584  -0.02650551  1
  O2-  O224  1  0.24220526  0.39075591  0.14911424  1
  O2-  O225  1  0.23894050  0.64963322  0.60649267  1
  O2-  O226  1  0.25446599  0.61099841  0.85329380  1
  O2-  O227  1  0.51593217  0.14367855  -0.12209820  1
  O2-  O228  1  0.50880358  0.15021770  0.38123022  1
  O2-  O229  1  0.49633298  0.10960456  0.56684738  1
  O2-  O230  1  0.47094120  0.11567425  0.72516598  1
  O2-  O231  1  0.51190102  0.36803871  -0.10128702  1
  O2-  O232  1  0.50082178  0.36215095  0.33108031  1
  O2-  O233  1  0.51894207  0.38804072  0.48790593  1
  O2-  O234  1  0.48179167  0.36858995  0.66537188  1
  O2-  O235  1  0.75950339  -0.11619304  0.07518095  1
  O2-  O236  1  0.72502983  0.05896158  0.13639409  1
  O2-  O237  1  0.76497759  -0.14219274  0.64799084  1
  O2-  O238  1  0.75562722  -0.15627414  0.88531585  1
  O2-  O239  1  0.76514326  0.61732007  -0.00497775  1
  O2-  O240  1  0.75633144  0.46633947  0.13357814  1
  O2-  O241  1  0.76220399  0.63870490  0.63788258  1
  O2-  O242  1  0.75796384  0.65830600  0.83505751  1
