# generated using pymatgen
data_Gd19Ta56(WO20)8
_symmetry_space_group_name_H-M   'P 1'
_cell_length_a   15.53636568
_cell_length_b   15.51043618
_cell_length_c   15.22512144
_cell_angle_alpha   90.00943300
_cell_angle_beta   90.27966026
_cell_angle_gamma   90.00296875
_symmetry_Int_Tables_number   1
_chemical_formula_structural   Gd19Ta56(WO20)8
_chemical_formula_sum   'Gd19 Ta56 W8 O160'
_cell_volume   3668.84218491
_cell_formula_units_Z   1
loop_
 _symmetry_equiv_pos_site_id
 _symmetry_equiv_pos_as_xyz
  1  'x, y, z'
loop_
 _atom_type_symbol
 _atom_type_oxidation_number
  Gd3+  3.0
  Ta5+  5.0
  W6+  6.0
  O2-  -2.0
loop_
 _atom_site_type_symbol
 _atom_site_label
 _atom_site_symmetry_multiplicity
 _atom_site_fract_x
 _atom_site_fract_y
 _atom_site_fract_z
 _atom_site_occupancy
  Gd3+  Gd0  1  0.51306161  0.72380348  0.49029474  1
  Gd3+  Gd1  1  0.24190024  0.23523552  0.74570375  1
  Gd3+  Gd2  1  0.23817844  0.75093576  -0.03371531  1
  Gd3+  Gd3  1  0.00438711  0.25924558  0.24983530  1
  Gd3+  Gd4  1  0.50945400  0.25113748  0.00001132  1
  Gd3+  Gd5  1  0.50031155  0.76817573  -0.01411981  1
  Gd3+  Gd6  1  0.73978960  0.75011717  0.72996754  1
  Gd3+  Gd7  1  0.48551743  0.24189339  0.74043380  1
  Gd3+  Gd8  1  0.51073675  0.25191822  0.23992126  1
  Gd3+  Gd9  1  -0.00446270  0.73877565  0.01267459  1
  Gd3+  Gd10  1  0.75017619  0.75532707  0.27326721  1
  Gd3+  Gd11  1  0.01159624  0.27212003  0.75580988  1
  Gd3+  Gd12  1  0.47753923  0.25487843  0.47787844  1
  Gd3+  Gd13  1  0.01425969  0.26608300  0.50496199  1
  Gd3+  Gd14  1  0.25577265  0.74037494  0.52219107  1
  Gd3+  Gd15  1  0.76755461  0.25304713  0.20995433  1
  Gd3+  Gd16  1  0.77596025  0.24675738  0.72126209  1
  Gd3+  Gd17  1  0.00771947  0.25661954  0.01752963  1
  Gd3+  Gd18  1  0.49434031  0.73072212  0.23589472  1
  Ta5+  Ta19  1  0.09110245  0.11698347  0.62927090  1
  Ta5+  Ta20  1  0.89180434  0.87883750  0.87265194  1
  Ta5+  Ta21  1  0.61188431  0.61052154  0.62647062  1
  Ta5+  Ta22  1  0.17585489  0.87586302  0.12428367  1
  Ta5+  Ta23  1  0.37588928  0.37185049  0.87323907  1
  Ta5+  Ta24  1  0.88582757  0.62394673  0.37733841  1
  Ta5+  Ta25  1  0.83057908  0.64064962  0.12094127  1
  Ta5+  Ta26  1  0.87644314  0.40059062  0.12412788  1
  Ta5+  Ta27  1  0.37338058  0.61583439  0.87035858  1
  Ta5+  Ta28  1  0.64821019  0.38028991  0.38026633  1
  Ta5+  Ta29  1  0.34350157  0.12336145  0.59867316  1
  Ta5+  Ta30  1  0.86372087  0.10867230  0.11464211  1
  Ta5+  Ta31  1  0.33841893  0.37688383  0.60774558  1
  Ta5+  Ta32  1  0.60572382  0.37027831  0.61625767  1
  Ta5+  Ta33  1  0.62583386  0.37638194  0.86296919  1
  Ta5+  Ta34  1  0.37297756  0.87722690  0.85562890  1
  Ta5+  Ta35  1  0.82556928  0.86612570  0.10886091  1
  Ta5+  Ta36  1  0.66363632  0.63951935  0.10256855  1
  Ta5+  Ta37  1  0.89607549  0.62699598  0.61969391  1
  Ta5+  Ta38  1  0.91918775  0.12200279  0.63281726  1
  Ta5+  Ta39  1  0.13224337  0.12798290  0.89275648  1
  Ta5+  Ta40  1  0.65509352  0.10906837  0.10839139  1
  Ta5+  Ta41  1  0.85235156  0.38016941  0.39224012  1
  Ta5+  Ta42  1  0.09787100  0.62132598  0.62508618  1
  Ta5+  Ta43  1  0.60580972  0.62318520  0.85498408  1
  Ta5+  Ta44  1  0.16808770  0.38617162  0.62532153  1
  Ta5+  Ta45  1  0.32976491  0.62691810  0.11760662  1
  Ta5+  Ta46  1  0.89110829  0.87982101  0.37337980  1
  Ta5+  Ta47  1  0.34143116  0.36670471  0.34662735  1
  Ta5+  Ta48  1  0.61967706  0.88592057  0.37573497  1
  Ta5+  Ta49  1  0.10931370  0.61769155  0.86908570  1
  Ta5+  Ta50  1  0.38459715  0.87663888  0.37211082  1
  Ta5+  Ta51  1  0.39921765  0.88146275  0.61945626  1
  Ta5+  Ta52  1  0.34126961  0.11649528  0.33936800  1
  Ta5+  Ta53  1  0.86127302  0.38296962  0.88188360  1
  Ta5+  Ta54  1  0.40629363  0.61206361  0.65830716  1
  Ta5+  Ta55  1  0.13552982  0.87283194  0.37481185  1
  Ta5+  Ta56  1  0.34306799  0.86015402  0.12039572  1
  Ta5+  Ta57  1  0.15978837  0.38778840  0.13950116  1
  Ta5+  Ta58  1  0.35947115  0.37939207  0.12075062  1
  Ta5+  Ta59  1  0.87137433  0.62247728  0.87086952  1
  Ta5+  Ta60  1  0.88085170  0.39743863  0.62584786  1
  Ta5+  Ta61  1  0.65789949  0.86156172  0.11448249  1
  Ta5+  Ta62  1  0.86701309  0.12442854  0.88731952  1
  Ta5+  Ta63  1  0.12073317  0.86925467  0.63820394  1
  Ta5+  Ta64  1  0.63344806  0.12112128  0.36825924  1
  Ta5+  Ta65  1  0.16341826  0.63868509  0.12744992  1
  Ta5+  Ta66  1  0.37660416  0.10694523  0.11149784  1
  Ta5+  Ta67  1  0.87442388  0.12803314  0.37851593  1
  Ta5+  Ta68  1  0.14373420  0.38190518  0.89525545  1
  Ta5+  Ta69  1  0.88354956  0.87605598  0.62555689  1
  Ta5+  Ta70  1  0.63442278  0.12163931  0.86253726  1
  Ta5+  Ta71  1  0.09655328  0.88605707  0.87295779  1
  Ta5+  Ta72  1  0.12943193  0.63331179  0.37300676  1
  Ta5+  Ta73  1  0.37866449  0.60572030  0.36424807  1
  Ta5+  Ta74  1  0.60531202  0.88227133  0.61470447  1
  W6+  W75  1  0.63295987  0.87781383  0.86019799  1
  W6+  W76  1  0.64002298  0.62604834  0.37048468  1
  W6+  W77  1  0.12564695  0.38922880  0.37353485  1
  W6+  W78  1  0.62325432  0.39276094  0.12321119  1
  W6+  W79  1  0.12746541  0.12353753  0.37661537  1
  W6+  W80  1  0.59905402  0.11873533  0.60504448  1
  W6+  W81  1  0.38267891  0.11454280  0.86909114  1
  W6+  W82  1  0.14926120  0.12572601  0.14880164  1
  O2-  O83  1  0.16788579  -0.00567472  0.13342804  1
  O2-  O84  1  0.15560334  -0.01059237  0.38103667  1
  O2-  O85  1  0.11658686  -0.00715798  0.63744619  1
  O2-  O86  1  0.11880354  0.00877835  0.88044123  1
  O2-  O87  1  0.16524815  0.50835742  0.12987437  1
  O2-  O88  1  0.16210436  0.52028891  0.36670448  1
  O2-  O89  1  0.15732531  0.50725210  0.62644926  1
  O2-  O90  1  0.15696412  0.50166260  0.87906177  1
  O2-  O91  1  0.36536149  -0.01343744  0.12189845  1
  O2-  O92  1  0.34327882  -0.00611040  0.35029555  1
  O2-  O93  1  0.36730902  -0.00069555  0.60840265  1
  O2-  O94  1  0.33579283  -0.01006324  0.85642179  1
  O2-  O95  1  0.35398860  0.50111030  0.12205166  1
  O2-  O96  1  0.34479636  0.49200609  0.34261132  1
  O2-  O97  1  0.36355039  0.50171026  0.62910966  1
  O2-  O98  1  0.38299693  0.49204543  0.85729198  1
  O2-  O99  1  0.63762087  -0.00927187  0.11126390  1
  O2-  O100  1  0.66476544  0.00024271  0.37708077  1
  O2-  O101  1  0.64089908  -0.00693697  0.59101112  1
  O2-  O102  1  0.65709402  0.00616539  0.87603742  1
  O2-  O103  1  0.64482626  0.52123925  0.11023926  1
  O2-  O104  1  0.66503364  0.49642302  0.37499289  1
  O2-  O105  1  0.63540373  0.48901323  0.62257785  1
  O2-  O106  1  0.61012484  0.49644441  0.86006330  1
  O2-  O107  1  0.86639016  -0.01012723  0.11683645  1
  O2-  O108  1  0.88419606  0.00619003  0.36569263  1
  O2-  O109  1  0.88808269  -0.00277668  0.64035866  1
  O2-  O110  1  0.86036297  0.00341273  0.87872158  1
  O2-  O111  1  0.86963398  0.51820155  0.13261478  1
  O2-  O112  1  0.87259205  0.49862641  0.36694311  1
  O2-  O113  1  0.83723526  0.50808318  0.62412307  1
  O2-  O114  1  0.83110759  0.50562437  0.87206853  1
  O2-  O115  1  0.10462788  0.26107417  0.13719727  1
  O2-  O116  1  0.08108510  0.25620033  0.37426907  1
  O2-  O117  1  0.10195291  0.25885635  0.63283916  1
  O2-  O118  1  0.08661510  0.25886229  0.88931169  1
  O2-  O119  1  0.11207163  0.76152557  0.10381657  1
  O2-  O120  1  0.18850937  0.75011139  0.38968525  1
  O2-  O121  1  0.16006899  0.74453709  0.63469046  1
  O2-  O122  1  0.10101569  0.74977242  0.88479283  1
  O2-  O123  1  0.41643358  0.24736502  0.11929339  1
  O2-  O124  1  0.39762371  0.24196148  0.34647384  1
  O2-  O125  1  0.37277631  0.24830710  0.59156921  1
  O2-  O126  1  0.41863990  0.24854511  0.87995042  1
  O2-  O127  1  0.40562311  0.73948802  0.10277905  1
  O2-  O128  1  0.40870204  0.74938448  0.38499294  1
  O2-  O129  1  0.39035155  0.73186824  0.60744632  1
  O2-  O130  1  0.35945807  0.74633413  0.87412438  1
  O2-  O131  1  0.62937203  0.24263287  0.13474465  1
  O2-  O132  1  0.59735663  0.24900612  0.37208661  1
  O2-  O133  1  0.55500069  0.24890052  0.60764851  1
  O2-  O134  1  0.59125316  0.24952863  0.86051901  1
  O2-  O135  1  0.57976769  0.74795140  0.11194615  1
  O2-  O136  1  0.58784965  0.75684309  0.36209482  1
  O2-  O137  1  0.60847422  0.74418180  0.63236692  1
  O2-  O138  1  0.60784875  0.74782236  0.83750457  1
  O2-  O139  1  0.89083760  0.25243485  0.11487618  1
  O2-  O140  1  0.90240021  0.26097857  0.38583976  1
  O2-  O141  1  0.90198643  0.26005362  0.63164405  1
  O2-  O142  1  0.89787912  0.25799262  0.88848550  1
  O2-  O143  1  0.89283467  0.75539875  0.12325231  1
  O2-  O144  1  0.85972126  0.75294811  0.38113422  1
  O2-  O145  1  0.83659845  0.75313913  0.61810033  1
  O2-  O146  1  0.90043563  0.75058784  0.87781166  1
  O2-  O147  1  0.10398302  0.13704402  0.01366008  1
  O2-  O148  1  0.07032389  0.12377985  0.25307304  1
  O2-  O149  1  0.08781655  0.12879668  0.50270199  1
  O2-  O150  1  0.10962903  0.14864473  0.76311148  1
  O2-  O151  1  0.13132388  0.63174274  -0.00330580  1
  O2-  O152  1  0.14401051  0.65510806  0.25108354  1
  O2-  O153  1  0.14409612  0.63353050  0.50564952  1
  O2-  O154  1  0.13152806  0.62927394  0.74871078  1
  O2-  O155  1  0.43039790  0.11297857  0.00074946  1
  O2-  O156  1  0.41696334  0.11714968  0.23769142  1
  O2-  O157  1  0.35375932  0.12678848  0.46828612  1
  O2-  O158  1  0.36489792  0.14544220  0.73025430  1
  O2-  O159  1  0.32151737  0.61635767  -0.01577727  1
  O2-  O160  1  0.36470425  0.65018420  0.24588378  1
  O2-  O161  1  0.32551195  0.62204963  0.47264732  1
  O2-  O162  1  0.32572084  0.62928633  0.75288770  1
  O2-  O163  1  0.60526485  0.13530467  -0.00964221  1
  O2-  O164  1  0.59536547  0.11657598  0.24983254  1
  O2-  O165  1  0.55805951  0.11738651  0.46665590  1
  O2-  O166  1  0.58632402  0.12160228  0.74574297  1
  O2-  O167  1  0.65635088  0.64040470  -0.03283118  1
  O2-  O168  1  0.63667569  0.65421331  0.23428066  1
  O2-  O169  1  0.65309607  0.63329233  0.51217025  1
  O2-  O170  1  0.67637875  0.61656041  0.74268198  1
  O2-  O171  1  0.92911130  0.12336826  -0.00019393  1
  O2-  O172  1  0.89412942  0.15004389  0.24775058  1
  O2-  O173  1  0.90082850  0.12953985  0.50010715  1
  O2-  O174  1  0.91175565  0.13936900  0.76861802  1
  O2-  O175  1  0.86551261  0.63587341  -0.00319742  1
  O2-  O176  1  0.83810187  0.63699870  0.25828564  1
  O2-  O177  1  0.85615312  0.61765694  0.49737116  1
  O2-  O178  1  0.85590989  0.64300964  0.74288965  1
  O2-  O179  1  0.09619124  0.38553262  0.01320557  1
  O2-  O180  1  0.08324026  0.39160288  0.23979389  1
  O2-  O181  1  0.11769618  0.37467655  0.50965385  1
  O2-  O182  1  0.13435406  0.36413603  0.75892311  1
  O2-  O183  1  0.16922197  0.87753038  -0.01592959  1
  O2-  O184  1  0.16068179  0.85847123  0.25550006  1
  O2-  O185  1  0.15028235  0.86277019  0.51282027  1
  O2-  O186  1  0.15821134  0.86969273  0.76214275  1
  O2-  O187  1  0.41565640  0.37763684  -0.00047469  1
  O2-  O188  1  0.41993898  0.36971883  0.23835715  1
  O2-  O189  1  0.38153403  0.37364974  0.47053019  1
  O2-  O190  1  0.36394333  0.34586340  0.73821209  1
  O2-  O191  1  0.35195617  0.86146044  -0.01289439  1
  O2-  O192  1  0.37574386  0.84413792  0.24935161  1
  O2-  O193  1  0.33575010  0.86694708  0.49344276  1
  O2-  O194  1  0.34625251  0.85482200  0.72985434  1
  O2-  O195  1  0.61519697  0.36450982  -0.01321412  1
  O2-  O196  1  0.59634136  0.37828402  0.26314236  1
  O2-  O197  1  0.57441950  0.37433426  0.48717251  1
  O2-  O198  1  0.57345131  0.36723075  0.73895383  1
  O2-  O199  1  0.62011221  0.85239957  -0.00839449  1
  O2-  O200  1  0.65059471  0.86778025  0.25070936  1
  O2-  O201  1  0.65589507  0.85133736  0.49035889  1
  O2-  O202  1  0.66796947  0.87772225  0.72388504  1
  O2-  O203  1  0.91137040  0.39153618  -0.00158979  1
  O2-  O204  1  0.89688347  0.36828661  0.24712358  1
  O2-  O205  1  0.92457051  0.38879203  0.50421543  1
  O2-  O206  1  0.90182780  0.38315996  0.75416429  1
  O2-  O207  1  0.82514105  0.86668482  -0.01557350  1
  O2-  O208  1  0.84482977  0.86864742  0.25458714  1
  O2-  O209  1  0.86605431  0.88600922  0.49876686  1
  O2-  O210  1  0.84100264  0.86216567  0.75115052  1
  O2-  O211  1  -0.00515309  -0.12615387  -0.03931710  1
  O2-  O212  1  0.01178567  -0.13683043  0.37155139  1
  O2-  O213  1  0.00124781  -0.14694635  0.63144081  1
  O2-  O214  1  -0.00551350  -0.09568918  0.80144214  1
  O2-  O215  1  -0.00863149  0.59132968  -0.12963629  1
  O2-  O216  1  0.00620370  0.63602275  0.37423938  1
  O2-  O217  1  -0.00299166  0.68950041  0.58204723  1
  O2-  O218  1  -0.00572302  0.55343760  0.65847560  1
  O2-  O219  1  0.26770673  0.14377011  0.08819061  1
  O2-  O220  1  0.23775242  0.13754359  0.28171609  1
  O2-  O221  1  0.22790368  0.13687994  0.62339441  1
  O2-  O222  1  0.24815565  0.15642322  0.87574935  1
  O2-  O223  1  0.25575576  0.34668247  0.05956264  1
  O2-  O224  1  0.26154980  0.37194412  0.21933177  1
  O2-  O225  1  0.23871476  0.31906141  0.38192606  1
  O2-  O226  1  0.25702584  0.33577764  0.87621241  1
  O2-  O227  1  0.49131581  -0.12392025  -0.12637577  1
  O2-  O228  1  0.50090327  -0.08377588  0.36824428  1
  O2-  O229  1  0.49689304  -0.14094048  0.53538380  1
  O2-  O230  1  0.50207321  -0.09204234  0.68520494  1
  O2-  O231  1  0.49015385  0.63347275  -0.08570616  1
  O2-  O232  1  0.49883784  0.60212871  0.37099204  1
  O2-  O233  1  0.49862819  0.59819615  0.56692288  1
  O2-  O234  1  0.50825739  0.61150798  0.73291319  1
  O2-  O235  1  0.76678621  0.12982521  0.03233901  1
  O2-  O236  1  0.75307114  0.10738501  0.19037293  1
  O2-  O237  1  0.75270562  0.15603784  0.37389269  1
  O2-  O238  1  0.75109984  0.16363473  0.84450662  1
  O2-  O239  1  0.75944078  0.37058144  0.11776506  1
  O2-  O240  1  0.75245581  0.34107779  0.31789471  1
  O2-  O241  1  0.75698939  0.37610292  0.47052896  1
  O2-  O242  1  0.74449483  0.34642264  0.83252461  1
