# generated using pymatgen
data_Gd19Ta56(WO20)8
_symmetry_space_group_name_H-M   'P 1'
_cell_length_a   15.50057489
_cell_length_b   15.50389097
_cell_length_c   15.35447677
_cell_angle_alpha   90.01111945
_cell_angle_beta   90.01039273
_cell_angle_gamma   89.96573657
_symmetry_Int_Tables_number   1
_chemical_formula_structural   Gd19Ta56(WO20)8
_chemical_formula_sum   'Gd19 Ta56 W8 O160'
_cell_volume   3689.97513780
_cell_formula_units_Z   1
loop_
 _symmetry_equiv_pos_site_id
 _symmetry_equiv_pos_as_xyz
  1  'x, y, z'
loop_
 _atom_type_symbol
 _atom_type_oxidation_number
  Gd3+  3.0
  Ta5+  5.0
  W6+  6.0
  O2-  -2.0
loop_
 _atom_site_type_symbol
 _atom_site_label
 _atom_site_symmetry_multiplicity
 _atom_site_fract_x
 _atom_site_fract_y
 _atom_site_fract_z
 _atom_site_occupancy
  Gd3+  Gd0  1  0.01287875  0.25949667  0.52979206  1
  Gd3+  Gd1  1  0.50441766  0.24098468  0.51685837  1
  Gd3+  Gd2  1  0.74594730  0.25347195  0.74344129  1
  Gd3+  Gd3  1  0.26948824  0.75353806  0.27425105  1
  Gd3+  Gd4  1  0.50508768  0.74312525  -0.01416407  1
  Gd3+  Gd5  1  0.74606050  0.25024783  0.25239564  1
  Gd3+  Gd6  1  0.25173384  0.25829619  -0.00480053  1
  Gd3+  Gd7  1  0.22543547  0.75584252  0.00006079  1
  Gd3+  Gd8  1  0.26469781  0.75940692  0.73194916  1
  Gd3+  Gd9  1  -0.01871658  0.73579935  0.77306185  1
  Gd3+  Gd10  1  0.01323291  0.22800229  -0.01302714  1
  Gd3+  Gd11  1  0.75986192  0.76720217  0.73490980  1
  Gd3+  Gd12  1  0.23630623  0.24898121  0.76504988  1
  Gd3+  Gd13  1  0.50075665  0.75046139  0.26634741  1
  Gd3+  Gd14  1  0.00883020  0.74883910  0.24195274  1
  Gd3+  Gd15  1  0.25676839  0.25378330  0.53190769  1
  Gd3+  Gd16  1  0.74868288  0.24582734  -0.00907280  1
  Gd3+  Gd17  1  0.48452420  0.24359021  0.74343757  1
  Gd3+  Gd18  1  0.76189592  0.26362573  0.51399084  1
  Ta5+  Ta19  1  0.42853714  0.86221679  0.62507228  1
  Ta5+  Ta20  1  0.90420606  0.88046006  0.88239071  1
  Ta5+  Ta21  1  0.62508935  0.37698091  0.37619490  1
  Ta5+  Ta22  1  0.63132291  0.10566207  0.63426532  1
  Ta5+  Ta23  1  0.11105453  0.40747616  0.88093356  1
  Ta5+  Ta24  1  0.13519350  0.40020542  0.63604171  1
  Ta5+  Ta25  1  0.86837592  0.37802380  0.12010897  1
  Ta5+  Ta26  1  0.61567060  0.87520306  0.12597599  1
  Ta5+  Ta27  1  0.62069225  0.39172089  0.88082563  1
  Ta5+  Ta28  1  0.11015599  0.38002260  0.12386835  1
  Ta5+  Ta29  1  0.10090552  0.06593404  0.86981206  1
  Ta5+  Ta30  1  0.87829925  0.11900479  0.12747566  1
  Ta5+  Ta31  1  0.37600458  0.13052924  0.13080556  1
  Ta5+  Ta32  1  0.12255513  0.10486920  0.63088262  1
  Ta5+  Ta33  1  0.60504600  0.11833324  0.88596720  1
  Ta5+  Ta34  1  0.38544999  0.87383536  0.87847202  1
  Ta5+  Ta35  1  0.59343506  0.64153302  0.64047111  1
  Ta5+  Ta36  1  0.63461031  0.87351111  0.87534330  1
  Ta5+  Ta37  1  0.87323487  0.38252860  0.37464510  1
  Ta5+  Ta38  1  0.61210545  0.39149555  0.63168724  1
  Ta5+  Ta39  1  0.42310609  0.64429588  0.63345940  1
  Ta5+  Ta40  1  0.38277828  0.61637305  0.39011732  1
  Ta5+  Ta41  1  0.87998572  0.87753856  0.36996555  1
  Ta5+  Ta42  1  0.63066820  0.11355241  0.37358779  1
  Ta5+  Ta43  1  0.13403118  0.61508459  0.37232840  1
  Ta5+  Ta44  1  0.39132903  0.39714312  0.63362048  1
  Ta5+  Ta45  1  0.85652120  0.87641361  0.12092067  1
  Ta5+  Ta46  1  0.13686725  0.61635015  0.12860331  1
  Ta5+  Ta47  1  0.07489334  0.87109765  0.88379789  1
  Ta5+  Ta48  1  0.38503474  0.13128911  0.37224613  1
  Ta5+  Ta49  1  0.12651918  0.12354263  0.13040413  1
  Ta5+  Ta50  1  0.59582739  0.85883226  0.62696147  1
  Ta5+  Ta51  1  0.61651624  0.62194858  0.12968900  1
  Ta5+  Ta52  1  0.11661808  0.63050988  0.87813309  1
  Ta5+  Ta53  1  0.88214925  0.10988063  0.62428532  1
  Ta5+  Ta54  1  0.07539859  0.64173416  0.61702241  1
  Ta5+  Ta55  1  0.85421023  0.62743019  0.12283062  1
  Ta5+  Ta56  1  0.38691391  0.38865139  0.88303541  1
  Ta5+  Ta57  1  0.62383960  0.62084450  0.39092317  1
  Ta5+  Ta58  1  0.90381625  0.63568185  0.61636690  1
  Ta5+  Ta59  1  0.39392309  0.37248473  0.37554436  1
  Ta5+  Ta60  1  0.86847654  0.62599572  0.36938047  1
  Ta5+  Ta61  1  0.14094218  0.88671400  0.37679497  1
  Ta5+  Ta62  1  0.60689984  0.37524744  0.12269029  1
  Ta5+  Ta63  1  0.61015732  0.12037376  0.12193650  1
  Ta5+  Ta64  1  0.13944903  0.88466326  0.13157350  1
  Ta5+  Ta65  1  0.13308376  0.36572262  0.37085946  1
  Ta5+  Ta66  1  0.91418674  0.86404958  0.61612086  1
  Ta5+  Ta67  1  0.87437184  0.11997285  0.37898699  1
  Ta5+  Ta68  1  0.67495467  0.63334970  0.88098323  1
  Ta5+  Ta69  1  0.88051644  0.09672302  0.86778180  1
  Ta5+  Ta70  1  0.08128681  0.85620218  0.62235718  1
  Ta5+  Ta71  1  0.90309681  0.41105691  0.87723722  1
  Ta5+  Ta72  1  0.34704461  0.61578713  0.13116391  1
  Ta5+  Ta73  1  0.63680429  0.87258305  0.38550878  1
  Ta5+  Ta74  1  0.39639442  0.11856499  0.89159055  1
  W6+  W75  1  0.13017926  0.13974314  0.37388131  1
  W6+  W76  1  0.84089260  0.63101550  0.88251127  1
  W6+  W77  1  0.34917183  0.88233427  0.13106221  1
  W6+  W78  1  0.37520119  0.10739863  0.63342752  1
  W6+  W79  1  0.35501817  0.37343251  0.13982329  1
  W6+  W80  1  0.39319059  0.88403438  0.39072773  1
  W6+  W81  1  0.37354653  0.63574073  0.88129537  1
  W6+  W82  1  0.87923153  0.38538857  0.63791216  1
  O2-  O83  1  0.10353551  0.00129237  0.13005688  1
  O2-  O84  1  0.14447232  0.00480396  0.37746627  1
  O2-  O85  1  0.10206875  -0.01205898  0.62602587  1
  O2-  O86  1  0.16982870  -0.03111765  0.87170732  1
  O2-  O87  1  0.09021450  0.50222856  0.12824751  1
  O2-  O88  1  0.12724105  0.48915493  0.37292430  1
  O2-  O89  1  0.11467627  0.51677021  0.62085319  1
  O2-  O90  1  0.16765955  0.51631416  0.88830862  1
  O2-  O91  1  0.37644581  0.01233361  0.13174823  1
  O2-  O92  1  0.41447139  0.01707152  0.38047386  1
  O2-  O93  1  0.40053564  -0.02115497  0.63454705  1
  O2-  O94  1  0.37958263  -0.00176030  0.88096051  1
  O2-  O95  1  0.38324624  0.50275500  0.13891295  1
  O2-  O96  1  0.41121026  0.49652989  0.37275220  1
  O2-  O97  1  0.39885508  0.51543892  0.64356464  1
  O2-  O98  1  0.40231253  0.50363378  0.87194316  1
  O2-  O99  1  0.59853821  -0.00246657  0.11991131  1
  O2-  O100  1  0.60520143  -0.00669658  0.37199767  1
  O2-  O101  1  0.62141640  -0.01144241  0.63528886  1
  O2-  O102  1  0.63355571  0.00076360  0.88202497  1
  O2-  O103  1  0.61238315  0.50050618  0.11764086  1
  O2-  O104  1  0.60515908  0.49805412  0.38548198  1
  O2-  O105  1  0.61449856  0.51116050  0.64020339  1
  O2-  O106  1  0.62414811  0.50987505  0.88679173  1
  O2-  O107  1  0.83136063  0.00821958  0.12093541  1
  O2-  O108  1  0.90708206  0.00066261  0.37421239  1
  O2-  O109  1  0.89491502  -0.00714055  0.60065303  1
  O2-  O110  1  0.82965893  -0.00813942  0.89780444  1
  O2-  O111  1  0.84199253  0.49434167  0.12054345  1
  O2-  O112  1  0.89818236  0.50358971  0.36959558  1
  O2-  O113  1  0.89688792  0.51695128  0.62733037  1
  O2-  O114  1  0.82070060  0.49538049  0.88494317  1
  O2-  O115  1  0.12650976  0.24892314  0.08861992  1
  O2-  O116  1  0.05890456  0.26675508  0.38101517  1
  O2-  O117  1  0.15505538  0.25480030  0.64344299  1
  O2-  O118  1  0.15118499  0.28061517  0.88380997  1
  O2-  O119  1  0.13291484  0.74870793  0.14582846  1
  O2-  O120  1  0.13588580  0.74422407  0.34485754  1
  O2-  O121  1  0.14936524  0.74349390  0.62893712  1
  O2-  O122  1  0.14713243  0.75406406  0.86706034  1
  O2-  O123  1  0.31761152  0.24360827  0.12352156  1
  O2-  O124  1  0.44521566  0.25173922  0.37755427  1
  O2-  O125  1  0.38724446  0.25638754  0.63034552  1
  O2-  O126  1  0.36530095  0.24722200  0.88941580  1
  O2-  O127  1  0.32086545  0.74787349  0.12912165  1
  O2-  O128  1  0.38748872  0.74417146  0.37756782  1
  O2-  O129  1  0.35432703  0.75319089  0.61047914  1
  O2-  O130  1  0.31738624  0.76581039  0.88545311  1
  O2-  O131  1  0.65272802  0.24954711  0.12138813  1
  O2-  O132  1  0.63690298  0.24264769  0.35653429  1
  O2-  O133  1  0.61327998  0.25512697  0.65181186  1
  O2-  O134  1  0.63725804  0.24448640  0.87960448  1
  O2-  O135  1  0.56228965  0.74935532  0.12659257  1
  O2-  O136  1  0.60132568  0.75045110  0.37734034  1
  O2-  O137  1  0.65952928  0.74911748  0.62665303  1
  O2-  O138  1  0.69019396  0.76132506  0.88809582  1
  O2-  O139  1  0.82860818  0.24301438  0.12235352  1
  O2-  O140  1  0.84176639  0.24993619  0.37733246  1
  O2-  O141  1  0.85739047  0.24602683  0.63396687  1
  O2-  O142  1  0.80393946  0.19317344  0.86559079  1
  O2-  O143  1  0.89074091  0.75240441  0.13318499  1
  O2-  O144  1  0.90387016  0.75043286  0.34541492  1
  O2-  O145  1  0.84482972  0.75801768  0.61481578  1
  O2-  O146  1  0.87247142  0.76336391  0.88484231  1
  O2-  O147  1  0.11973259  0.11606966  -0.01621531  1
  O2-  O148  1  0.16165325  0.14486013  0.23982830  1
  O2-  O149  1  0.10853930  0.14578487  0.51161524  1
  O2-  O150  1  0.14341163  0.12109588  0.76585540  1
  O2-  O151  1  0.09335960  0.64515409  0.00615040  1
  O2-  O152  1  0.07290934  0.61825928  0.25705656  1
  O2-  O153  1  0.08537715  0.63350999  0.48091762  1
  O2-  O154  1  0.08547429  0.62807061  0.75524146  1
  O2-  O155  1  0.33030393  0.12557821  0.00291939  1
  O2-  O156  1  0.35283012  0.13917611  0.25316253  1
  O2-  O157  1  0.37218490  0.15117103  0.49776180  1
  O2-  O158  1  0.34613874  0.13865899  0.77152547  1
  O2-  O159  1  0.41030802  0.63978328  0.02428098  1
  O2-  O160  1  0.39817511  0.64136387  0.24986894  1
  O2-  O161  1  0.42047881  0.62288669  0.50383759  1
  O2-  O162  1  0.36862961  0.65756724  0.74715177  1
  O2-  O163  1  0.67163635  0.12072329  0.01030439  1
  O2-  O164  1  0.66207744  0.11783504  0.23558586  1
  O2-  O165  1  0.61147038  0.13542913  0.49901250  1
  O2-  O166  1  0.66178994  0.12503638  0.75576984  1
  O2-  O167  1  0.61802905  0.64415165  0.00168937  1
  O2-  O168  1  0.59209322  0.62686763  0.25405653  1
  O2-  O169  1  0.60771863  0.63127176  0.50907540  1
  O2-  O170  1  0.63795542  0.64819030  0.76433048  1
  O2-  O171  1  0.88642204  0.14114093  -0.00025156  1
  O2-  O172  1  0.85822255  0.13477573  0.25079593  1
  O2-  O173  1  0.90961483  0.14648881  0.49694721  1
  O2-  O174  1  0.86101589  0.09046755  0.74535992  1
  O2-  O175  1  0.89223124  0.61896935  0.01063425  1
  O2-  O176  1  0.90009052  0.61808744  0.23964765  1
  O2-  O177  1  0.89390561  0.64116188  0.48603240  1
  O2-  O178  1  0.85711387  0.65153732  0.74289643  1
  O2-  O179  1  0.16301829  0.39248399  0.01049453  1
  O2-  O180  1  0.14461170  0.36231440  0.23972255  1
  O2-  O181  1  0.13961496  0.35908016  0.50261550  1
  O2-  O182  1  0.15556516  0.39005248  0.76216354  1
  O2-  O183  1  0.09264244  0.85302987  0.01179459  1
  O2-  O184  1  0.07406264  0.87849183  0.26319402  1
  O2-  O185  1  0.09563740  0.86243772  0.48669204  1
  O2-  O186  1  0.07935212  0.85769060  0.75179792  1
  O2-  O187  1  0.33994892  0.37924778  -0.00335634  1
  O2-  O188  1  0.33687731  0.35937608  0.27166456  1
  O2-  O189  1  0.35463729  0.36269708  0.49482786  1
  O2-  O190  1  0.35016799  0.35933685  0.76454773  1
  O2-  O191  1  0.41529141  0.86104269  0.00369187  1
  O2-  O192  1  0.40507912  0.86007019  0.25160341  1
  O2-  O193  1  0.45439560  0.86170733  0.50082885  1
  O2-  O194  1  0.39211256  0.84907960  0.75640630  1
  O2-  O195  1  0.66287886  0.37111731  0.00107067  1
  O2-  O196  1  0.64601676  0.37470424  0.24250647  1
  O2-  O197  1  0.63196808  0.33945579  0.49975212  1
  O2-  O198  1  0.66789894  0.37829595  0.76821327  1
  O2-  O199  1  0.59712368  0.86232598  0.00067559  1
  O2-  O200  1  0.60515212  0.86514313  0.25011916  1
  O2-  O201  1  0.63881923  0.87122173  0.50529790  1
  O2-  O202  1  0.61154907  0.85675082  0.75692094  1
  O2-  O203  1  0.85233149  0.35489154  -0.00820478  1
  O2-  O204  1  0.85192398  0.36347778  0.24430603  1
  O2-  O205  1  0.89641873  0.36072805  0.49674332  1
  O2-  O206  1  0.86212280  0.35052490  0.78113249  1
  O2-  O207  1  0.91322788  0.89098804  0.01612882  1
  O2-  O208  1  0.89851707  0.88765888  0.23740392  1
  O2-  O209  1  0.90815668  0.85787290  0.48448612  1
  O2-  O210  1  0.88763691  0.87052831  0.74825438  1
  O2-  O211  1  -0.00316705  -0.00698868  -0.12868766  1
  O2-  O212  1  -0.00218170  0.14115548  0.12954887  1
  O2-  O213  1  0.00066052  0.14767642  0.64664366  1
  O2-  O214  1  -0.00565660  0.15629660  0.86215245  1
  O2-  O215  1  0.00682533  0.36379307  -0.05280983  1
  O2-  O216  1  -0.01151103  0.35281477  0.12342495  1
  O2-  O217  1  0.01694115  0.36278352  0.63741840  1
  O2-  O218  1  0.00560271  0.46051532  0.82585533  1
  O2-  O219  1  0.24047825  -0.10744871  0.05301761  1
  O2-  O220  1  0.23408045  -0.11430104  0.21684420  1
  O2-  O221  1  0.25941829  -0.14051195  0.38858789  1
  O2-  O222  1  0.24310201  0.11332716  0.61535031  1
  O2-  O223  1  0.24162393  0.60777348  0.05426872  1
  O2-  O224  1  0.23379869  0.61432826  0.21370680  1
  O2-  O225  1  0.25705218  0.61693688  0.39121897  1
  O2-  O226  1  0.26263635  0.38710656  0.62393521  1
  O2-  O227  1  0.50636031  0.12784097  -0.03145263  1
  O2-  O228  1  0.49649506  0.15799598  0.14139434  1
  O2-  O229  1  0.50903004  0.13518210  0.63466533  1
  O2-  O230  1  0.50425743  0.11728271  0.81220342  1
  O2-  O231  1  0.50517745  0.35330378  -0.10386563  1
  O2-  O232  1  0.49403379  0.35196797  0.11471808  1
  O2-  O233  1  0.49895148  0.38337721  0.56143954  1
  O2-  O234  1  0.50695684  0.38442922  0.71766120  1
  O2-  O235  1  0.73591522  -0.14651857  0.11780792  1
  O2-  O236  1  0.75910927  -0.12540882  0.36587920  1
  O2-  O237  1  0.75353635  0.10345626  0.39603293  1
  O2-  O238  1  0.75242451  0.12825159  0.59631836  1
  O2-  O239  1  0.73571097  0.64933944  0.13903085  1
  O2-  O240  1  0.74815431  0.62703426  0.36807231  1
  O2-  O241  1  0.75129218  0.39042926  0.38732622  1
  O2-  O242  1  0.74080822  0.36912247  0.61851861  1
