# generated using pymatgen
data_Gd19Ta56(WO20)8
_symmetry_space_group_name_H-M   'P 1'
_cell_length_a   15.49109876
_cell_length_b   15.43053872
_cell_length_c   15.23434996
_cell_angle_alpha   90.02265383
_cell_angle_beta   90.15155803
_cell_angle_gamma   89.95887725
_symmetry_Int_Tables_number   1
_chemical_formula_structural   Gd19Ta56(WO20)8
_chemical_formula_sum   'Gd19 Ta56 W8 O160'
_cell_volume   3641.54410720
_cell_formula_units_Z   1
loop_
 _symmetry_equiv_pos_site_id
 _symmetry_equiv_pos_as_xyz
  1  'x, y, z'
loop_
 _atom_type_symbol
 _atom_type_oxidation_number
  Gd3+  3.0
  Ta5+  5.0
  W6+  6.0
  O2-  -2.0
loop_
 _atom_site_type_symbol
 _atom_site_label
 _atom_site_symmetry_multiplicity
 _atom_site_fract_x
 _atom_site_fract_y
 _atom_site_fract_z
 _atom_site_occupancy
  Gd3+  Gd0  1  0.75013143  0.75442674  0.00132250  1
  Gd3+  Gd1  1  0.01809546  0.25921600  0.24100727  1
  Gd3+  Gd2  1  0.48335198  0.76334437  0.48922994  1
  Gd3+  Gd3  1  0.01423610  0.24698164  -0.01102285  1
  Gd3+  Gd4  1  -0.04311164  0.74637433  0.51200880  1
  Gd3+  Gd5  1  0.51413531  0.22936827  0.23943988  1
  Gd3+  Gd6  1  0.75169842  0.74772732  0.25500431  1
  Gd3+  Gd7  1  0.04680558  0.22831767  0.75393368  1
  Gd3+  Gd8  1  0.00904849  0.25242745  0.48839924  1
  Gd3+  Gd9  1  0.74141229  0.25848200  -0.00525030  1
  Gd3+  Gd10  1  0.25087376  0.72790105  0.71840353  1
  Gd3+  Gd11  1  0.76573027  0.75443981  0.74832625  1
  Gd3+  Gd12  1  0.46970872  0.25769364  0.79060180  1
  Gd3+  Gd13  1  -0.01200131  0.77595634  -0.02233181  1
  Gd3+  Gd14  1  0.27326474  0.24665503  0.24865014  1
  Gd3+  Gd15  1  0.25522406  0.74902831  0.28304970  1
  Gd3+  Gd16  1  0.24508156  0.75113951  0.00987398  1
  Gd3+  Gd17  1  0.51546911  0.74426047  -0.01538290  1
  Gd3+  Gd18  1  0.48624617  0.75739894  0.73335330  1
  Ta5+  Ta19  1  0.34437396  0.37011200  0.09824418  1
  Ta5+  Ta20  1  0.37052041  0.13163889  0.62953618  1
  Ta5+  Ta21  1  0.87690776  0.61687338  0.87295434  1
  Ta5+  Ta22  1  0.12213021  0.10817241  0.12005962  1
  Ta5+  Ta23  1  0.62722887  0.61693145  0.41648693  1
  Ta5+  Ta24  1  0.32022090  0.37896470  0.88270283  1
  Ta5+  Ta25  1  0.88273431  0.38792054  0.11471700  1
  Ta5+  Ta26  1  0.37195717  0.88383856  0.13786867  1
  Ta5+  Ta27  1  0.10871894  0.62312160  0.13580357  1
  Ta5+  Ta28  1  0.88069717  0.13422436  0.11100587  1
  Ta5+  Ta29  1  0.09157381  0.87028691  0.17548640  1
  Ta5+  Ta30  1  0.15930291  0.37718953  0.10211656  1
  Ta5+  Ta31  1  0.63457993  0.38139096  0.13342343  1
  Ta5+  Ta32  1  0.58546106  0.62332994  0.17549099  1
  Ta5+  Ta33  1  0.85307731  0.13293876  0.85001807  1
  Ta5+  Ta34  1  0.32916963  0.12235530  0.87248259  1
  Ta5+  Ta35  1  0.62793614  0.62377757  0.86214358  1
  Ta5+  Ta36  1  0.65655203  0.13102809  0.37561367  1
  Ta5+  Ta37  1  0.64829497  0.88185445  0.39649238  1
  Ta5+  Ta38  1  0.71415010  0.11060987  0.62105913  1
  Ta5+  Ta39  1  0.86193627  0.37418170  0.85151682  1
  Ta5+  Ta40  1  0.88112244  0.12675143  0.61425281  1
  Ta5+  Ta41  1  0.12470756  0.86153838  0.84256313  1
  Ta5+  Ta42  1  0.06641225  0.86655246  0.39129011  1
  Ta5+  Ta43  1  0.33605413  0.12348406  0.08643631  1
  Ta5+  Ta44  1  0.62441523  0.92146787  0.62478935  1
  Ta5+  Ta45  1  0.34449036  0.11712535  0.40954988  1
  Ta5+  Ta46  1  0.13723013  0.10531957  0.37247664  1
  Ta5+  Ta47  1  0.37368367  0.60702561  0.60462292  1
  Ta5+  Ta48  1  0.06624271  0.60676349  0.35061872  1
  Ta5+  Ta49  1  0.58513804  0.87343222  0.15320774  1
  Ta5+  Ta50  1  0.14183648  0.86168391  0.57805705  1
  Ta5+  Ta51  1  0.62542104  0.38570781  0.87167727  1
  Ta5+  Ta52  1  0.63518896  0.59594704  0.61391161  1
  Ta5+  Ta53  1  0.63637252  0.12239144  0.86088318  1
  Ta5+  Ta54  1  0.89583684  0.88322604  0.35741327  1
  Ta5+  Ta55  1  0.88261531  0.88897513  0.13761027  1
  Ta5+  Ta56  1  0.86594893  0.60839320  0.36393496  1
  Ta5+  Ta57  1  0.40609585  0.36600914  0.36834831  1
  Ta5+  Ta58  1  0.90020923  0.62381550  0.13221082  1
  Ta5+  Ta59  1  0.90416900  0.40785261  0.36751181  1
  Ta5+  Ta60  1  0.40755485  0.89309725  0.35229808  1
  Ta5+  Ta61  1  0.64626191  0.34674541  0.63615904  1
  Ta5+  Ta62  1  0.12088121  0.60889919  0.59880974  1
  Ta5+  Ta63  1  0.62714825  0.89313826  0.87959684  1
  Ta5+  Ta64  1  0.12432640  0.62295692  0.86877958  1
  Ta5+  Ta65  1  0.37529200  0.61135554  0.13489148  1
  Ta5+  Ta66  1  0.14146787  0.37175159  0.62316147  1
  Ta5+  Ta67  1  0.87649852  0.13138707  0.35920443  1
  Ta5+  Ta68  1  0.15282058  0.37777028  0.36629143  1
  Ta5+  Ta69  1  0.40542078  0.61229864  0.35235242  1
  Ta5+  Ta70  1  0.86865768  0.90048204  0.86777125  1
  Ta5+  Ta71  1  0.37261609  0.87808136  0.88293478  1
  Ta5+  Ta72  1  0.38388376  0.36988573  0.62216216  1
  Ta5+  Ta73  1  0.88870947  0.38260385  0.62336356  1
  Ta5+  Ta74  1  0.84008499  0.90658391  0.60392522  1
  W6+  W75  1  0.14967034  0.11112515  0.60256420  1
  W6+  W76  1  0.65308260  0.11544825  0.12108745  1
  W6+  W77  1  0.37423226  0.61760878  0.88120564  1
  W6+  W78  1  0.17059623  0.10507613  0.87815563  1
  W6+  W79  1  0.57227759  0.36880874  0.39192107  1
  W6+  W80  1  0.15719916  0.37186767  0.88503652  1
  W6+  W81  1  0.86301556  0.62402298  0.62152199  1
  W6+  W82  1  0.35015623  0.87847995  0.61033297  1
  O2-  O83  1  0.13814527  -0.02274064  0.14679784  1
  O2-  O84  1  0.10719323  -0.01142645  0.36960497  1
  O2-  O85  1  0.16633752  -0.02241280  0.59498056  1
  O2-  O86  1  0.17031138  -0.03286677  0.85770327  1
  O2-  O87  1  0.13770030  0.50726857  0.12368826  1
  O2-  O88  1  0.12988180  0.49259817  0.33835773  1
  O2-  O89  1  0.10157009  0.48772647  0.63023985  1
  O2-  O90  1  0.13767009  0.50749601  0.87337264  1
  O2-  O91  1  0.34288193  0.00073452  0.12404765  1
  O2-  O92  1  0.39915545  0.02003976  0.35806904  1
  O2-  O93  1  0.35530444  0.01358541  0.62928997  1
  O2-  O94  1  0.36704609  -0.00461426  0.86130615  1
  O2-  O95  1  0.37484607  0.49201599  0.12985398  1
  O2-  O96  1  0.40479039  0.48605986  0.35212297  1
  O2-  O97  1  0.41699923  0.49268948  0.62315821  1
  O2-  O98  1  0.32793958  0.49986264  0.86901205  1
  O2-  O99  1  0.63204157  -0.02247184  0.12986697  1
  O2-  O100  1  0.66157399  0.00262459  0.37331633  1
  O2-  O101  1  0.58737507  0.03333835  0.61481251  1
  O2-  O102  1  0.58947743  0.00874549  0.89334372  1
  O2-  O103  1  0.62354710  0.51529691  0.13963955  1
  O2-  O104  1  0.59410568  0.50350416  0.40324140  1
  O2-  O105  1  0.63586446  0.48266279  0.64756000  1
  O2-  O106  1  0.59246200  0.50712400  0.85370787  1
  O2-  O107  1  0.86858539  0.00848295  0.11979188  1
  O2-  O108  1  0.89450149  0.01230800  0.34921345  1
  O2-  O109  1  0.91642376  -0.00027201  0.61959831  1
  O2-  O110  1  0.90138110  0.01649234  0.87950342  1
  O2-  O111  1  0.90930820  0.50715937  0.09082899  1
  O2-  O112  1  0.81116574  0.48553648  0.36649434  1
  O2-  O113  1  0.90701110  0.49783036  0.64964446  1
  O2-  O114  1  0.89848014  0.49861645  0.86923983  1
  O2-  O115  1  0.11913668  0.24086128  0.10192139  1
  O2-  O116  1  0.12243565  0.24481058  0.36457676  1
  O2-  O117  1  0.09967590  0.24905295  0.61260351  1
  O2-  O118  1  0.12597966  0.23654336  0.89177487  1
  O2-  O119  1  0.15088232  0.76490292  0.13524770  1
  O2-  O120  1  0.04451132  0.72956692  0.38534929  1
  O2-  O121  1  0.08605320  0.73011921  0.59376319  1
  O2-  O122  1  0.19516228  0.74032731  0.85525244  1
  O2-  O123  1  0.29771125  0.24790559  0.09264024  1
  O2-  O124  1  0.38076644  0.22645291  0.35914043  1
  O2-  O125  1  0.43762819  0.25626055  0.64334020  1
  O2-  O126  1  0.33196331  0.24720459  0.88160633  1
  O2-  O127  1  0.33839801  0.75639918  0.14204698  1
  O2-  O128  1  0.40536324  0.75251285  0.34602123  1
  O2-  O129  1  0.38873890  0.73754191  0.60453149  1
  O2-  O130  1  0.37464370  0.74829261  0.91879684  1
  O2-  O131  1  0.64180024  0.25630630  0.11624552  1
  O2-  O132  1  0.57215663  0.22354408  0.38095062  1
  O2-  O133  1  0.67194845  0.22663545  0.65253896  1
  O2-  O134  1  0.63388626  0.25504378  0.88486584  1
  O2-  O135  1  0.63111361  0.74113179  0.13878612  1
  O2-  O136  1  0.61957604  0.74918575  0.42199964  1
  O2-  O137  1  0.54330972  0.82444266  0.61088212  1
  O2-  O138  1  0.66293188  0.76099824  0.86494443  1
  O2-  O139  1  0.92815747  0.26687732  0.11453267  1
  O2-  O140  1  0.92370995  0.27160699  0.36232370  1
  O2-  O141  1  0.91478713  0.25487127  0.60893285  1
  O2-  O142  1  0.81316199  0.25453501  0.84923120  1
  O2-  O143  1  0.84800190  0.75228436  0.13383952  1
  O2-  O144  1  0.86434611  0.74135747  0.35405144  1
  O2-  O145  1  0.83764397  0.77307438  0.61076373  1
  O2-  O146  1  0.84726296  0.76382694  0.88239633  1
  O2-  O147  1  0.00827889  0.10894472  0.07385679  1
  O2-  O148  1  0.09205699  0.12478495  0.24439820  1
  O2-  O149  1  0.07438103  0.12193049  0.48235651  1
  O2-  O150  1  0.13538666  0.11872325  0.74118546  1
  O2-  O151  1  0.14277719  0.64246587  -0.00069861  1
  O2-  O152  1  0.14899555  0.64700058  0.25704343  1
  O2-  O153  1  0.09787658  0.59417427  0.47869320  1
  O2-  O154  1  0.13430821  0.63284574  0.73933332  1
  O2-  O155  1  0.40015952  0.11816632  -0.01493986  1
  O2-  O156  1  0.40085628  0.15445321  0.18781710  1
  O2-  O157  1  0.41702793  0.13455326  0.50918660  1
  O2-  O158  1  0.37747860  0.14008728  0.75773838  1
  O2-  O159  1  0.32635109  0.62171454  0.02035773  1
  O2-  O160  1  0.31873247  0.61742703  0.25066293  1
  O2-  O161  1  0.38309204  0.61700054  0.47530091  1
  O2-  O162  1  0.38049336  0.64229873  0.73740461  1
  O2-  O163  1  0.68336257  0.12554589  -0.01692962  1
  O2-  O164  1  0.60883590  0.12070655  0.25240976  1
  O2-  O165  1  0.68453677  0.12483850  0.49962517  1
  O2-  O166  1  0.54969084  0.14027670  0.77991874  1
  O2-  O167  1  0.63751919  0.64468335  -0.01467411  1
  O2-  O168  1  0.64675441  0.63697748  0.28515439  1
  O2-  O169  1  0.71006439  0.61070815  0.51658232  1
  O2-  O170  1  0.62389792  0.66232041  0.72502160  1
  O2-  O171  1  0.86822497  0.16152534  -0.01856695  1
  O2-  O172  1  0.90873629  0.15179645  0.23428670  1
  O2-  O173  1  0.88752557  0.13676185  0.48397408  1
  O2-  O174  1  0.91981164  0.14197197  0.74606100  1
  O2-  O175  1  0.85464693  0.64213477  0.00112587  1
  O2-  O176  1  0.82544350  0.61060523  0.23187970  1
  O2-  O177  1  0.88585875  0.61797687  0.48626022  1
  O2-  O178  1  0.88178371  0.65936153  0.75587241  1
  O2-  O179  1  0.07088786  0.37958437  0.00835615  1
  O2-  O180  1  0.15375140  0.34878338  0.22967052  1
  O2-  O181  1  0.11617313  0.37129421  0.49041895  1
  O2-  O182  1  0.12920301  0.35303931  0.74695951  1
  O2-  O183  1  0.12163114  0.83036931  -0.03347592  1
  O2-  O184  1  0.14208876  0.84147414  0.28697417  1
  O2-  O185  1  0.18309367  0.83153946  0.46554790  1
  O2-  O186  1  0.14991541  0.83854008  0.71750750  1
  O2-  O187  1  0.40138268  0.36816088  -0.01220817  1
  O2-  O188  1  0.38857966  0.34068685  0.22574400  1
  O2-  O189  1  0.39777641  0.36130163  0.49784208  1
  O2-  O190  1  0.36971030  0.36730586  0.75849284  1
  O2-  O191  1  0.32432466  0.88182760  0.00312138  1
  O2-  O192  1  0.31702311  0.88389802  0.25838647  1
  O2-  O193  1  0.36883136  0.87725568  0.46870642  1
  O2-  O194  1  0.35346497  0.83852663  0.76009441  1
  O2-  O195  1  0.63691381  0.39216531  -0.00256538  1
  O2-  O196  1  0.58626626  0.36660729  0.24555663  1
  O2-  O197  1  0.59237422  0.34705623  0.53084506  1
  O2-  O198  1  0.57936147  0.35216097  0.74783550  1
  O2-  O199  1  0.62872933  0.84943590  0.00569386  1
  O2-  O200  1  0.63757106  0.84915748  0.26724124  1
  O2-  O201  1  0.68592450  0.88626163  0.51781399  1
  O2-  O202  1  0.63117639  0.88419092  0.74951947  1
  O2-  O203  1  0.86853719  0.35727594  -0.01762232  1
  O2-  O204  1  0.92116471  0.39520947  0.23615964  1
  O2-  O205  1  0.91619275  0.39244538  0.49844729  1
  O2-  O206  1  0.93149753  0.35177702  0.75086829  1
  O2-  O207  1  0.85868773  0.86793843  0.00631148  1
  O2-  O208  1  0.81312721  0.88325725  0.24290235  1
  O2-  O209  1  0.86170811  0.88733001  0.48018657  1
  O2-  O210  1  0.84624132  0.88225110  0.74634619  1
  O2-  O211  1  0.00114547  -0.12607843  0.08462943  1
  O2-  O212  1  -0.02422700  -0.13077164  0.23950277  1
  O2-  O213  1  0.03131996  -0.12165226  0.52168428  1
  O2-  O214  1  -0.00060906  -0.13416276  0.84888219  1
  O2-  O215  1  0.00423611  0.67834129  0.08118266  1
  O2-  O216  1  0.00246927  0.60365112  0.21799659  1
  O2-  O217  1  -0.03132480  0.52193707  0.36578977  1
  O2-  O218  1  0.00402324  0.65120808  0.88482841  1
  O2-  O219  1  0.21355659  0.10003182  0.02956919  1
  O2-  O220  1  0.25214021  0.11541674  0.30923049  1
  O2-  O221  1  0.23600018  0.10196433  0.46976976  1
  O2-  O222  1  0.26413164  0.18218738  0.62266676  1
  O2-  O223  1  0.24331924  0.39375033  0.00537489  1
  O2-  O224  1  0.27174624  0.35999137  0.36452870  1
  O2-  O225  1  0.24909073  0.61176412  0.60308788  1
  O2-  O226  1  0.26183810  0.37484062  0.61405424  1
  O2-  O227  1  0.48022283  -0.14498353  0.07509683  1
  O2-  O228  1  0.47650680  -0.10321687  0.22604150  1
  O2-  O229  1  0.52329143  -0.10882289  0.40333087  1
  O2-  O230  1  0.49756773  -0.14397018  0.86879945  1
  O2-  O231  1  0.48920790  0.64518316  0.08631694  1
  O2-  O232  1  0.48053081  0.60985382  0.24059342  1
  O2-  O233  1  0.54300418  0.63114575  0.53901949  1
  O2-  O234  1  0.50709045  0.66822791  0.85502311  1
  O2-  O235  1  0.74661190  -0.07911917  -0.11244959  1
  O2-  O236  1  0.76108041  0.18335242  0.34305453  1
  O2-  O237  1  0.74396784  -0.02187779  0.64708689  1
  O2-  O238  1  0.73745889  0.09797034  0.79445817  1
  O2-  O239  1  0.75151785  0.61062642  -0.15155304  1
  O2-  O240  1  0.76238921  0.38688363  0.13212926  1
  O2-  O241  1  0.76826579  0.37220339  0.62708856  1
  O2-  O242  1  0.74228219  0.40896732  0.84177148  1
