# generated using pymatgen
data_Gd19Ta56(WO20)8
_symmetry_space_group_name_H-M   'P 1'
_cell_length_a   15.46984226
_cell_length_b   15.43962017
_cell_length_c   15.41064060
_cell_angle_alpha   90.07918733
_cell_angle_beta   90.12406226
_cell_angle_gamma   90.01375438
_symmetry_Int_Tables_number   1
_chemical_formula_structural   Gd19Ta56(WO20)8
_chemical_formula_sum   'Gd19 Ta56 W8 O160'
_cell_volume   3680.79596182
_cell_formula_units_Z   1
loop_
 _symmetry_equiv_pos_site_id
 _symmetry_equiv_pos_as_xyz
  1  'x, y, z'
loop_
 _atom_type_symbol
 _atom_type_oxidation_number
  Gd3+  3.0
  Ta5+  5.0
  W6+  6.0
  O2-  -2.0
loop_
 _atom_site_type_symbol
 _atom_site_label
 _atom_site_symmetry_multiplicity
 _atom_site_fract_x
 _atom_site_fract_y
 _atom_site_fract_z
 _atom_site_occupancy
  Gd3+  Gd0  1  0.23715469  0.73805777  0.49425046  1
  Gd3+  Gd1  1  0.51927845  0.22260691  -0.00709258  1
  Gd3+  Gd2  1  -0.00516812  0.27505053  0.26402444  1
  Gd3+  Gd3  1  0.25111891  0.24241676  0.23499997  1
  Gd3+  Gd4  1  0.00838575  0.25691724  0.77425910  1
  Gd3+  Gd5  1  0.23881574  0.74300331  0.25520764  1
  Gd3+  Gd6  1  -0.00256687  0.74483742  0.48816364  1
  Gd3+  Gd7  1  0.49843231  0.23312635  0.24324740  1
  Gd3+  Gd8  1  0.76189652  0.24162726  0.73108406  1
  Gd3+  Gd9  1  0.00399742  0.77742055  0.73697896  1
  Gd3+  Gd10  1  0.00633001  0.72375108  0.25851137  1
  Gd3+  Gd11  1  0.51001556  0.23829267  0.50489905  1
  Gd3+  Gd12  1  0.74652092  0.75676956  0.00523142  1
  Gd3+  Gd13  1  0.52739050  0.74752934  0.52701609  1
  Gd3+  Gd14  1  0.74883407  0.27773370  0.22865104  1
  Gd3+  Gd15  1  0.02366330  0.26237134  0.51563532  1
  Gd3+  Gd16  1  0.22785245  0.25366952  -0.02146010  1
  Gd3+  Gd17  1  0.76011602  0.75415137  0.76969123  1
  Gd3+  Gd18  1  -0.00884266  0.24281021  -0.00336563  1
  Ta5+  Ta19  1  0.36156788  0.36951621  0.63027096  1
  Ta5+  Ta20  1  0.89678320  0.62413715  0.87296863  1
  Ta5+  Ta21  1  0.34297445  0.86967054  0.62203276  1
  Ta5+  Ta22  1  0.12130764  0.85994662  0.88361701  1
  Ta5+  Ta23  1  0.33567116  0.08894832  0.37583576  1
  Ta5+  Ta24  1  0.86562843  0.13323633  0.38795331  1
  Ta5+  Ta25  1  0.67364844  0.12246124  0.87629257  1
  Ta5+  Ta26  1  0.88212147  0.88555545  0.37163165  1
  Ta5+  Ta27  1  0.62075171  0.62155118  0.13043499  1
  Ta5+  Ta28  1  0.88043489  0.88930195  0.88820055  1
  Ta5+  Ta29  1  0.88858515  0.11850361  0.62474848  1
  Ta5+  Ta30  1  0.08810139  0.46978491  0.89524617  1
  Ta5+  Ta31  1  0.64165002  0.11177309  0.62414425  1
  Ta5+  Ta32  1  0.89679425  0.39913490  0.12461789  1
  Ta5+  Ta33  1  0.86761840  0.39620634  0.63125693  1
  Ta5+  Ta34  1  0.17430761  0.87578849  0.63728567  1
  Ta5+  Ta35  1  0.61899341  0.36840014  0.85656099  1
  Ta5+  Ta36  1  0.36608521  0.11763867  0.62532252  1
  Ta5+  Ta37  1  0.88188080  0.12544682  0.13428156  1
  Ta5+  Ta38  1  0.63182819  0.87177119  0.37913307  1
  Ta5+  Ta39  1  0.62376761  0.38108503  0.37928658  1
  Ta5+  Ta40  1  0.13610340  0.63020027  0.87354746  1
  Ta5+  Ta41  1  0.37555843  0.62059911  0.12281591  1
  Ta5+  Ta42  1  0.08510810  0.86927675  0.10284718  1
  Ta5+  Ta43  1  0.15227167  0.40666086  0.40302769  1
  Ta5+  Ta44  1  0.10179231  0.09182240  0.88168466  1
  Ta5+  Ta45  1  0.86404896  0.39036101  0.87626509  1
  Ta5+  Ta46  1  0.38785306  0.85898455  0.37072812  1
  Ta5+  Ta47  1  0.64647728  0.38615614  0.61818537  1
  Ta5+  Ta48  1  0.60826874  0.38260786  0.11283447  1
  Ta5+  Ta49  1  0.59966896  0.86784954  0.13068414  1
  Ta5+  Ta50  1  0.12497198  0.93472551  0.39249504  1
  Ta5+  Ta51  1  0.36880556  0.37132687  0.37331368  1
  Ta5+  Ta52  1  0.62305425  0.61728139  0.87471525  1
  Ta5+  Ta53  1  0.63590278  0.10645321  0.13120002  1
  Ta5+  Ta54  1  0.84891931  0.64663917  0.62389291  1
  Ta5+  Ta55  1  0.68012150  0.63112574  0.62753525  1
  Ta5+  Ta56  1  0.66075042  0.12103449  0.38609192  1
  Ta5+  Ta57  1  0.84573057  0.38096341  0.43129009  1
  Ta5+  Ta58  1  0.12536020  0.11228039  0.11422457  1
  Ta5+  Ta59  1  0.87664616  0.61791451  0.12279053  1
  Ta5+  Ta60  1  0.37061496  0.86210157  0.86805591  1
  Ta5+  Ta61  1  0.36760675  0.37724595  0.11418303  1
  Ta5+  Ta62  1  0.12794750  0.41430093  0.09461981  1
  Ta5+  Ta63  1  0.67414332  0.87189189  0.62865286  1
  Ta5+  Ta64  1  0.36283525  0.11097474  0.85474128  1
  Ta5+  Ta65  1  0.38544777  0.61731288  0.87098609  1
  Ta5+  Ta66  1  0.61843234  0.63224287  0.37940094  1
  Ta5+  Ta67  1  0.12293030  0.62554580  0.63545746  1
  Ta5+  Ta68  1  0.37885712  0.11063881  0.10992145  1
  Ta5+  Ta69  1  0.11906777  0.59343326  0.37935475  1
  Ta5+  Ta70  1  0.84288526  0.87445025  0.61791831  1
  Ta5+  Ta71  1  0.11909585  0.61795814  0.10466874  1
  Ta5+  Ta72  1  0.61560352  0.88269444  0.87518650  1
  Ta5+  Ta73  1  0.37469703  0.61984622  0.62954173  1
  Ta5+  Ta74  1  0.84454844  0.12912161  0.88133036  1
  W6+  W75  1  0.36785695  0.36398529  0.85987940  1
  W6+  W76  1  0.86098513  0.62396113  0.37465153  1
  W6+  W77  1  0.88309795  0.87569043  0.12897626  1
  W6+  W78  1  0.36488440  0.60173037  0.38000490  1
  W6+  W79  1  0.11775486  0.40235399  0.66182859  1
  W6+  W80  1  0.11983651  0.12058396  0.64260140  1
  W6+  W81  1  0.34453932  0.86405910  0.11574895  1
  W6+  W82  1  0.13957346  0.14233358  0.38177224  1
  O2-  O83  1  0.12248049  -0.01565320  0.13172653  1
  O2-  O84  1  0.05938381  0.03431029  0.37092911  1
  O2-  O85  1  0.15389685  -0.00702827  0.64731508  1
  O2-  O86  1  0.15414836  -0.01664117  0.87695334  1
  O2-  O87  1  0.18114915  0.51427035  0.14392565  1
  O2-  O88  1  0.06362697  0.47130132  0.35401160  1
  O2-  O89  1  0.06500009  0.52126246  0.65485218  1
  O2-  O90  1  0.20157247  0.51506682  0.87385257  1
  O2-  O91  1  0.35639627  -0.00254034  0.12899878  1
  O2-  O92  1  0.40222622  -0.01678294  0.35708252  1
  O2-  O93  1  0.37062644  -0.00504754  0.61637581  1
  O2-  O94  1  0.34575795  -0.00751566  0.85039179  1
  O2-  O95  1  0.34904872  0.49792375  0.11980031  1
  O2-  O96  1  0.42191972  0.47565767  0.35868464  1
  O2-  O97  1  0.38657832  0.49120161  0.62485188  1
  O2-  O98  1  0.39020104  0.49721325  0.86273087  1
  O2-  O99  1  0.64982395  -0.01333960  0.12410223  1
  O2-  O100  1  0.65845437  -0.00505680  0.37956532  1
  O2-  O101  1  0.63009669  -0.00917612  0.62675147  1
  O2-  O102  1  0.63715503  0.00153246  0.88185374  1
  O2-  O103  1  0.64629775  0.49937562  0.11592424  1
  O2-  O104  1  0.63003559  0.50119653  0.38323421  1
  O2-  O105  1  0.64452953  0.50707513  0.61450116  1
  O2-  O106  1  0.61468318  0.49625638  0.87523015  1
  O2-  O107  1  0.90090478  0.00947661  0.14050509  1
  O2-  O108  1  0.87535232  0.01376886  0.37877042  1
  O2-  O109  1  0.87945815  -0.00262653  0.62426481  1
  O2-  O110  1  0.84850653  0.00313100  0.86411812  1
  O2-  O111  1  0.82807927  0.50064417  0.12636458  1
  O2-  O112  1  0.85359665  0.48764687  0.38410866  1
  O2-  O113  1  0.86172885  0.51756998  0.63645700  1
  O2-  O114  1  0.84298955  0.51494849  0.85210280  1
  O2-  O115  1  0.10927536  0.24226935  0.08627089  1
  O2-  O116  1  0.09364570  0.28945565  0.37756870  1
  O2-  O117  1  0.08302051  0.26039450  0.65102889  1
  O2-  O118  1  0.10536855  0.22337305  0.89223397  1
  O2-  O119  1  0.12806558  0.75353880  0.14631654  1
  O2-  O120  1  0.13635481  0.72379206  0.38503670  1
  O2-  O121  1  0.10333126  0.75567263  0.60630033  1
  O2-  O122  1  0.06136442  0.74238718  0.87864638  1
  O2-  O123  1  0.41404639  0.24566284  0.10845565  1
  O2-  O124  1  0.44772584  0.27494029  0.37637329  1
  O2-  O125  1  0.40503835  0.24304986  0.60505785  1
  O2-  O126  1  0.31621751  0.23104741  0.86157829  1
  O2-  O127  1  0.31496442  0.72852080  0.11994313  1
  O2-  O128  1  0.32638869  0.73736654  0.37885704  1
  O2-  O129  1  0.40722949  0.74674311  0.61325641  1
  O2-  O130  1  0.34388510  0.74241338  0.87402963  1
  O2-  O131  1  0.61286648  0.25123889  0.13406613  1
  O2-  O132  1  0.61034405  0.24110361  0.38109310  1
  O2-  O133  1  0.63614403  0.24912990  0.61171138  1
  O2-  O134  1  0.60825350  0.24193352  0.87021265  1
  O2-  O135  1  0.64763394  0.74874761  0.12465782  1
  O2-  O136  1  0.66411887  0.74960181  0.36672838  1
  O2-  O137  1  0.61949592  0.74808526  0.64673086  1
  O2-  O138  1  0.65758144  0.75094405  0.87652703  1
  O2-  O139  1  0.91743925  0.25751824  0.12434301  1
  O2-  O140  1  0.90400742  0.26950443  0.39430730  1
  O2-  O141  1  0.87465851  0.25998284  0.62385461  1
  O2-  O142  1  0.89286308  0.25992101  0.88061315  1
  O2-  O143  1  0.83878730  0.73728046  0.12092004  1
  O2-  O144  1  0.90183083  0.75534523  0.36496939  1
  O2-  O145  1  0.91983699  0.76518885  0.61200100  1
  O2-  O146  1  0.85232276  0.75249523  0.89118966  1
  O2-  O147  1  0.06337248  0.09283840  0.00652737  1
  O2-  O148  1  0.12866081  0.15402858  0.23795853  1
  O2-  O149  1  0.12398168  0.15671024  0.51542032  1
  O2-  O150  1  0.06283371  0.10909832  0.76444709  1
  O2-  O151  1  0.16846837  0.65095851  -0.00040508  1
  O2-  O152  1  0.12171974  0.62557339  0.25148494  1
  O2-  O153  1  0.14057344  0.61081664  0.50881011  1
  O2-  O154  1  0.15445566  0.65454828  0.75278722  1
  O2-  O155  1  0.39550100  0.12033520  -0.01753887  1
  O2-  O156  1  0.37175655  0.13766680  0.25130245  1
  O2-  O157  1  0.38337913  0.11770972  0.48541368  1
  O2-  O158  1  0.41374806  0.12371135  0.74122791  1
  O2-  O159  1  0.37543548  0.61780022  -0.00419415  1
  O2-  O160  1  0.34476873  0.62094628  0.24472863  1
  O2-  O161  1  0.33075274  0.62233809  0.51134526  1
  O2-  O162  1  0.34808856  0.62974908  0.74636847  1
  O2-  O163  1  0.63734336  0.13300133  0.00711506  1
  O2-  O164  1  0.60759923  0.12232897  0.25821993  1
  O2-  O165  1  0.59102618  0.11617504  0.49813373  1
  O2-  O166  1  0.65098869  0.12908035  0.74904158  1
  O2-  O167  1  0.65303115  0.62958059  0.00011452  1
  O2-  O168  1  0.64120035  0.61790246  0.25059769  1
  O2-  O169  1  0.64139609  0.64471500  0.50238552  1
  O2-  O170  1  0.67772562  0.62137893  0.76230154  1
  O2-  O171  1  0.88311901  0.13310953  0.00879222  1
  O2-  O172  1  0.91729197  0.15070617  0.26303939  1
  O2-  O173  1  0.92852412  0.13905222  0.50228798  1
  O2-  O174  1  0.88316710  0.14595696  0.75243459  1
  O2-  O175  1  0.87347717  0.61651320  -0.00465326  1
  O2-  O176  1  0.89989140  0.61741252  0.24617048  1
  O2-  O177  1  0.85676248  0.65113782  0.50169803  1
  O2-  O178  1  0.89850013  0.66594275  0.74935308  1
  O2-  O179  1  0.15054290  0.37746240  -0.02382258  1
  O2-  O180  1  0.02793079  0.38918444  0.16348837  1
  O2-  O181  1  0.13073992  0.38954268  0.52009491  1
  O2-  O182  1  0.08333738  0.39294687  0.79498252  1
  O2-  O183  1  0.16140060  0.84969335  0.00108767  1
  O2-  O184  1  0.17041864  0.87529292  0.29996499  1
  O2-  O185  1  0.16217997  0.88275547  0.50057259  1
  O2-  O186  1  0.14864983  0.84199960  0.76053697  1
  O2-  O187  1  0.34295692  0.35509627  -0.00613209  1
  O2-  O188  1  0.37680259  0.33585342  0.23883769  1
  O2-  O189  1  0.35711074  0.36558479  0.49494032  1
  O2-  O190  1  0.41403826  0.35344643  0.73776772  1
  O2-  O191  1  0.35210848  0.88158890  -0.01494043  1
  O2-  O192  1  0.34795201  0.84683708  0.25369246  1
  O2-  O193  1  0.34291766  0.86318067  0.48644298  1
  O2-  O194  1  0.33678847  0.85802032  0.74321381  1
  O2-  O195  1  0.59435296  0.35984261  -0.00963137  1
  O2-  O196  1  0.60316299  0.36550637  0.25389222  1
  O2-  O197  1  0.57938113  0.37095099  0.49926461  1
  O2-  O198  1  0.59487809  0.37554928  0.73403426  1
  O2-  O199  1  0.63385246  0.86299818  0.00003145  1
  O2-  O200  1  0.60767919  0.87441756  0.25244317  1
  O2-  O201  1  0.63418148  0.85518002  0.50525069  1
  O2-  O202  1  0.67106042  0.87673528  0.76234549  1
  O2-  O203  1  0.89895932  0.39066564  -0.00153291  1
  O2-  O204  1  0.87038091  0.35977617  0.24547269  1
  O2-  O205  1  0.93766898  0.39049030  0.52101383  1
  O2-  O206  1  0.90711448  0.37498825  0.75218617  1
  O2-  O207  1  0.81897486  0.88543933  -0.00079861  1
  O2-  O208  1  0.82597924  0.88109163  0.26455683  1
  O2-  O209  1  0.83776706  0.87147007  0.48522126  1
  O2-  O210  1  0.87209039  0.85750928  0.75337783  1
  O2-  O211  1  -0.01311045  -0.13064703  0.03313402  1
  O2-  O212  1  0.00000854  -0.14397405  0.20182052  1
  O2-  O213  1  0.00998153  -0.12583450  0.40532342  1
  O2-  O214  1  0.00064386  -0.10520595  0.85855052  1
  O2-  O215  1  0.06652719  0.51017631  0.02891796  1
  O2-  O216  1  -0.00003238  0.64853547  0.11532452  1
  O2-  O217  1  -0.00138606  0.62402679  0.40082556  1
  O2-  O218  1  0.01119464  0.57356487  0.86184733  1
  O2-  O219  1  0.25349129  0.15157610  0.10302105  1
  O2-  O220  1  0.26927817  0.19792378  0.37358543  1
  O2-  O221  1  0.23154714  0.02544144  0.39269817  1
  O2-  O222  1  0.25425981  0.14294929  0.64431637  1
  O2-  O223  1  0.23727493  0.35003924  0.13040625  1
  O2-  O224  1  0.24846854  0.36310466  0.33304431  1
  O2-  O225  1  0.22601779  0.52310599  0.38453719  1
  O2-  O226  1  0.24747071  0.35966329  0.65677983  1
  O2-  O227  1  0.48501848  -0.14071117  0.11587773  1
  O2-  O228  1  0.50715404  0.10828434  0.12146146  1
  O2-  O229  1  0.50649945  -0.16167359  0.39465053  1
  O2-  O230  1  0.49466373  -0.13444436  0.86040368  1
  O2-  O231  1  0.49942265  0.62565281  0.12921928  1
  O2-  O232  1  0.48945636  0.40368342  0.12223693  1
  O2-  O233  1  0.49979479  0.64949640  0.39737213  1
  O2-  O234  1  0.50523318  0.64706607  0.86135202  1
  O2-  O235  1  0.75787896  0.14632891  0.14353349  1
  O2-  O236  1  0.76142072  0.16467372  0.31252695  1
  O2-  O237  1  0.76070302  0.13232454  0.46159409  1
  O2-  O238  1  0.76323391  0.12341813  0.62721985  1
  O2-  O239  1  0.74295543  0.36197061  -0.13489559  1
  O2-  O240  1  0.74114132  0.34499471  0.36273671  1
  O2-  O241  1  0.76550546  0.38686880  0.52716416  1
  O2-  O242  1  0.75219091  0.37891024  0.68691968  1
