# generated using pymatgen
data_Gd19Ta56(WO20)8
_symmetry_space_group_name_H-M   'P 1'
_cell_length_a   15.53653343
_cell_length_b   15.52001990
_cell_length_c   15.31423882
_cell_angle_alpha   90.07242065
_cell_angle_beta   90.11521917
_cell_angle_gamma   90.03590440
_symmetry_Int_Tables_number   1
_chemical_formula_structural   Gd19Ta56(WO20)8
_chemical_formula_sum   'Gd19 Ta56 W8 O160'
_cell_volume   3692.67003236
_cell_formula_units_Z   1
loop_
 _symmetry_equiv_pos_site_id
 _symmetry_equiv_pos_as_xyz
  1  'x, y, z'
loop_
 _atom_type_symbol
 _atom_type_oxidation_number
  Gd3+  3.0
  Ta5+  5.0
  W6+  6.0
  O2-  -2.0
loop_
 _atom_site_type_symbol
 _atom_site_label
 _atom_site_symmetry_multiplicity
 _atom_site_fract_x
 _atom_site_fract_y
 _atom_site_fract_z
 _atom_site_occupancy
  Gd3+  Gd0  1  0.23539042  0.25550242  0.49469178  1
  Gd3+  Gd1  1  0.27251169  0.75355744  0.24542429  1
  Gd3+  Gd2  1  -0.00405876  0.25375687  0.00307460  1
  Gd3+  Gd3  1  -0.00734851  0.75306731  0.25377958  1
  Gd3+  Gd4  1  0.02492918  0.73177495  -0.00958301  1
  Gd3+  Gd5  1  0.47077902  0.76538221  0.74127278  1
  Gd3+  Gd6  1  0.23395946  0.25441784  0.76967695  1
  Gd3+  Gd7  1  0.75847223  0.72858862  0.50987930  1
  Gd3+  Gd8  1  0.48784592  0.75105261  0.49494437  1
  Gd3+  Gd9  1  0.74327257  0.24869557  0.51998892  1
  Gd3+  Gd10  1  0.00115098  0.75879927  0.50353792  1
  Gd3+  Gd11  1  -0.00012394  0.25309667  0.24998571  1
  Gd3+  Gd12  1  0.76647778  0.74928135  -0.00160034  1
  Gd3+  Gd13  1  0.74209818  0.24344391  0.26800939  1
  Gd3+  Gd14  1  0.28325487  0.24690623  -0.00985931  1
  Gd3+  Gd15  1  0.53086102  0.25141926  0.01037684  1
  Gd3+  Gd16  1  0.25887197  0.75151147  0.00636573  1
  Gd3+  Gd17  1  0.46460540  0.25837576  0.76650924  1
  Gd3+  Gd18  1  0.47317264  0.25322897  0.52528988  1
  Ta5+  Ta19  1  0.16426641  0.87433953  0.60711833  1
  Ta5+  Ta20  1  0.35201012  0.62189420  0.87013972  1
  Ta5+  Ta21  1  0.61344996  0.38073091  0.38406939  1
  Ta5+  Ta22  1  0.83824148  0.61776749  0.36164928  1
  Ta5+  Ta23  1  0.12211057  0.62976547  0.62213372  1
  Ta5+  Ta24  1  0.38923500  0.12173179  0.13358828  1
  Ta5+  Ta25  1  0.37267127  0.37254234  0.37232876  1
  Ta5+  Ta26  1  0.38158778  0.61830107  0.37093757  1
  Ta5+  Ta27  1  0.84021759  0.88429162  0.64341316  1
  Ta5+  Ta28  1  0.35095902  0.42106269  0.88330612  1
  Ta5+  Ta29  1  0.87489317  0.37782635  0.38808658  1
  Ta5+  Ta30  1  0.33080369  0.88004278  0.60727332  1
  Ta5+  Ta31  1  0.11931662  0.38139511  0.37708995  1
  Ta5+  Ta32  1  0.89468060  0.37764612  0.62912733  1
  Ta5+  Ta33  1  0.36009803  0.12307073  0.38326378  1
  Ta5+  Ta34  1  0.65843557  0.41475521  0.88024156  1
  Ta5+  Ta35  1  0.85348616  0.87989015  0.36852703  1
  Ta5+  Ta36  1  0.88977276  0.61259756  0.11865736  1
  Ta5+  Ta37  1  0.62887053  0.86596142  0.12832603  1
  Ta5+  Ta38  1  0.16127385  0.11070482  0.63112143  1
  Ta5+  Ta39  1  0.87830619  0.11637750  0.87415761  1
  Ta5+  Ta40  1  0.90695926  0.12414155  0.62547774  1
  Ta5+  Ta41  1  0.90275882  0.88653547  0.11643681  1
  Ta5+  Ta42  1  0.83822759  0.37726384  0.12872832  1
  Ta5+  Ta43  1  0.35289221  0.06418375  0.88537982  1
  Ta5+  Ta44  1  0.85937572  0.58820168  0.87789985  1
  Ta5+  Ta45  1  0.88717307  0.12006442  0.38790813  1
  Ta5+  Ta46  1  0.63705908  0.10932636  0.87512813  1
  Ta5+  Ta47  1  0.15988125  0.87432273  0.38810076  1
  Ta5+  Ta48  1  0.39602331  0.61815752  0.11793039  1
  Ta5+  Ta49  1  0.60285398  0.11897455  0.38484654  1
  Ta5+  Ta50  1  0.60003854  0.11814396  0.63262742  1
  Ta5+  Ta51  1  0.35824095  0.62416602  0.62089780  1
  Ta5+  Ta52  1  0.62509844  0.87739316  0.37869669  1
  Ta5+  Ta53  1  0.12609376  0.11618619  0.37585335  1
  Ta5+  Ta54  1  0.34451446  0.87500287  0.86339809  1
  Ta5+  Ta55  1  0.14296890  0.37863222  0.13083157  1
  Ta5+  Ta56  1  0.17280270  0.62083565  0.86908852  1
  Ta5+  Ta57  1  0.12234772  0.39282428  0.89311628  1
  Ta5+  Ta58  1  0.63172793  0.62411370  0.37013595  1
  Ta5+  Ta59  1  0.34432178  0.38852140  0.63438569  1
  Ta5+  Ta60  1  0.17163589  0.87853981  0.85851867  1
  Ta5+  Ta61  1  0.61073758  0.64916728  0.88341627  1
  Ta5+  Ta62  1  0.38520042  0.37327085  0.12700610  1
  Ta5+  Ta63  1  0.14138529  0.12312625  0.13078401  1
  Ta5+  Ta64  1  0.11390333  0.88150969  0.12707888  1
  Ta5+  Ta65  1  0.60721414  0.38493670  0.64241864  1
  Ta5+  Ta66  1  0.38671059  0.88349243  0.12362651  1
  Ta5+  Ta67  1  0.63390250  0.63220700  0.13805086  1
  Ta5+  Ta68  1  0.33395507  0.11717473  0.64057135  1
  Ta5+  Ta69  1  0.85740112  0.37335597  0.87527015  1
  Ta5+  Ta70  1  0.12210889  0.10806085  0.88753158  1
  Ta5+  Ta71  1  0.62891472  0.87841471  0.62885983  1
  Ta5+  Ta72  1  0.63424205  0.10896019  0.13249726  1
  Ta5+  Ta73  1  0.32735828  0.87916065  0.39104229  1
  Ta5+  Ta74  1  0.12780454  0.38090938  0.63422237  1
  W6+  W75  1  0.88884422  0.62463604  0.62651840  1
  W6+  W76  1  0.90274257  0.86281305  0.87709361  1
  W6+  W77  1  0.60027611  0.62686281  0.63562128  1
  W6+  W78  1  0.67135906  0.38038498  0.12965418  1
  W6+  W79  1  0.87495758  0.13087519  0.12755615  1
  W6+  W80  1  0.12652633  0.62258953  0.36663964  1
  W6+  W81  1  0.12149269  0.61654350  0.14450729  1
  W6+  W82  1  0.62453379  0.85916963  0.87023213  1
  O2-  O83  1  0.14891523  0.00240741  0.13358184  1
  O2-  O84  1  0.14135098  -0.00271989  0.36730925  1
  O2-  O85  1  0.13843672  -0.00689714  0.62474581  1
  O2-  O86  1  0.10348527  -0.00990706  0.88367095  1
  O2-  O87  1  0.17270478  0.49141057  0.13272135  1
  O2-  O88  1  0.16026674  0.49115330  0.37075656  1
  O2-  O89  1  0.12132562  0.50026178  0.62995660  1
  O2-  O90  1  0.10484979  0.50956676  0.88822632  1
  O2-  O91  1  0.36461881  0.00313392  0.11495118  1
  O2-  O92  1  0.33345370  0.00735038  0.39548759  1
  O2-  O93  1  0.35838256  0.00131680  0.61570033  1
  O2-  O94  1  0.43577453  -0.02102588  0.87982947  1
  O2-  O95  1  0.38646905  0.49485754  0.11986471  1
  O2-  O96  1  0.36267386  0.49363583  0.37297680  1
  O2-  O97  1  0.38335997  0.50284326  0.61801176  1
  O2-  O98  1  0.43016936  0.51079234  0.88388045  1
  O2-  O99  1  0.66261882  -0.01413520  0.13296021  1
  O2-  O100  1  0.58320956  0.00125632  0.38200768  1
  O2-  O101  1  0.59213572  -0.00349817  0.61794655  1
  O2-  O102  1  0.61473903  -0.00365443  0.87793794  1
  O2-  O103  1  0.66710307  0.52006933  0.13197210  1
  O2-  O104  1  0.60210545  0.50106551  0.37735574  1
  O2-  O105  1  0.64146699  0.49756071  0.64805500  1
  O2-  O106  1  0.60647043  0.52600602  0.88816592  1
  O2-  O107  1  0.86533216  -0.00252819  0.13024289  1
  O2-  O108  1  0.89600095  0.00128785  0.36493216  1
  O2-  O109  1  0.87431279  0.00177697  0.61982526  1
  O2-  O110  1  0.89491587  0.00119141  0.87391485  1
  O2-  O111  1  0.86429126  0.49413694  0.14816802  1
  O2-  O112  1  0.87686104  0.49825448  0.36773695  1
  O2-  O113  1  0.91394346  0.49277042  0.61675965  1
  O2-  O114  1  0.92742057  0.48635833  0.88322106  1
  O2-  O115  1  0.09646250  0.24909319  0.13053250  1
  O2-  O116  1  0.14685051  0.25109195  0.36556493  1
  O2-  O117  1  0.16529245  0.25277063  0.63409654  1
  O2-  O118  1  0.13268720  0.25186474  0.90130212  1
  O2-  O119  1  0.08763202  0.75145650  0.13352564  1
  O2-  O120  1  0.08454433  0.75708617  0.37374015  1
  O2-  O121  1  0.09631572  0.75495180  0.61810294  1
  O2-  O122  1  0.14582676  0.75415746  0.88387571  1
  O2-  O123  1  0.42201244  0.24705102  0.11515384  1
  O2-  O124  1  0.33072764  0.25185656  0.37022574  1
  O2-  O125  1  0.34769995  0.25615099  0.66379016  1
  O2-  O126  1  0.35514994  0.28072249  0.86131005  1
  O2-  O127  1  0.36099853  0.75052148  0.12353794  1
  O2-  O128  1  0.34855589  0.74444675  0.37436541  1
  O2-  O129  1  0.39015276  0.75278451  0.61232000  1
  O2-  O130  1  0.35938428  0.74855486  0.87513601  1
  O2-  O131  1  0.64389149  0.23564357  0.13622779  1
  O2-  O132  1  0.65043652  0.24662363  0.38889562  1
  O2-  O133  1  0.62465760  0.24882482  0.62385740  1
  O2-  O134  1  0.54595849  0.19731114  0.87120606  1
  O2-  O135  1  0.69303065  0.75436233  0.14046361  1
  O2-  O136  1  0.65358230  0.75437621  0.38820362  1
  O2-  O137  1  0.57051785  0.76326869  0.62271447  1
  O2-  O138  1  0.69607884  0.73855127  0.86199897  1
  O2-  O139  1  0.91372725  0.26574864  0.12834270  1
  O2-  O140  1  0.83064588  0.24994412  0.39706654  1
  O2-  O141  1  0.85734968  0.24267554  0.61434501  1
  O2-  O142  1  0.91619066  0.26186241  0.87400691  1
  O2-  O143  1  0.90140921  0.74447675  0.10282197  1
  O2-  O144  1  0.82982809  0.75171216  0.37527001  1
  O2-  O145  1  0.85738715  0.76061489  0.61661843  1
  O2-  O146  1  0.90004935  0.71200712  0.90463294  1
  O2-  O147  1  0.08706984  0.12440011  0.01653820  1
  O2-  O148  1  0.08548262  0.12798765  0.24577248  1
  O2-  O149  1  0.15651556  0.12748930  0.49777474  1
  O2-  O150  1  0.14594388  0.12848185  0.76531131  1
  O2-  O151  1  0.15530058  0.64263210  0.00348035  1
  O2-  O152  1  0.20071025  0.63396519  0.25182414  1
  O2-  O153  1  0.08652471  0.62744645  0.49820543  1
  O2-  O154  1  0.13850968  0.63026420  0.75218819  1
  O2-  O155  1  0.39779792  0.13652093  -0.01125158  1
  O2-  O156  1  0.37639223  0.12183346  0.25445773  1
  O2-  O157  1  0.35985093  0.15607635  0.51406250  1
  O2-  O158  1  0.35664723  0.12288955  0.77531030  1
  O2-  O159  1  0.34426531  0.62436721  0.00460580  1
  O2-  O160  1  0.37588394  0.62712504  0.24078398  1
  O2-  O161  1  0.38267936  0.62607895  0.49659403  1
  O2-  O162  1  0.37982332  0.63343728  0.74528701  1
  O2-  O163  1  0.62404016  0.12673213  0.00564582  1
  O2-  O164  1  0.65590952  0.11803362  0.26831885  1
  O2-  O165  1  0.64747956  0.12306417  0.50803508  1
  O2-  O166  1  0.65123066  0.11801090  0.74358510  1
  O2-  O167  1  0.64173002  0.66006582  0.00763404  1
  O2-  O168  1  0.58824708  0.65317370  0.24965258  1
  O2-  O169  1  0.60162559  0.64660933  0.50308839  1
  O2-  O170  1  0.56606724  0.65100383  0.76583064  1
  O2-  O171  1  0.90766824  0.13643394  -0.00643328  1
  O2-  O172  1  0.86617515  0.15138599  0.26726018  1
  O2-  O173  1  0.83829896  0.11893270  0.50356207  1
  O2-  O174  1  0.89238679  0.13374320  0.74820984  1
  O2-  O175  1  0.82131619  0.60629463  0.01140512  1
  O2-  O176  1  0.88471765  0.64766285  0.24240822  1
  O2-  O177  1  0.89614625  0.64507019  0.48218354  1
  O2-  O178  1  0.85370099  0.60742689  0.76085646  1
  O2-  O179  1  0.07879349  0.38203216  0.02011973  1
  O2-  O180  1  0.08700242  0.37485813  0.24383493  1
  O2-  O181  1  0.13320273  0.36949726  0.50376568  1
  O2-  O182  1  0.13979410  0.37278857  0.76828630  1
  O2-  O183  1  0.17204622  0.86912752  0.01355586  1
  O2-  O184  1  0.16623701  0.85856862  0.24887614  1
  O2-  O185  1  0.08732975  0.87961840  0.49607138  1
  O2-  O186  1  0.16072116  0.86534261  0.73987513  1
  O2-  O187  1  0.40721301  0.36153708  -0.00316884  1
  O2-  O188  1  0.40406074  0.36682088  0.24837375  1
  O2-  O189  1  0.36010328  0.34929653  0.50730870  1
  O2-  O190  1  0.32728095  0.40499888  0.76003872  1
  O2-  O191  1  0.35503504  0.87142753  0.00195292  1
  O2-  O192  1  0.35945478  0.88058052  0.25087056  1
  O2-  O193  1  0.40114090  0.87357943  0.49536714  1
  O2-  O194  1  0.35740811  0.86596469  0.73335047  1
  O2-  O195  1  0.61457750  0.36909573  -0.01413492  1
  O2-  O196  1  0.67731596  0.37473233  0.27722843  1
  O2-  O197  1  0.63740185  0.37331686  0.51123928  1
  O2-  O198  1  0.59976378  0.36907674  0.77637955  1
  O2-  O199  1  0.65306039  0.85356542  0.00703499  1
  O2-  O200  1  0.60138115  0.86653180  0.25795075  1
  O2-  O201  1  0.57714008  0.87040136  0.49562358  1
  O2-  O202  1  0.57309278  0.87096667  0.74265481  1
  O2-  O203  1  0.86556360  0.37121049  0.00505572  1
  O2-  O204  1  0.86224585  0.35046605  0.26210232  1
  O2-  O205  1  0.83038990  0.37729026  0.51050601  1
  O2-  O206  1  0.85232458  0.37738262  0.74371674  1
  O2-  O207  1  0.84103949  0.87269275  0.00587934  1
  O2-  O208  1  0.86482788  0.85290934  0.24385172  1
  O2-  O209  1  0.89582888  0.86721920  0.48558083  1
  O2-  O210  1  0.90848709  0.86939761  0.74048300  1
  O2-  O211  1  0.00666345  -0.12468335  0.03834659  1
  O2-  O212  1  0.00849276  -0.10313555  0.19749691  1
  O2-  O213  1  0.00106017  0.15656680  0.39801365  1
  O2-  O214  1  0.02194702  0.13296865  0.61300291  1
  O2-  O215  1  -0.00114014  0.60153240  0.06935953  1
  O2-  O216  1  0.04570963  0.61602652  0.26216188  1
  O2-  O217  1  -0.00797386  0.34905635  0.38902186  1
  O2-  O218  1  0.00783657  0.33801789  0.63650523  1
  O2-  O219  1  0.24075345  0.11990289  -0.07023997  1
  O2-  O220  1  0.26006733  0.15375826  0.11455748  1
  O2-  O221  1  0.24465470  -0.16925846  0.49836860  1
  O2-  O222  1  0.26467478  -0.02140373  0.84545843  1
  O2-  O223  1  0.23876753  0.38422449  -0.05919820  1
  O2-  O224  1  0.26050487  0.33772497  0.11883080  1
  O2-  O225  1  0.24010257  0.64171164  0.60283724  1
  O2-  O226  1  0.26506595  0.52641666  0.86243668  1
  O2-  O227  1  0.50710913  -0.12935506  0.11396627  1
  O2-  O228  1  0.51431566  0.10052969  0.14182718  1
  O2-  O229  1  0.48950743  0.15983961  0.39930961  1
  O2-  O230  1  0.48372965  0.15030991  0.65224294  1
  O2-  O231  1  0.51236304  0.62929057  0.10106281  1
  O2-  O232  1  0.49827869  0.64167765  0.37671509  1
  O2-  O233  1  0.49652142  0.34476400  0.40274143  1
  O2-  O234  1  0.48306002  0.35310268  0.64098760  1
  O2-  O235  1  0.75781313  0.12870684  -0.11633584  1
  O2-  O236  1  0.73930592  -0.07873997  0.37484477  1
  O2-  O237  1  0.73203405  -0.13449013  0.55260893  1
  O2-  O238  1  0.73421789  -0.09874461  0.70611031  1
  O2-  O239  1  0.74497224  0.32070281  -0.12474505  1
  O2-  O240  1  0.73389622  0.60869405  0.28907911  1
  O2-  O241  1  0.74154058  0.59827091  0.44345503  1
  O2-  O242  1  0.76717345  0.48271235  0.87932122  1
