# generated using pymatgen
data_Gd19Ta56(WO20)8
_symmetry_space_group_name_H-M   'P 1'
_cell_length_a   15.60516002
_cell_length_b   15.49839608
_cell_length_c   15.29224367
_cell_angle_alpha   89.96671434
_cell_angle_beta   90.12499462
_cell_angle_gamma   90.08617977
_symmetry_Int_Tables_number   1
_chemical_formula_structural   Gd19Ta56(WO20)8
_chemical_formula_sum   'Gd19 Ta56 W8 O160'
_cell_volume   3698.49123656
_cell_formula_units_Z   1
loop_
 _symmetry_equiv_pos_site_id
 _symmetry_equiv_pos_as_xyz
  1  'x, y, z'
loop_
 _atom_type_symbol
 _atom_type_oxidation_number
  Gd3+  3.0
  Ta5+  5.0
  W6+  6.0
  O2-  -2.0
loop_
 _atom_site_type_symbol
 _atom_site_label
 _atom_site_symmetry_multiplicity
 _atom_site_fract_x
 _atom_site_fract_y
 _atom_site_fract_z
 _atom_site_occupancy
  Gd3+  Gd0  1  0.75863450  0.76504488  0.76793171  1
  Gd3+  Gd1  1  0.24593347  0.25054995  0.00359598  1
  Gd3+  Gd2  1  0.27843542  0.26573953  0.52236178  1
  Gd3+  Gd3  1  -0.02089486  0.74941369  0.24604402  1
  Gd3+  Gd4  1  0.49731321  0.24799573  -0.02730338  1
  Gd3+  Gd5  1  0.01351715  0.73722150  0.01629861  1
  Gd3+  Gd6  1  0.24591101  0.72698397  0.00871523  1
  Gd3+  Gd7  1  0.75719316  0.75264137  0.25638061  1
  Gd3+  Gd8  1  -0.00624134  0.74279362  0.49998145  1
  Gd3+  Gd9  1  0.23662626  0.74160776  0.75200878  1
  Gd3+  Gd10  1  0.24288555  0.76325021  0.49857733  1
  Gd3+  Gd11  1  0.30706508  0.76416612  0.27165217  1
  Gd3+  Gd12  1  0.25671579  0.25210491  0.76024589  1
  Gd3+  Gd13  1  0.24371548  0.25456248  0.24952253  1
  Gd3+  Gd14  1  0.50880188  0.75831389  0.00699983  1
  Gd3+  Gd15  1  -0.01409277  0.24152002  0.51358737  1
  Gd3+  Gd16  1  0.74079240  0.26181788  0.75194978  1
  Gd3+  Gd17  1  0.74072746  0.24652622  0.49460653  1
  Gd3+  Gd18  1  0.00110232  0.24895916  0.76820849  1
  Ta5+  Ta19  1  0.10274354  0.38288221  0.62930952  1
  Ta5+  Ta20  1  0.56652883  0.87577411  0.62446438  1
  Ta5+  Ta21  1  0.62632073  0.62028008  0.36909156  1
  Ta5+  Ta22  1  0.37763047  0.38421172  0.38119000  1
  Ta5+  Ta23  1  0.92338903  0.38465863  0.12147063  1
  Ta5+  Ta24  1  0.87269730  0.89239846  0.38504427  1
  Ta5+  Ta25  1  0.38851363  0.88181653  0.63350510  1
  Ta5+  Ta26  1  0.61806984  0.87788621  0.86655757  1
  Ta5+  Ta27  1  0.38316868  0.61542624  0.12851650  1
  Ta5+  Ta28  1  0.39452684  0.13517164  0.13270251  1
  Ta5+  Ta29  1  0.87640929  0.12806864  0.35743006  1
  Ta5+  Ta30  1  0.62390177  0.63106703  0.87254220  1
  Ta5+  Ta31  1  0.64424702  0.88728801  0.11971916  1
  Ta5+  Ta32  1  0.10951764  0.36595314  0.38031832  1
  Ta5+  Ta33  1  0.93417245  0.88546681  0.88373867  1
  Ta5+  Ta34  1  0.64122714  0.10153497  0.62105203  1
  Ta5+  Ta35  1  0.38883821  0.62986772  0.87021498  1
  Ta5+  Ta36  1  0.08709475  0.36694212  0.12660504  1
  Ta5+  Ta37  1  0.87131674  0.61066871  0.38584728  1
  Ta5+  Ta38  1  0.40142200  0.36986977  0.13404967  1
  Ta5+  Ta39  1  0.12669342  0.11839517  0.63507937  1
  Ta5+  Ta40  1  0.11463569  0.12358736  0.37932834  1
  Ta5+  Ta41  1  0.63121429  0.39595776  0.61434639  1
  Ta5+  Ta42  1  0.39110503  0.59449424  0.37967830  1
  Ta5+  Ta43  1  0.86723660  0.11241552  0.88076444  1
  Ta5+  Ta44  1  0.12345990  0.41439428  0.88462915  1
  Ta5+  Ta45  1  0.84650537  0.91010377  0.11677638  1
  Ta5+  Ta46  1  0.35947286  0.12285212  0.38783199  1
  Ta5+  Ta47  1  0.10161668  0.87004008  0.88551125  1
  Ta5+  Ta48  1  0.56339650  0.38785516  0.12721588  1
  Ta5+  Ta49  1  0.61738246  0.37192241  0.36387001  1
  Ta5+  Ta50  1  0.62515136  0.11984020  0.87168235  1
  Ta5+  Ta51  1  0.88725146  0.38355038  0.87412936  1
  Ta5+  Ta52  1  0.12256952  0.87570097  0.63338830  1
  Ta5+  Ta53  1  0.14040597  0.60628282  0.14511048  1
  Ta5+  Ta54  1  0.94252696  0.62172785  0.85915567  1
  Ta5+  Ta55  1  0.42608400  0.92440407  0.42192664  1
  Ta5+  Ta56  1  0.11969282  0.60721506  0.35365042  1
  Ta5+  Ta57  1  0.87859007  0.36520506  0.36758744  1
  Ta5+  Ta58  1  0.41159909  0.38720020  0.68528649  1
  Ta5+  Ta59  1  0.59426596  0.11168272  0.37831073  1
  Ta5+  Ta60  1  0.60944401  0.63760468  0.61670668  1
  Ta5+  Ta61  1  0.63059696  0.87091433  0.37738214  1
  Ta5+  Ta62  1  0.15018087  0.88394260  0.12920431  1
  Ta5+  Ta63  1  0.84315118  0.61334145  0.09064615  1
  Ta5+  Ta64  1  0.88001091  0.88605888  0.63911375  1
  Ta5+  Ta65  1  0.09762149  0.12602915  0.12793214  1
  Ta5+  Ta66  1  0.63746542  0.62326722  0.11639936  1
  Ta5+  Ta67  1  0.41078370  0.08392070  0.62261645  1
  Ta5+  Ta68  1  0.11309592  0.89417962  0.36487813  1
  Ta5+  Ta69  1  0.37758059  0.60680949  0.62324846  1
  Ta5+  Ta70  1  0.11124477  0.59922638  0.88085955  1
  Ta5+  Ta71  1  0.12725608  0.07246962  0.88359330  1
  Ta5+  Ta72  1  0.38164264  0.87115226  0.87025318  1
  Ta5+  Ta73  1  0.38070765  0.38582714  0.88245770  1
  Ta5+  Ta74  1  0.89474685  0.39301791  0.62851473  1
  W6+  W75  1  0.55384136  0.11766951  0.12789992  1
  W6+  W76  1  0.85952069  0.64075036  0.64034479  1
  W6+  W77  1  0.88302130  0.11629872  0.63190420  1
  W6+  W78  1  0.35679067  0.89045170  0.11694734  1
  W6+  W79  1  0.61402229  0.38761467  0.86913423  1
  W6+  W80  1  0.36913733  0.11916035  0.87110965  1
  W6+  W81  1  0.94058253  0.14278906  0.11400387  1
  W6+  W82  1  0.13004906  0.61612117  0.62085439  1
  O2-  O83  1  0.12681088  0.00452016  0.13674443  1
  O2-  O84  1  0.15687659  0.00423170  0.36549673  1
  O2-  O85  1  0.14982654  -0.00157625  0.63647808  1
  O2-  O86  1  0.19022144  -0.02678607  0.88812717  1
  O2-  O87  1  0.12013520  0.48574082  0.14337097  1
  O2-  O88  1  0.13242367  0.49155181  0.37432064  1
  O2-  O89  1  0.16320769  0.48556467  0.62788687  1
  O2-  O90  1  0.20194887  0.50615535  0.89624565  1
  O2-  O91  1  0.35989273  0.02365240  0.12240656  1
  O2-  O92  1  0.33127644  0.00023946  0.39692857  1
  O2-  O93  1  0.33870497  -0.00729794  0.58310372  1
  O2-  O94  1  0.36812172  -0.01271715  0.86388260  1
  O2-  O95  1  0.40447599  0.49573643  0.12077573  1
  O2-  O96  1  0.32334570  0.49835962  0.35728957  1
  O2-  O97  1  0.35880584  0.49075727  0.64839115  1
  O2-  O98  1  0.39157814  0.51140781  0.88805844  1
  O2-  O99  1  0.57256282  -0.01939353  0.14030422  1
  O2-  O100  1  0.63995260  0.00077690  0.36470944  1
  O2-  O101  1  0.64036490  -0.01724729  0.61031681  1
  O2-  O102  1  0.64752744  -0.00491886  0.87332003  1
  O2-  O103  1  0.59689448  0.50667189  0.12718175  1
  O2-  O104  1  0.63883456  0.49519518  0.35764902  1
  O2-  O105  1  0.65571971  0.51824398  0.62023261  1
  O2-  O106  1  0.65374948  0.51731084  0.86861081  1
  O2-  O107  1  0.91001625  0.01003037  0.13053704  1
  O2-  O108  1  0.83277274  0.01127045  0.36467301  1
  O2-  O109  1  0.83080868  -0.00806048  0.62722810  1
  O2-  O110  1  0.85124614  -0.00485789  0.89625234  1
  O2-  O111  1  0.89104397  0.51072181  0.12865193  1
  O2-  O112  1  0.86433357  0.49085496  0.38605137  1
  O2-  O113  1  0.87565531  0.50836618  0.62426248  1
  O2-  O114  1  0.91068768  0.50174364  0.84949177  1
  O2-  O115  1  0.15683654  0.24365320  0.12036142  1
  O2-  O116  1  0.07452394  0.24541872  0.39259541  1
  O2-  O117  1  0.08345739  0.24721737  0.63450539  1
  O2-  O118  1  0.23311116  0.15716945  0.87607246  1
  O2-  O119  1  0.13623095  0.74433142  0.12233035  1
  O2-  O120  1  0.20210374  0.80928123  0.36265533  1
  O2-  O121  1  0.09653508  0.74926826  0.61582788  1
  O2-  O122  1  0.13365874  0.74184874  0.90287804  1
  O2-  O123  1  0.32565619  0.25116829  0.13101539  1
  O2-  O124  1  0.36003080  0.25928238  0.38590574  1
  O2-  O125  1  0.36135289  0.28335840  0.64875705  1
  O2-  O126  1  0.37631945  0.25614990  0.86080518  1
  O2-  O127  1  0.35698691  0.74886194  0.12918812  1
  O2-  O128  1  0.33195025  0.69708259  0.40217876  1
  O2-  O129  1  0.24752138  0.84220449  0.62645684  1
  O2-  O130  1  0.32080514  0.74846518  0.88142654  1
  O2-  O131  1  0.49633788  0.26155347  0.12601576  1
  O2-  O132  1  0.62880772  0.24430914  0.39106970  1
  O2-  O133  1  0.75335850  0.14417752  0.65851429  1
  O2-  O134  1  0.60217528  0.24752209  0.86463434  1
  O2-  O135  1  0.60017359  0.74801376  0.11918382  1
  O2-  O136  1  0.60310682  0.75215540  0.38170665  1
  O2-  O137  1  0.60558791  0.76275449  0.59461896  1
  O2-  O138  1  0.66841006  0.75343808  0.88823585  1
  O2-  O139  1  0.98682618  0.27334439  0.10304314  1
  O2-  O140  1  0.82215856  0.25024377  0.36432675  1
  O2-  O141  1  0.90797890  0.25041230  0.64614670  1
  O2-  O142  1  0.86815420  0.25541706  0.84801129  1
  O2-  O143  1  0.91219023  0.71534629  0.12040727  1
  O2-  O144  1  0.90576372  0.76727770  0.37470454  1
  O2-  O145  1  0.81697943  0.77767012  0.63361090  1
  O2-  O146  1  0.94744002  0.75990815  0.88043701  1
  O2-  O147  1  0.11766513  0.11958406  -0.00260298  1
  O2-  O148  1  0.13115082  0.14624170  0.25539016  1
  O2-  O149  1  0.09259720  0.12079161  0.51406771  1
  O2-  O150  1  0.10202707  0.12783422  0.76536641  1
  O2-  O151  1  0.10252507  0.61297354  0.01980759  1
  O2-  O152  1  0.05225734  0.62323026  0.23608518  1
  O2-  O153  1  0.14438286  0.65135018  0.47031819  1
  O2-  O154  1  0.14131565  0.62552801  0.75703731  1
  O2-  O155  1  0.37571689  0.15916325  0.00428916  1
  O2-  O156  1  0.36516815  0.14141214  0.26438917  1
  O2-  O157  1  0.37332655  0.14792597  0.51746815  1
  O2-  O158  1  0.37475384  0.11965274  0.73099213  1
  O2-  O159  1  0.39917817  0.64856039  0.00023542  1
  O2-  O160  1  0.40558837  0.62704623  0.25289528  1
  O2-  O161  1  0.40923563  0.58094981  0.50356799  1
  O2-  O162  1  0.34730621  0.63763364  0.75144509  1
  O2-  O163  1  0.56588493  0.11878008  -0.01778430  1
  O2-  O164  1  0.57377116  0.13568908  0.26358150  1
  O2-  O165  1  0.66339205  0.11931822  0.49440407  1
  O2-  O166  1  0.60989018  0.11677583  0.74743507  1
  O2-  O167  1  0.58104571  0.62965005  -0.00481554  1
  O2-  O168  1  0.59875172  0.63452592  0.24864785  1
  O2-  O169  1  0.59111136  0.61532218  0.49150575  1
  O2-  O170  1  0.65420421  0.65750552  0.74086117  1
  O2-  O171  1  0.93391770  0.14074423  -0.02408347  1
  O2-  O172  1  0.89483059  0.15068415  0.24119752  1
  O2-  O173  1  0.86539091  0.15144291  0.49326525  1
  O2-  O174  1  0.91978125  0.11232701  0.76886148  1
  O2-  O175  1  0.90930596  0.62118944  -0.01801479  1
  O2-  O176  1  0.87613360  0.64604815  0.26790710  1
  O2-  O177  1  0.87550472  0.65544632  0.50340306  1
  O2-  O178  1  0.84849151  0.65519712  0.77814268  1
  O2-  O179  1  0.13462509  0.36728552  0.00259980  1
  O2-  O180  1  0.12036413  0.34533444  0.25499201  1
  O2-  O181  1  0.15750536  0.35096168  0.50558807  1
  O2-  O182  1  0.14315631  0.35202004  0.76195079  1
  O2-  O183  1  0.07998449  0.87390009  0.01899576  1
  O2-  O184  1  0.08323279  0.86074136  0.24121485  1
  O2-  O185  1  0.10990439  0.86528775  0.49277487  1
  O2-  O186  1  0.13123946  0.85579726  0.75827718  1
  O2-  O187  1  0.36800389  0.35424234  0.00490527  1
  O2-  O188  1  0.35265454  0.36597187  0.25291687  1
  O2-  O189  1  0.34968267  0.38887152  0.50010434  1
  O2-  O190  1  0.48210329  0.38444870  0.78898695  1
  O2-  O191  1  0.41128051  0.86544958  -0.00466826  1
  O2-  O192  1  0.42234406  0.85671110  0.32460870  1
  O2-  O193  1  0.37488314  0.84586883  0.50104423  1
  O2-  O194  1  0.36638102  0.83109816  0.74542986  1
  O2-  O195  1  0.57976845  0.36980429  0.00349917  1
  O2-  O196  1  0.61691719  0.35360909  0.24201756  1
  O2-  O197  1  0.66559490  0.38168971  0.48932503  1
  O2-  O198  1  0.65832770  0.26891705  0.61771382  1
  O2-  O199  1  0.60829259  0.87177921  -0.00057785  1
  O2-  O200  1  0.64699346  0.86138033  0.25192352  1
  O2-  O201  1  0.54405296  0.90227823  0.47536596  1
  O2-  O202  1  0.62760892  0.86311188  0.73940228  1
  O2-  O203  1  0.87777642  0.38289245  -0.00397590  1
  O2-  O204  1  0.90537693  0.36820182  0.24886946  1
  O2-  O205  1  0.85097742  0.35017322  0.50958164  1
  O2-  O206  1  0.83299749  0.37804180  0.74218976  1
  O2-  O207  1  0.90020267  0.86860385  0.01301625  1
  O2-  O208  1  0.86523840  0.86487435  0.24146561  1
  O2-  O209  1  0.89517330  0.87253958  0.50652010  1
  O2-  O210  1  0.87532018  0.87364887  0.76818787  1
  O2-  O211  1  0.02614583  -0.01309306  -0.12432712  1
  O2-  O212  1  -0.00845227  -0.08211632  0.36727926  1
  O2-  O213  1  -0.00768478  0.09954776  0.37650206  1
  O2-  O214  1  0.00037532  -0.09948805  0.64242752  1
  O2-  O215  1  0.00657218  0.35332375  -0.11958121  1
  O2-  O216  1  -0.00026932  0.62659941  0.39519495  1
  O2-  O217  1  0.00354403  0.38875077  0.54807829  1
  O2-  O218  1  -0.00218426  0.38969699  0.70533538  1
  O2-  O219  1  0.24269714  -0.13294350  0.04322681  1
  O2-  O220  1  0.25312995  -0.11372302  0.20758923  1
  O2-  O221  1  0.23608534  0.15738374  0.40570528  1
  O2-  O222  1  0.23532068  0.16910253  0.63422346  1
  O2-  O223  1  0.26117306  0.60280296  0.10083338  1
  O2-  O224  1  0.20717032  0.64029482  0.26811229  1
  O2-  O225  1  0.26804780  0.66125531  0.60481645  1
  O2-  O226  1  0.31390559  0.39013040  0.77307414  1
  O2-  O227  1  0.50233223  -0.16275189  -0.14176439  1
  O2-  O228  1  0.48132239  0.06488975  0.40685418  1
  O2-  O229  1  0.52246917  0.13085980  0.59782075  1
  O2-  O230  1  0.47717931  -0.02877121  0.66491615  1
  O2-  O231  1  0.50527449  0.65896501  -0.15385398  1
  O2-  O232  1  0.49883951  0.38209036  0.38293195  1
  O2-  O233  1  0.51123653  0.39474299  0.60743194  1
  O2-  O234  1  0.49605096  0.62605501  0.65426358  1
  O2-  O235  1  0.75556811  -0.18848839  0.12296747  1
  O2-  O236  1  0.73982911  -0.03222575  0.09652059  1
  O2-  O237  1  0.74895847  -0.14775593  0.39693684  1
  O2-  O238  1  0.74560136  0.14539798  0.87551103  1
  O2-  O239  1  0.73733441  0.61121963  0.02420684  1
  O2-  O240  1  0.74621137  0.62966227  0.17987582  1
  O2-  O241  1  0.74540319  0.64377767  0.37744250  1
  O2-  O242  1  0.65566657  0.38230496  0.73733222  1
