# generated using pymatgen
data_Gd19Ta56(WO20)8
_symmetry_space_group_name_H-M   'P 1'
_cell_length_a   15.63129682
_cell_length_b   15.28091681
_cell_length_c   15.11501973
_cell_angle_alpha   89.64395659
_cell_angle_beta   89.92515951
_cell_angle_gamma   91.21833209
_symmetry_Int_Tables_number   1
_chemical_formula_structural   Gd19Ta56(WO20)8
_chemical_formula_sum   'Gd19 Ta56 W8 O160'
_cell_volume   3609.49224873
_cell_formula_units_Z   1
loop_
 _symmetry_equiv_pos_site_id
 _symmetry_equiv_pos_as_xyz
  1  'x, y, z'
loop_
 _atom_type_symbol
 _atom_type_oxidation_number
  Gd3+  3.0
  Ta5+  5.0
  W6+  6.0
  O2-  -2.0
loop_
 _atom_site_type_symbol
 _atom_site_label
 _atom_site_symmetry_multiplicity
 _atom_site_fract_x
 _atom_site_fract_y
 _atom_site_fract_z
 _atom_site_occupancy
  Gd3+  Gd0  1  -0.04994726  0.71933491  -0.02127365  1
  Gd3+  Gd1  1  0.55951085  0.22181308  0.22694594  1
  Gd3+  Gd2  1  -0.00214399  0.76117207  0.24107680  1
  Gd3+  Gd3  1  0.27040425  0.27650168  0.72960894  1
  Gd3+  Gd4  1  0.51154917  0.76401842  0.24985489  1
  Gd3+  Gd5  1  -0.04197539  0.73138243  0.50152216  1
  Gd3+  Gd6  1  0.23305679  0.24520427  0.22041784  1
  Gd3+  Gd7  1  0.50167452  0.75680870  0.49598558  1
  Gd3+  Gd8  1  0.54852752  0.25730447  0.81310341  1
  Gd3+  Gd9  1  -0.02037214  0.25571576  0.20508781  1
  Gd3+  Gd10  1  -0.04345122  0.20477525  -0.03395712  1
  Gd3+  Gd11  1  0.26634986  0.73196274  0.77000120  1
  Gd3+  Gd12  1  0.49509009  0.28821839  0.51298138  1
  Gd3+  Gd13  1  0.26699313  0.77374331  0.21805681  1
  Gd3+  Gd14  1  0.26273225  0.25222856  0.47733207  1
  Gd3+  Gd15  1  -0.08730010  0.72292950  0.73616846  1
  Gd3+  Gd16  1  0.74478631  0.24030070  0.04393064  1
  Gd3+  Gd17  1  0.77219173  0.26874874  0.27642376  1
  Gd3+  Gd18  1  0.72916034  0.73872737  0.54037490  1
  Ta5+  Ta19  1  0.82239017  0.87372048  0.87540400  1
  Ta5+  Ta20  1  0.67614310  0.89812144  0.14903002  1
  Ta5+  Ta21  1  0.91723109  0.11415568  0.37774441  1
  Ta5+  Ta22  1  0.41801536  0.12715189  0.35364905  1
  Ta5+  Ta23  1  0.85827742  0.37004074  0.63264655  1
  Ta5+  Ta24  1  0.63966976  0.10537438  0.92128004  1
  Ta5+  Ta25  1  0.61134558  0.39666759  0.66062981  1
  Ta5+  Ta26  1  0.36437317  0.62332755  0.36671063  1
  Ta5+  Ta27  1  0.44751569  0.12659336  0.03618666  1
  Ta5+  Ta28  1  0.55707657  0.62814072  0.65303151  1
  Ta5+  Ta29  1  0.68264221  0.42972779  0.16286787  1
  Ta5+  Ta30  1  0.38721809  0.12004043  0.83740285  1
  Ta5+  Ta31  1  0.07796451  0.60315149  0.84365898  1
  Ta5+  Ta32  1  0.34668990  0.87452474  0.60178358  1
  Ta5+  Ta33  1  0.84162853  0.87041187  0.11106815  1
  Ta5+  Ta34  1  0.65877030  0.88279614  0.90261466  1
  Ta5+  Ta35  1  0.16367794  0.63092410  0.40785007  1
  Ta5+  Ta36  1  0.16209456  0.86875158  0.05727063  1
  Ta5+  Ta37  1  0.59602456  0.13035892  0.65827536  1
  Ta5+  Ta38  1  0.39311791  0.62539212  0.10834921  1
  Ta5+  Ta39  1  0.12447899  0.85953718  0.64460979  1
  Ta5+  Ta40  1  0.41685008  0.88586702  0.09423742  1
  Ta5+  Ta41  1  0.39113151  0.88951961  0.36375925  1
  Ta5+  Ta42  1  0.60949465  0.64342401  0.91595735  1
  Ta5+  Ta43  1  0.92610693  0.37856816  0.39427610  1
  Ta5+  Ta44  1  0.62798044  0.60485222  0.38825346  1
  Ta5+  Ta45  1  0.42184610  0.87353490  0.84383852  1
  Ta5+  Ta46  1  0.12229851  0.11459515  0.83979917  1
  Ta5+  Ta47  1  0.83150821  0.59282888  0.35212772  1
  Ta5+  Ta48  1  0.13549904  0.39122857  0.10103975  1
  Ta5+  Ta49  1  0.10250976  0.36723929  0.59776911  1
  Ta5+  Ta50  1  0.64039032  0.88999853  0.39530452  1
  Ta5+  Ta51  1  0.82316604  0.64170693  0.13589698  1
  Ta5+  Ta52  1  0.69062083  0.13775587  0.42298340  1
  Ta5+  Ta53  1  0.16071880  0.85725292  0.43081880  1
  Ta5+  Ta54  1  0.69042490  0.40610661  0.42466525  1
  Ta5+  Ta55  1  0.12899080  0.39106972  0.36413678  1
  Ta5+  Ta56  1  0.11352786  0.08750697  0.35869402  1
  Ta5+  Ta57  1  0.38984097  0.62124949  0.60743712  1
  Ta5+  Ta58  1  0.79952505  0.10588814  0.86307175  1
  Ta5+  Ta59  1  0.41601912  0.39269338  0.87254040  1
  Ta5+  Ta60  1  0.61231366  0.88438857  0.65308946  1
  Ta5+  Ta61  1  0.39058691  0.12350983  0.61606666  1
  Ta5+  Ta62  1  0.14979186  0.63556716  0.07052888  1
  Ta5+  Ta63  1  0.66426664  0.39489798  0.90923798  1
  Ta5+  Ta64  1  0.87231625  0.07294454  0.12752235  1
  Ta5+  Ta65  1  0.11619158  0.61372400  0.64131142  1
  Ta5+  Ta66  1  0.41780017  0.38360467  0.31734624  1
  Ta5+  Ta67  1  0.84193588  0.88216678  0.35134128  1
  Ta5+  Ta68  1  0.07435103  0.86419405  0.84384081  1
  Ta5+  Ta69  1  0.85181943  0.92516503  0.63547935  1
  Ta5+  Ta70  1  0.44590161  0.64126757  0.85819307  1
  Ta5+  Ta71  1  0.77681893  0.61451012  0.88560830  1
  Ta5+  Ta72  1  0.11329513  0.35483848  0.85501770  1
  Ta5+  Ta73  1  0.65519810  0.64373889  0.16411644  1
  Ta5+  Ta74  1  0.89618886  0.44325009  0.11333763  1
  W6+  W75  1  0.83351540  0.37439826  0.88564136  1
  W6+  W76  1  0.79398864  0.55618222  0.64156982  1
  W6+  W77  1  0.55980701  0.04049222  0.12248720  1
  W6+  W78  1  0.41244993  0.45740877  0.68665102  1
  W6+  W79  1  0.80993047  0.12242754  0.60426744  1
  W6+  W80  1  0.12285194  0.11263462  0.59961472  1
  W6+  W81  1  0.43260210  0.37325798  0.10877538  1
  W6+  W82  1  0.11998104  0.11482381  0.09602938  1
  O2-  O83  1  0.14934010  -0.01197487  0.06169230  1
  O2-  O84  1  0.12307997  -0.04288863  0.37006332  1
  O2-  O85  1  0.12234477  -0.02170390  0.62481386  1
  O2-  O86  1  0.09640306  -0.01053548  0.84425748  1
  O2-  O87  1  0.17019295  0.50975234  0.07848458  1
  O2-  O88  1  0.12959284  0.52143256  0.36255318  1
  O2-  O89  1  0.11824870  0.49243999  0.61230370  1
  O2-  O90  1  0.08428407  0.47658643  0.85136257  1
  O2-  O91  1  0.41245330  0.01578134  0.10311843  1
  O2-  O92  1  0.36707058  0.00708822  0.36258481  1
  O2-  O93  1  0.35338348  0.00578400  0.60652224  1
  O2-  O94  1  0.40671958  -0.00533047  0.83214560  1
  O2-  O95  1  0.40516626  0.50714586  0.12663285  1
  O2-  O96  1  0.38684599  0.50223220  0.33500745  1
  O2-  O97  1  0.32275234  0.51566079  0.61072382  1
  O2-  O98  1  0.42910368  0.51703683  0.85455279  1
  O2-  O99  1  0.53063399  -0.09796041  0.15393011  1
  O2-  O100  1  0.65867876  0.01502621  0.41968761  1
  O2-  O101  1  0.58856330  0.00652097  0.64232289  1
  O2-  O102  1  0.59565332  -0.00798898  0.91104418  1
  O2-  O103  1  0.60476504  0.51714841  0.16310792  1
  O2-  O104  1  0.58944659  0.48353207  0.39415561  1
  O2-  O105  1  0.60922412  0.51999857  0.67979376  1
  O2-  O106  1  0.66535477  0.52440843  0.89358134  1
  O2-  O107  1  0.93332017  -0.02791154  0.10073443  1
  O2-  O108  1  0.87722759  -0.01227801  0.39519756  1
  O2-  O109  1  0.90729285  0.03306490  0.61872313  1
  O2-  O110  1  0.85352897  -0.00574409  0.87565882  1
  O2-  O111  1  0.93267427  0.56077777  0.10181332  1
  O2-  O112  1  0.91257534  0.49717214  0.35615023  1
  O2-  O113  1  0.88850697  0.48594830  0.58524601  1
  O2-  O114  1  0.84071820  0.51094822  0.89934602  1
  O2-  O115  1  0.11517155  0.25788895  0.12962632  1
  O2-  O116  1  0.17969626  0.27693621  0.35228581  1
  O2-  O117  1  0.16449142  0.25344586  0.59393909  1
  O2-  O118  1  0.00636434  0.30854154  0.87123410  1
  O2-  O119  1  0.17839516  0.74383687  0.01199377  1
  O2-  O120  1  0.11729592  0.74983007  0.36998091  1
  O2-  O121  1  0.17173686  0.73061670  0.64125698  1
  O2-  O122  1  0.03806072  0.72939448  0.84550580  1
  O2-  O123  1  0.46457257  0.23183873  0.09730087  1
  O2-  O124  1  0.48936178  0.23989732  0.36039091  1
  O2-  O125  1  0.35727337  0.24842974  0.60664982  1
  O2-  O126  1  0.39577766  0.25683293  0.83345299  1
  O2-  O127  1  0.43199155  0.75739128  0.11502679  1
  O2-  O128  1  0.41057032  0.74980910  0.37461586  1
  O2-  O129  1  0.36424760  0.74834826  0.58085729  1
  O2-  O130  1  0.37611695  0.75368964  0.87116341  1
  O2-  O131  1  0.67395694  0.29512033  0.16521072  1
  O2-  O132  1  0.68830718  0.27059407  0.40748942  1
  O2-  O133  1  0.58398323  0.26414885  0.66030772  1
  O2-  O134  1  0.65109592  0.25336769  0.92619040  1
  O2-  O135  1  0.64700737  0.77068227  0.18961586  1
  O2-  O136  1  0.61774584  0.74906788  0.39387244  1
  O2-  O137  1  0.60420816  0.75220037  0.64011098  1
  O2-  O138  1  0.61993100  0.76448738  0.89540981  1
  O2-  O139  1  0.83729554  0.20462462  0.15635984  1
  O2-  O140  1  0.89820466  0.25290594  0.35938812  1
  O2-  O141  1  0.82145690  0.25903175  0.59668510  1
  O2-  O142  1  0.83377779  0.23193740  0.88679813  1
  O2-  O143  1  0.91378683  0.74992092  0.11912420  1
  O2-  O144  1  0.94056379  0.80961600  0.37753065  1
  O2-  O145  1  0.84928338  0.68502594  0.60866060  1
  O2-  O146  1  0.84723834  0.73335217  0.86797361  1
  O2-  O147  1  0.08125729  0.13574323  -0.04179780  1
  O2-  O148  1  0.16007854  0.10338341  0.24088664  1
  O2-  O149  1  0.18285402  0.12165208  0.45437941  1
  O2-  O150  1  0.17856855  0.23630592  0.84310836  1
  O2-  O151  1  0.06638181  0.61280947  -0.02705495  1
  O2-  O152  1  0.08878930  0.66101784  0.16981133  1
  O2-  O153  1  0.08503121  0.63805120  0.51135867  1
  O2-  O154  1  0.01775266  0.61287240  0.71670937  1
  O2-  O155  1  0.34239302  0.11509675  -0.04538825  1
  O2-  O156  1  0.32712272  0.17378933  0.29838653  1
  O2-  O157  1  0.37318189  0.14540223  0.47533832  1
  O2-  O158  1  0.31042804  0.12946650  0.73286115  1
  O2-  O159  1  0.42045218  0.63275221  -0.01145432  1
  O2-  O160  1  0.39853003  0.65408984  0.24209604  1
  O2-  O161  1  0.43281087  0.61435561  0.47318245  1
  O2-  O162  1  0.37904665  0.64881466  0.73593202  1
  O2-  O163  1  0.64949810  0.12156835  0.05452479  1
  O2-  O164  1  0.67936787  0.14882792  0.29643067  1
  O2-  O165  1  0.67734781  0.14907331  0.55825635  1
  O2-  O166  1  0.62685470  0.13131249  0.78309438  1
  O2-  O167  1  0.62119172  0.65240329  0.04304314  1
  O2-  O168  1  0.56615877  0.63028429  0.28096778  1
  O2-  O169  1  0.61034056  0.63090674  0.51914091  1
  O2-  O170  1  0.55261816  0.64751831  0.78377429  1
  O2-  O171  1  0.83779939  0.11253519  0.00667853  1
  O2-  O172  1  0.89061947  0.08348033  0.25903655  1
  O2-  O173  1  0.81301422  0.13125476  0.45196287  1
  O2-  O174  1  0.79998495  0.11348597  0.74189708  1
  O2-  O175  1  0.81052010  0.64907842  0.00942475  1
  O2-  O176  1  0.89232376  0.65224260  0.25717799  1
  O2-  O177  1  0.83255456  0.68060554  0.43634531  1
  O2-  O178  1  0.78512818  0.62023269  0.75591251  1
  O2-  O179  1  0.15447476  0.36021622  -0.02282150  1
  O2-  O180  1  0.16990111  0.39626804  0.22628533  1
  O2-  O181  1  0.18302699  0.38413566  0.48364318  1
  O2-  O182  1  0.14061113  0.35926750  0.72433011  1
  O2-  O183  1  0.05980804  0.85303241  -0.02895449  1
  O2-  O184  1  0.13567076  0.83445352  0.17605390  1
  O2-  O185  1  0.07563443  0.82869277  0.52176726  1
  O2-  O186  1  0.02421648  0.83938390  0.71575071  1
  O2-  O187  1  0.36966976  0.37743446  -0.01494848  1
  O2-  O188  1  0.34273861  0.34761472  0.22910554  1
  O2-  O189  1  0.37839361  0.34159618  0.43016875  1
  O2-  O190  1  0.32118554  0.40311674  0.78551176  1
  O2-  O191  1  0.44197340  0.88326793  -0.02588445  1
  O2-  O192  1  0.38138898  0.86770445  0.23529922  1
  O2-  O193  1  0.41602888  0.88520813  0.49111100  1
  O2-  O194  1  0.36998148  0.85279527  0.72278849  1
  O2-  O195  1  0.68569435  0.40406818  0.03522574  1
  O2-  O196  1  0.71156029  0.40721394  0.29226139  1
  O2-  O197  1  0.63061265  0.36834784  0.52850502  1
  O2-  O198  1  0.66101370  0.36839678  0.78149190  1
  O2-  O199  1  0.65623144  0.86786527  0.03245544  1
  O2-  O200  1  0.52142311  0.89004796  0.34793627  1
  O2-  O201  1  0.59765013  0.87256626  0.51480630  1
  O2-  O202  1  0.64101363  0.88713510  0.77130532  1
  O2-  O203  1  0.86080681  0.35791246  0.02747856  1
  O2-  O204  1  0.87837045  0.37273746  0.21876448  1
  O2-  O205  1  0.81572433  0.38155075  0.45160031  1
  O2-  O206  1  0.86318141  0.37187003  0.75249744  1
  O2-  O207  1  0.87047732  0.84614180  -0.01010535  1
  O2-  O208  1  0.88869312  0.86732194  0.23422561  1
  O2-  O209  1  0.90635682  0.85027058  0.56137078  1
  O2-  O210  1  0.85463458  0.86348332  0.74607330  1
  O2-  O211  1  -0.01367555  0.14377904  0.10461025  1
  O2-  O212  1  0.02695131  0.16713200  0.31503565  1
  O2-  O213  1  0.01252560  0.07352918  0.44488731  1
  O2-  O214  1  0.07934374  0.13540862  0.72799464  1
  O2-  O215  1  0.01629019  0.40090333  0.10643060  1
  O2-  O216  1  0.02347718  0.36420999  0.30314769  1
  O2-  O217  1  0.02723647  0.38809795  0.46457389  1
  O2-  O218  1  -0.01119660  0.34156865  0.62276253  1
  O2-  O219  1  0.28697573  -0.13228546  0.08417681  1
  O2-  O220  1  0.26708252  -0.15560938  0.36219193  1
  O2-  O221  1  0.23275555  -0.12678856  0.53653680  1
  O2-  O222  1  0.17906377  -0.14749019  0.76834204  1
  O2-  O223  1  0.27241774  0.65145723  0.11725535  1
  O2-  O224  1  0.24870713  0.65610314  0.31027661  1
  O2-  O225  1  0.26738946  0.61673874  0.46722293  1
  O2-  O226  1  0.17724151  0.60754665  0.76435317  1
  O2-  O227  1  0.50027768  0.14597097  -0.08223622  1
  O2-  O228  1  0.49457028  0.09019309  0.25910558  1
  O2-  O229  1  0.50527780  0.14334290  0.56166110  1
  O2-  O230  1  0.47107393  0.13129921  0.72177137  1
  O2-  O231  1  0.53686037  0.38144585  -0.08211521  1
  O2-  O232  1  0.51028587  0.36629757  0.23555008  1
  O2-  O233  1  0.49628183  0.41097000  0.59279878  1
  O2-  O234  1  0.50030215  0.38620178  0.75398704  1
  O2-  O235  1  0.77322065  -0.00995173  0.13895230  1
  O2-  O236  1  0.72069760  -0.10085302  0.29090014  1
  O2-  O237  1  0.75822938  -0.15511644  0.44068228  1
  O2-  O238  1  0.73485064  -0.12243418  0.61678880  1
  O2-  O239  1  0.78506493  0.50480592  0.14696082  1
  O2-  O240  1  0.72407652  0.61922288  0.29137575  1
  O2-  O241  1  0.73776767  0.53212645  0.43284944  1
  O2-  O242  1  0.74078015  0.42458562  0.63734120  1
