# generated using pymatgen
data_Gd19Ta56(WO20)8
_symmetry_space_group_name_H-M   'P 1'
_cell_length_a   15.53238278
_cell_length_b   15.47411546
_cell_length_c   15.40107329
_cell_angle_alpha   90.06734810
_cell_angle_beta   89.98444410
_cell_angle_gamma   90.00787793
_symmetry_Int_Tables_number   1
_chemical_formula_structural   Gd19Ta56(WO20)8
_chemical_formula_sum   'Gd19 Ta56 W8 O160'
_cell_volume   3701.64345626
_cell_formula_units_Z   1
loop_
 _symmetry_equiv_pos_site_id
 _symmetry_equiv_pos_as_xyz
  1  'x, y, z'
loop_
 _atom_type_symbol
 _atom_type_oxidation_number
  Gd3+  3.0
  Ta5+  5.0
  W6+  6.0
  O2-  -2.0
loop_
 _atom_site_type_symbol
 _atom_site_label
 _atom_site_symmetry_multiplicity
 _atom_site_fract_x
 _atom_site_fract_y
 _atom_site_fract_z
 _atom_site_occupancy
  Gd3+  Gd0  1  0.48564754  0.25573078  0.25065354  1
  Gd3+  Gd1  1  0.74080214  0.24822229  0.30073690  1
  Gd3+  Gd2  1  0.73886337  0.73243975  0.50602171  1
  Gd3+  Gd3  1  0.50671525  0.75202413  0.24106696  1
  Gd3+  Gd4  1  0.25459708  0.24497639  0.25065425  1
  Gd3+  Gd5  1  -0.00816428  0.75045178  0.00805621  1
  Gd3+  Gd6  1  0.52261274  0.72585825  0.72779086  1
  Gd3+  Gd7  1  0.00653688  0.26136938  0.75830474  1
  Gd3+  Gd8  1  0.01020976  0.24398877  0.50013766  1
  Gd3+  Gd9  1  0.00917048  0.74487962  0.76333299  1
  Gd3+  Gd10  1  0.24955795  0.24475735  0.48354935  1
  Gd3+  Gd11  1  0.24102763  0.75519648  0.52479067  1
  Gd3+  Gd12  1  0.48954093  0.74013933  0.49260063  1
  Gd3+  Gd13  1  0.50423093  0.75996129  -0.00866435  1
  Gd3+  Gd14  1  0.24292355  0.74798165  -0.01851683  1
  Gd3+  Gd15  1  0.76910140  0.77215990  0.77450906  1
  Gd3+  Gd16  1  -0.02341294  0.25991500  0.02428899  1
  Gd3+  Gd17  1  0.74490668  0.73291115  0.01677671  1
  Gd3+  Gd18  1  0.48377817  0.24931670  0.00426839  1
  Ta5+  Ta19  1  0.37408312  0.10173715  0.37375313  1
  Ta5+  Ta20  1  0.61752153  0.89473664  0.13209447  1
  Ta5+  Ta21  1  0.62333321  0.14097661  0.87685822  1
  Ta5+  Ta22  1  0.32710560  0.12966225  0.63090418  1
  Ta5+  Ta23  1  0.87853757  0.86380893  0.37098850  1
  Ta5+  Ta24  1  0.36411184  0.90132528  0.37421637  1
  Ta5+  Ta25  1  0.12641480  0.62799124  0.38027789  1
  Ta5+  Ta26  1  0.87069631  0.12681555  0.62529716  1
  Ta5+  Ta27  1  0.12509947  0.11198530  0.36799804  1
  Ta5+  Ta28  1  0.35853202  0.38688520  0.37510520  1
  Ta5+  Ta29  1  0.65710967  0.14152608  0.13023356  1
  Ta5+  Ta30  1  0.59395114  0.56682505  0.55972484  1
  Ta5+  Ta31  1  0.60502446  0.90234137  0.62090292  1
  Ta5+  Ta32  1  0.11866372  0.88205268  0.87660449  1
  Ta5+  Ta33  1  0.33416795  0.36485684  0.88292820  1
  Ta5+  Ta34  1  0.15083948  0.37308218  0.89121071  1
  Ta5+  Ta35  1  0.88566675  0.38493633  0.61912473  1
  Ta5+  Ta36  1  0.16845678  0.37471923  0.11694395  1
  Ta5+  Ta37  1  0.37168061  0.88036563  0.12517547  1
  Ta5+  Ta38  1  0.64895088  0.34380879  0.12790315  1
  Ta5+  Ta39  1  0.60626830  0.38218816  0.39352284  1
  Ta5+  Ta40  1  0.11213201  0.87100135  0.38184081  1
  Ta5+  Ta41  1  0.65505064  0.37907596  0.63774733  1
  Ta5+  Ta42  1  0.12055821  0.60743125  0.63038283  1
  Ta5+  Ta43  1  0.14221707  0.62619434  0.13548445  1
  Ta5+  Ta44  1  0.87935026  0.88238753  0.61840801  1
  Ta5+  Ta45  1  0.33801704  0.37281663  0.11198622  1
  Ta5+  Ta46  1  0.31750446  0.36493396  0.63443967  1
  Ta5+  Ta47  1  0.12616723  0.12765673  0.88933727  1
  Ta5+  Ta48  1  0.64479660  0.87600194  0.38260615  1
  Ta5+  Ta49  1  0.12959993  0.38027482  0.36787810  1
  Ta5+  Ta50  1  0.63644034  0.14616817  0.62668303  1
  Ta5+  Ta51  1  0.16520464  0.11980586  0.11668381  1
  Ta5+  Ta52  1  0.36314021  0.61090902  0.62755260  1
  Ta5+  Ta53  1  0.88763699  0.62699045  0.37304716  1
  Ta5+  Ta54  1  0.64679330  0.56213517  0.87677851  1
  Ta5+  Ta55  1  0.61936855  0.59424072  0.12475070  1
  Ta5+  Ta56  1  0.87691657  0.90423742  0.90900013  1
  Ta5+  Ta57  1  0.89428069  0.37810118  0.37397433  1
  Ta5+  Ta58  1  0.33548190  0.12055257  0.11323496  1
  Ta5+  Ta59  1  0.81843031  0.36428397  0.13011303  1
  Ta5+  Ta60  1  0.63921405  0.33204583  0.87513878  1
  Ta5+  Ta61  1  0.15006316  0.36086467  0.63484541  1
  Ta5+  Ta62  1  0.85893333  0.58492189  0.86749863  1
  Ta5+  Ta63  1  0.38275294  0.61800323  0.11554283  1
  Ta5+  Ta64  1  0.85358408  0.89017805  0.13075555  1
  Ta5+  Ta65  1  0.67499301  0.91890375  0.91502511  1
  Ta5+  Ta66  1  0.37046499  0.88123843  0.85517426  1
  Ta5+  Ta67  1  0.15900886  0.13593107  0.63893835  1
  Ta5+  Ta68  1  0.88700721  0.11365314  0.38127350  1
  Ta5+  Ta69  1  0.13508368  0.86973166  0.13368718  1
  Ta5+  Ta70  1  0.10960941  0.60859414  0.88216279  1
  Ta5+  Ta71  1  0.39896675  0.89032581  0.62509677  1
  Ta5+  Ta72  1  0.36276295  0.59600546  0.86651274  1
  Ta5+  Ta73  1  0.11588309  0.90137401  0.62647854  1
  Ta5+  Ta74  1  0.36622041  0.12047328  0.87366423  1
  W6+  W75  1  0.63693982  0.60782972  0.36622089  1
  W6+  W76  1  0.82713529  0.14255720  0.13486600  1
  W6+  W77  1  0.84482242  0.37621015  0.87482943  1
  W6+  W78  1  0.87929545  0.13685869  0.87891099  1
  W6+  W79  1  0.86886013  0.60961327  0.12306236  1
  W6+  W80  1  0.61168751  0.12490461  0.39545210  1
  W6+  W81  1  0.37454069  0.63063775  0.36895743  1
  W6+  W82  1  0.87433366  0.63218320  0.62808057  1
  O2-  O83  1  0.13533681  -0.01156104  0.11530557  1
  O2-  O84  1  0.09476144  -0.00705353  0.38039443  1
  O2-  O85  1  0.17648606  0.00571705  0.63244623  1
  O2-  O86  1  0.11122328  -0.00020179  0.90083518  1
  O2-  O87  1  0.14295320  0.50766019  0.11849768  1
  O2-  O88  1  0.12529394  0.50498516  0.38378549  1
  O2-  O89  1  0.12048509  0.48933347  0.61924798  1
  O2-  O90  1  0.09657725  0.49168486  0.89532172  1
  O2-  O91  1  0.33632116  -0.00707474  0.10034452  1
  O2-  O92  1  0.44617720  -0.01186344  0.37665019  1
  O2-  O93  1  0.36903631  0.00528999  0.61672873  1
  O2-  O94  1  0.40590136  -0.00513413  0.86496279  1
  O2-  O95  1  0.35088913  0.50246829  0.10804178  1
  O2-  O96  1  0.33416856  0.50231441  0.36561696  1
  O2-  O97  1  0.33667002  0.49524480  0.63080728  1
  O2-  O98  1  0.40090995  0.48513747  0.86591015  1
  O2-  O99  1  0.64762713  0.01215939  0.13357408  1
  O2-  O100  1  0.63249425  -0.00694697  0.38461082  1
  O2-  O101  1  0.64310705  0.01263016  0.64519890  1
  O2-  O102  1  0.61587313  0.01334104  0.86563179  1
  O2-  O103  1  0.63145100  0.47565662  0.12984832  1
  O2-  O104  1  0.66540328  0.47580437  0.34930828  1
  O2-  O105  1  0.63508831  0.50219834  0.66149965  1
  O2-  O106  1  0.59549701  0.45166432  0.86744231  1
  O2-  O107  1  0.83730403  0.00504847  0.14512526  1
  O2-  O108  1  0.88218311  -0.01142835  0.37548512  1
  O2-  O109  1  0.84568200  -0.00206276  0.63412344  1
  O2-  O110  1  0.91385901  0.00962627  0.86511085  1
  O2-  O111  1  0.84089913  0.48132513  0.13291191  1
  O2-  O112  1  0.88415770  0.50292164  0.38265870  1
  O2-  O113  1  0.90628348  0.50149144  0.62845280  1
  O2-  O114  1  0.92416360  0.48590537  0.85721963  1
  O2-  O115  1  0.15797807  0.24698221  0.13175572  1
  O2-  O116  1  0.15296604  0.24540051  0.36081379  1
  O2-  O117  1  0.08726326  0.24615419  0.62842497  1
  O2-  O118  1  0.10297552  0.25165092  0.87971916  1
  O2-  O119  1  0.07938247  0.74573583  0.13807709  1
  O2-  O120  1  0.17313870  0.75367835  0.38971768  1
  O2-  O121  1  0.15419903  0.78557597  0.63888647  1
  O2-  O122  1  0.13018706  0.74825255  0.86208268  1
  O2-  O123  1  0.38216270  0.24466672  0.12565955  1
  O2-  O124  1  0.34463175  0.24581324  0.36928204  1
  O2-  O125  1  0.36124212  0.24801115  0.61244796  1
  O2-  O126  1  0.37232023  0.24474421  0.88935695  1
  O2-  O127  1  0.41455836  0.75352791  0.12031339  1
  O2-  O128  1  0.41734170  0.77242619  0.36654446  1
  O2-  O129  1  0.41195703  0.75324422  0.62550942  1
  O2-  O130  1  0.45886864  0.79455556  0.84710935  1
  O2-  O131  1  0.56391923  0.23685376  0.12806320  1
  O2-  O132  1  0.65072425  0.26888686  0.41762311  1
  O2-  O133  1  0.60260248  0.26936996  0.61849693  1
  O2-  O134  1  0.54894359  0.24820868  0.86320795  1
  O2-  O135  1  0.59564917  0.75591834  0.10738090  1
  O2-  O136  1  0.60849186  0.74849843  0.39626354  1
  O2-  O137  1  0.60496756  0.69425392  0.58466334  1
  O2-  O138  1  0.65677640  0.79658963  0.90005527  1
  O2-  O139  1  0.89595561  0.26241112  0.14947914  1
  O2-  O140  1  0.86801227  0.24956078  0.39920455  1
  O2-  O141  1  0.91329818  0.24990439  0.61100092  1
  O2-  O142  1  0.92569273  0.26429696  0.88379026  1
  O2-  O143  1  0.87444678  0.74758861  0.09532394  1
  O2-  O144  1  0.82320037  0.74809105  0.36873538  1
  O2-  O145  1  0.81418554  0.76345064  0.62820831  1
  O2-  O146  1  0.84301902  0.77853010  0.91011594  1
  O2-  O147  1  0.08971341  0.14320465  0.01216073  1
  O2-  O148  1  0.16260965  0.10981049  0.24962394  1
  O2-  O149  1  0.13470479  0.13717560  0.49839248  1
  O2-  O150  1  0.11791129  0.12980339  0.76167051  1
  O2-  O151  1  0.12336460  0.65228351  0.00490704  1
  O2-  O152  1  0.15805082  0.63077577  0.25908150  1
  O2-  O153  1  0.14813726  0.63571179  0.50600272  1
  O2-  O154  1  0.10042848  0.61415452  0.75680613  1
  O2-  O155  1  0.40501586  0.12067656  -0.00058078  1
  O2-  O156  1  0.35319999  0.11767553  0.24479262  1
  O2-  O157  1  0.34085090  0.12250741  0.49214369  1
  O2-  O158  1  0.36570039  0.13039761  0.75003831  1
  O2-  O159  1  0.38013663  0.66174598  -0.02658426  1
  O2-  O160  1  0.40199091  0.62970239  0.23414775  1
  O2-  O161  1  0.35154115  0.64853896  0.50690362  1
  O2-  O162  1  0.38439563  0.64398115  0.75625037  1
  O2-  O163  1  0.63436795  0.14350369  -0.00054217  1
  O2-  O164  1  0.63705291  0.14844808  0.25788980  1
  O2-  O165  1  0.57432788  0.11820300  0.52644482  1
  O2-  O166  1  0.64811156  0.15357809  0.75105490  1
  O2-  O167  1  0.64529594  0.61073768  -0.01042811  1
  O2-  O168  1  0.58424893  0.62791591  0.23898716  1
  O2-  O169  1  0.69571196  0.58898782  0.49137016  1
  O2-  O170  1  0.55272961  0.62571577  0.83119110  1
  O2-  O171  1  0.87748992  0.15086552  0.00736478  1
  O2-  O172  1  0.82758194  0.13092176  0.27610015  1
  O2-  O173  1  0.92439156  0.11086819  0.51300102  1
  O2-  O174  1  0.91362904  0.13893995  0.74041256  1
  O2-  O175  1  0.84142303  0.61504084  -0.01455956  1
  O2-  O176  1  0.87913583  0.62785138  0.25373101  1
  O2-  O177  1  0.86140408  0.64595632  0.49513652  1
  O2-  O178  1  0.88591940  0.65881878  0.76512577  1
  O2-  O179  1  0.09901659  0.35555922  0.01048871  1
  O2-  O180  1  0.17026194  0.38090425  0.24954831  1
  O2-  O181  1  0.12850816  0.34901860  0.49557653  1
  O2-  O182  1  0.13291452  0.36690758  0.76266851  1
  O2-  O183  1  0.11631780  0.84324571  0.00456603  1
  O2-  O184  1  0.13720488  0.87021496  0.25865457  1
  O2-  O185  1  0.15561974  0.88169850  0.50073424  1
  O2-  O186  1  0.09496114  0.89229014  0.75331563  1
  O2-  O187  1  0.39994751  0.37063002  0.00030652  1
  O2-  O188  1  0.36725831  0.36209817  0.24303531  1
  O2-  O189  1  0.33201042  0.37370922  0.49627551  1
  O2-  O190  1  0.32692538  0.36118148  0.75883717  1
  O2-  O191  1  0.38333249  0.85178967  -0.01099171  1
  O2-  O192  1  0.34796791  0.87768703  0.25025762  1
  O2-  O193  1  0.34382067  0.86279106  0.49896247  1
  O2-  O194  1  0.33484128  0.87099202  0.73533601  1
  O2-  O195  1  0.63909752  0.33616098  -0.00118992  1
  O2-  O196  1  0.61355701  0.33511495  0.26135103  1
  O2-  O197  1  0.60196647  0.42664603  0.51571224  1
  O2-  O198  1  0.68548530  0.35055339  0.75356347  1
  O2-  O199  1  0.58488969  0.89895218  0.00761588  1
  O2-  O200  1  0.61866333  0.85959755  0.25826638  1
  O2-  O201  1  0.66904004  0.86807909  0.51471786  1
  O2-  O202  1  0.64720418  0.81946963  0.70148020  1
  O2-  O203  1  0.84296483  0.35290563  0.00784162  1
  O2-  O204  1  0.82582013  0.36704243  0.27085483  1
  O2-  O205  1  0.93625390  0.37527773  0.50043596  1
  O2-  O206  1  0.89098875  0.35813561  0.73988427  1
  O2-  O207  1  0.93257787  0.89472319  0.03054707  1
  O2-  O208  1  0.89487287  0.86181764  0.24265686  1
  O2-  O209  1  0.85056507  0.86061657  0.49706628  1
  O2-  O210  1  0.90402863  0.84603235  0.73571490  1
  O2-  O211  1  -0.00630410  -0.15412072  -0.11445005  1
  O2-  O212  1  0.00516681  0.14750228  0.35886358  1
  O2-  O213  1  -0.00240671  -0.16394983  0.39253302  1
  O2-  O214  1  -0.00195646  -0.09997677  0.59136899  1
  O2-  O215  1  -0.01133950  0.64818163  -0.10611965  1
  O2-  O216  1  0.00877238  0.35910336  0.33762371  1
  O2-  O217  1  0.00810375  0.65143913  0.38105468  1
  O2-  O218  1  0.01294549  0.67029542  0.62460572  1
  O2-  O219  1  0.24707505  0.11766092  -0.10974689  1
  O2-  O220  1  0.24940097  -0.16677755  0.10847583  1
  O2-  O221  1  0.28388728  -0.00505180  0.37486497  1
  O2-  O222  1  0.24795196  -0.13041738  0.88781864  1
  O2-  O223  1  0.24730116  0.44342514  -0.07344862  1
  O2-  O224  1  0.25937944  0.65868725  0.10622913  1
  O2-  O225  1  0.24088222  0.64438471  0.64705959  1
  O2-  O226  1  0.24304833  0.61295279  0.87684291  1
  O2-  O227  1  0.49166793  -0.09895687  0.15315915  1
  O2-  O228  1  0.48529831  0.15720807  0.35947749  1
  O2-  O229  1  0.50491942  -0.11688698  0.54163885  1
  O2-  O230  1  0.50033658  -0.10381745  0.70071599  1
  O2-  O231  1  0.50115822  0.60806488  0.07469967  1
  O2-  O232  1  0.48593902  0.36758682  0.37651023  1
  O2-  O233  1  0.52549887  0.59249532  0.45305650  1
  O2-  O234  1  0.48654305  0.59167154  0.62957968  1
  O2-  O235  1  0.77514719  -0.06823059  -0.01047211  1
  O2-  O236  1  0.73666554  -0.15340252  0.12532265  1
  O2-  O237  1  0.75587963  0.15838702  0.59833558  1
  O2-  O238  1  0.76946466  -0.08774418  0.82789177  1
  O2-  O239  1  0.76403316  0.49286389  -0.12242518  1
  O2-  O240  1  0.73233441  0.63843964  0.13288360  1
  O2-  O241  1  0.76612400  0.37117958  0.58829720  1
  O2-  O242  1  0.73619239  0.63920377  0.82898464  1
