# generated using pymatgen
data_Gd19Ta56(WO20)8
_symmetry_space_group_name_H-M   'P 1'
_cell_length_a   15.52645027
_cell_length_b   15.48240262
_cell_length_c   15.35971036
_cell_angle_alpha   89.94771750
_cell_angle_beta   89.90198358
_cell_angle_gamma   89.95240437
_symmetry_Int_Tables_number   1
_chemical_formula_structural   Gd19Ta56(WO20)8
_chemical_formula_sum   'Gd19 Ta56 W8 O160'
_cell_volume   3692.26270976
_cell_formula_units_Z   1
loop_
 _symmetry_equiv_pos_site_id
 _symmetry_equiv_pos_as_xyz
  1  'x, y, z'
loop_
 _atom_type_symbol
 _atom_type_oxidation_number
  Gd3+  3.0
  Ta5+  5.0
  W6+  6.0
  O2-  -2.0
loop_
 _atom_site_type_symbol
 _atom_site_label
 _atom_site_symmetry_multiplicity
 _atom_site_fract_x
 _atom_site_fract_y
 _atom_site_fract_z
 _atom_site_occupancy
  Gd3+  Gd0  1  0.50547495  0.25497510  0.75817438  1
  Gd3+  Gd1  1  0.00258637  0.75161546  0.26687021  1
  Gd3+  Gd2  1  0.00094007  0.24925284  0.74603614  1
  Gd3+  Gd3  1  0.22797745  0.25115131  0.49948800  1
  Gd3+  Gd4  1  0.77597262  0.24401933  0.02432189  1
  Gd3+  Gd5  1  0.76210725  0.74996057  -0.01321831  1
  Gd3+  Gd6  1  0.74923378  0.74814927  0.49342871  1
  Gd3+  Gd7  1  0.24262141  0.74237014  0.74595355  1
  Gd3+  Gd8  1  0.48648993  0.23981049  0.01618621  1
  Gd3+  Gd9  1  0.49551536  0.75455114  0.26470187  1
  Gd3+  Gd10  1  0.76512197  0.24721099  0.73626137  1
  Gd3+  Gd11  1  0.75251874  0.75609764  0.25229756  1
  Gd3+  Gd12  1  0.73421686  0.74707587  0.75649107  1
  Gd3+  Gd13  1  0.24858603  0.25885189  0.00962040  1
  Gd3+  Gd14  1  0.01817525  0.73324944  0.00147324  1
  Gd3+  Gd15  1  0.50066411  0.74254812  0.51072870  1
  Gd3+  Gd16  1  0.24213037  0.74859735  0.48759834  1
  Gd3+  Gd17  1  0.01176673  0.24983156  -0.01845988  1
  Gd3+  Gd18  1  0.50897026  0.76158812  -0.00787122  1
  Ta5+  Ta19  1  0.92565510  0.37719075  0.12904054  1
  Ta5+  Ta20  1  0.36460620  0.61695789  0.37577200  1
  Ta5+  Ta21  1  0.91223281  0.12541929  0.60825746  1
  Ta5+  Ta22  1  0.14503324  0.11722659  0.86152479  1
  Ta5+  Ta23  1  0.07907582  0.37290663  0.60696919  1
  Ta5+  Ta24  1  0.38168107  0.11529466  0.87189346  1
  Ta5+  Ta25  1  0.64276184  0.88914393  0.11565161  1
  Ta5+  Ta26  1  0.36671851  0.87587839  0.12738059  1
  Ta5+  Ta27  1  0.90884436  0.37542177  0.60565136  1
  Ta5+  Ta28  1  0.60202924  0.61098994  0.63737981  1
  Ta5+  Ta29  1  0.39082606  0.88981840  0.62914932  1
  Ta5+  Ta30  1  0.93328303  0.12434220  0.13124037  1
  Ta5+  Ta31  1  0.90270947  0.62185547  0.85414527  1
  Ta5+  Ta32  1  0.63016776  0.36507587  0.61956609  1
  Ta5+  Ta33  1  0.91383236  0.88645513  0.86924707  1
  Ta5+  Ta34  1  0.13685358  0.37619030  0.85885730  1
  Ta5+  Ta35  1  0.10355165  0.13384307  0.12999265  1
  Ta5+  Ta36  1  0.63473187  0.12462973  0.88347236  1
  Ta5+  Ta37  1  0.36632234  0.13872280  0.62284985  1
  Ta5+  Ta38  1  0.09961856  0.87184096  0.62373764  1
  Ta5+  Ta39  1  0.09793459  0.12626065  0.37551371  1
  Ta5+  Ta40  1  0.37714401  0.43138535  0.12014236  1
  Ta5+  Ta41  1  0.08611882  0.37277185  0.37778729  1
  Ta5+  Ta42  1  0.63753908  0.37023752  0.88571943  1
  Ta5+  Ta43  1  0.60033844  0.13427715  0.38085817  1
  Ta5+  Ta44  1  0.36189752  0.13430969  0.36766235  1
  Ta5+  Ta45  1  0.88085177  0.88979338  0.37516140  1
  Ta5+  Ta46  1  0.88045921  0.38542992  0.87009951  1
  Ta5+  Ta47  1  0.91862446  0.37596343  0.36461778  1
  Ta5+  Ta48  1  0.87067510  0.11848975  0.87408285  1
  Ta5+  Ta49  1  0.12136501  0.88874032  0.12262877  1
  Ta5+  Ta50  1  0.35006514  0.11453544  0.12478918  1
  Ta5+  Ta51  1  0.37428777  0.63532784  0.11706043  1
  Ta5+  Ta52  1  0.36280938  0.86923393  0.86993569  1
  Ta5+  Ta53  1  0.10451738  0.60027848  0.83313151  1
  Ta5+  Ta54  1  0.10274806  0.61774790  0.60893693  1
  Ta5+  Ta55  1  0.84868967  0.61294413  0.11822535  1
  Ta5+  Ta56  1  0.11696200  0.88251193  0.87014673  1
  Ta5+  Ta57  1  0.36260776  0.36771377  0.62181555  1
  Ta5+  Ta58  1  0.13025174  0.88268791  0.37504687  1
  Ta5+  Ta59  1  0.59786701  0.88602835  0.63927593  1
  Ta5+  Ta60  1  0.92897641  0.13096729  0.36780370  1
  Ta5+  Ta61  1  0.37616017  0.36797290  0.36509178  1
  Ta5+  Ta62  1  0.39032622  0.61459415  0.63699570  1
  Ta5+  Ta63  1  0.62823818  0.88585325  0.38240135  1
  Ta5+  Ta64  1  0.59386533  0.61058697  0.87611137  1
  Ta5+  Ta65  1  0.62141930  0.13216479  0.62001107  1
  Ta5+  Ta66  1  0.62944255  0.12055844  0.13940261  1
  Ta5+  Ta67  1  0.08511723  0.12038679  0.61499331  1
  Ta5+  Ta68  1  0.63624195  0.61197937  0.12243238  1
  Ta5+  Ta69  1  0.37454165  0.38106715  0.87367663  1
  Ta5+  Ta70  1  0.87296752  0.61496731  0.36940424  1
  Ta5+  Ta71  1  0.87996969  0.62341926  0.62188752  1
  Ta5+  Ta72  1  0.61164925  0.36776716  0.13566095  1
  Ta5+  Ta73  1  0.85300088  0.89129830  0.11902762  1
  Ta5+  Ta74  1  0.17012743  0.59729745  0.13556685  1
  W6+  W75  1  0.60700123  0.93258053  0.87393290  1
  W6+  W76  1  0.08912846  0.36405629  0.12822720  1
  W6+  W77  1  0.37297798  0.88747591  0.38935049  1
  W6+  W78  1  0.62245021  0.36442651  0.38625004  1
  W6+  W79  1  0.43491260  0.62532556  0.85329676  1
  W6+  W80  1  0.62016276  0.61359073  0.38131486  1
  W6+  W81  1  0.12171033  0.61289605  0.36687863  1
  W6+  W82  1  0.85419400  0.88269366  0.62805614  1
  O2-  O83  1  0.09748858  0.00377570  0.10671564  1
  O2-  O84  1  0.13338446  0.00317159  0.38359053  1
  O2-  O85  1  0.10223777  -0.00797329  0.62344912  1
  O2-  O86  1  0.16521426  -0.00253969  0.88291976  1
  O2-  O87  1  0.11418482  0.49208051  0.11861284  1
  O2-  O88  1  0.13279302  0.48531973  0.36016772  1
  O2-  O89  1  0.07327070  0.50252216  0.60584648  1
  O2-  O90  1  0.16068896  0.50059573  0.87436981  1
  O2-  O91  1  0.38940242  -0.00623674  0.12372728  1
  O2-  O92  1  0.34440338  0.01833567  0.38574762  1
  O2-  O93  1  0.37143374  0.01106511  0.62529555  1
  O2-  O94  1  0.37736179  -0.01017192  0.85986309  1
  O2-  O95  1  0.44893418  0.53037747  0.12733103  1
  O2-  O96  1  0.37025666  0.49464223  0.37691290  1
  O2-  O97  1  0.36237085  0.49248674  0.62773293  1
  O2-  O98  1  0.40636887  0.49377249  0.86930187  1
  O2-  O99  1  0.59624412  0.00173902  0.12857919  1
  O2-  O100  1  0.61031442  0.00397019  0.38806112  1
  O2-  O101  1  0.62335410  0.00901943  0.62947748  1
  O2-  O102  1  0.68687950  0.02557246  0.83650819  1
  O2-  O103  1  0.62591421  0.49154338  0.12700805  1
  O2-  O104  1  0.63691092  0.48333646  0.38201672  1
  O2-  O105  1  0.62772269  0.49102828  0.63386877  1
  O2-  O106  1  0.62107701  0.49096023  0.89015622  1
  O2-  O107  1  0.90375537  -0.00060026  0.10484755  1
  O2-  O108  1  0.87643179  0.00901269  0.37274008  1
  O2-  O109  1  0.88838813  0.00867650  0.61554153  1
  O2-  O110  1  0.86231168  0.00006943  0.89478136  1
  O2-  O111  1  0.89336246  0.50260103  0.10441215  1
  O2-  O112  1  0.85943243  0.49736766  0.36723758  1
  O2-  O113  1  0.89079025  0.50491593  0.61390601  1
  O2-  O114  1  0.86115303  0.51137912  0.88245577  1
  O2-  O115  1  0.16131849  0.24892875  0.12728103  1
  O2-  O116  1  0.12835029  0.25063850  0.38461950  1
  O2-  O117  1  0.11177670  0.24726505  0.62675437  1
  O2-  O118  1  0.09976503  0.24628852  0.85609718  1
  O2-  O119  1  0.02816180  0.80356714  0.12993854  1
  O2-  O120  1  0.11040646  0.74741243  0.37324421  1
  O2-  O121  1  0.16411263  0.74660897  0.62074434  1
  O2-  O122  1  0.15917733  0.70236905  0.86214521  1
  O2-  O123  1  0.36421719  0.23871921  0.10293763  1
  O2-  O124  1  0.31194460  0.25815389  0.36707821  1
  O2-  O125  1  0.30587221  0.25081061  0.63911185  1
  O2-  O126  1  0.40320746  0.24988094  0.89031608  1
  O2-  O127  1  0.43537217  0.75540511  0.12494175  1
  O2-  O128  1  0.40825186  0.74651178  0.39159028  1
  O2-  O129  1  0.39570585  0.74582036  0.62493376  1
  O2-  O130  1  0.43860020  0.77176070  0.85755764  1
  O2-  O131  1  0.58241709  0.23692841  0.13185610  1
  O2-  O132  1  0.65755949  0.24039509  0.39301112  1
  O2-  O133  1  0.68629469  0.24732614  0.61076986  1
  O2-  O134  1  0.58397182  0.25503598  0.89552096  1
  O2-  O135  1  0.64043070  0.75799650  0.10826774  1
  O2-  O136  1  0.59246054  0.75615160  0.38881475  1
  O2-  O137  1  0.59992234  0.75033944  0.63608272  1
  O2-  O138  1  0.64735015  0.72755420  0.89334422  1
  O2-  O139  1  0.90657804  0.25142085  0.12496889  1
  O2-  O140  1  0.93509033  0.25438738  0.35159434  1
  O2-  O141  1  0.87110908  0.25257426  0.63061095  1
  O2-  O142  1  0.91515435  0.25327081  0.86814094  1
  O2-  O143  1  0.82985100  0.75652627  0.12584738  1
  O2-  O144  1  0.87530999  0.75363988  0.35202121  1
  O2-  O145  1  0.81242884  0.74511292  0.62838267  1
  O2-  O146  1  0.84264903  0.73346402  0.86274200  1
  O2-  O147  1  0.13041187  0.14743394  -0.01131799  1
  O2-  O148  1  0.11730197  0.12451953  0.25131985  1
  O2-  O149  1  0.13908465  0.12931467  0.50244579  1
  O2-  O150  1  0.08691583  0.11530006  0.75118135  1
  O2-  O151  1  0.13241827  0.65758558  0.04172937  1
  O2-  O152  1  0.10096764  0.63916778  0.22853756  1
  O2-  O153  1  0.15862940  0.62005575  0.50108520  1
  O2-  O154  1  0.16385301  0.60522387  0.71704075  1
  O2-  O155  1  0.34114698  0.11303028  -0.00763784  1
  O2-  O156  1  0.32971607  0.12880266  0.24534646  1
  O2-  O157  1  0.36064556  0.15427507  0.49955833  1
  O2-  O158  1  0.41040892  0.14102171  0.74582939  1
  O2-  O159  1  0.38966115  0.64929803  -0.00440664  1
  O2-  O160  1  0.40276804  0.63575344  0.25532736  1
  O2-  O161  1  0.34615366  0.63316313  0.50504164  1
  O2-  O162  1  0.33461094  0.63271699  0.74891647  1
  O2-  O163  1  0.66295637  0.13437913  0.01308370  1
  O2-  O164  1  0.64501954  0.11944852  0.26051261  1
  O2-  O165  1  0.57536408  0.13449586  0.50813800  1
  O2-  O166  1  0.62649433  0.16166522  0.75030860  1
  O2-  O167  1  0.57221343  0.62410417  0.01018379  1
  O2-  O168  1  0.58950406  0.64164145  0.23819847  1
  O2-  O169  1  0.65583132  0.63492470  0.52204040  1
  O2-  O170  1  0.65215119  0.62291879  0.75694522  1
  O2-  O171  1  0.89360102  0.14583830  -0.00015583  1
  O2-  O172  1  0.89166388  0.12171162  0.24457193  1
  O2-  O173  1  0.89710257  0.14648110  0.48795296  1
  O2-  O174  1  0.88284310  0.13185650  0.74798213  1
  O2-  O175  1  0.88872156  0.65769812  0.00296919  1
  O2-  O176  1  0.90237032  0.63550839  0.23419943  1
  O2-  O177  1  0.84845829  0.63442767  0.49878707  1
  O2-  O178  1  0.83436492  0.62019354  0.74103987  1
  O2-  O179  1  0.12927862  0.35301771  -0.01098238  1
  O2-  O180  1  0.06035067  0.35285324  0.25779424  1
  O2-  O181  1  0.14549895  0.37305423  0.50008948  1
  O2-  O182  1  0.09327189  0.38125374  0.74317028  1
  O2-  O183  1  0.11173146  0.85693649  -0.00528185  1
  O2-  O184  1  0.11783329  0.87967424  0.24674382  1
  O2-  O185  1  0.13765385  0.86340636  0.50471687  1
  O2-  O186  1  0.14013165  0.85867657  0.74688241  1
  O2-  O187  1  0.33754800  0.38499368  0.00800011  1
  O2-  O188  1  0.35735274  0.38629511  0.23183169  1
  O2-  O189  1  0.35860709  0.35916133  0.49657910  1
  O2-  O190  1  0.39580670  0.35822700  0.74746627  1
  O2-  O191  1  0.38809067  0.86175919  -0.00151380  1
  O2-  O192  1  0.39564019  0.86749724  0.24802505  1
  O2-  O193  1  0.32589114  0.86742673  0.52322512  1
  O2-  O194  1  0.33124958  0.86181838  0.73947326  1
  O2-  O195  1  0.66817054  0.35027750  0.01963071  1
  O2-  O196  1  0.64645570  0.35611946  0.24904426  1
  O2-  O197  1  0.57852934  0.35523776  0.51147365  1
  O2-  O198  1  0.62685396  0.34936466  0.75233310  1
  O2-  O199  1  0.57910753  0.88843752  -0.00093202  1
  O2-  O200  1  0.60117256  0.86268140  0.25307355  1
  O2-  O201  1  0.65197166  0.86618802  0.50978152  1
  O2-  O202  1  0.66110987  0.87367879  0.74630299  1
  O2-  O203  1  0.87767302  0.35820708  0.00019726  1
  O2-  O204  1  0.88087957  0.38265678  0.24103393  1
  O2-  O205  1  0.88747773  0.36365449  0.48601327  1
  O2-  O206  1  0.89865942  0.37832458  0.74634922  1
  O2-  O207  1  0.89985635  0.84970940  -0.00607029  1
  O2-  O208  1  0.89849270  0.87207008  0.23695273  1
  O2-  O209  1  0.85320236  0.86364812  0.49298760  1
  O2-  O210  1  0.85031331  0.87060475  0.76711956  1
  O2-  O211  1  0.01354712  -0.04568942  -0.15625685  1
  O2-  O212  1  0.00166722  -0.12305557  0.38091296  1
  O2-  O213  1  -0.01344504  -0.15300266  0.62981978  1
  O2-  O214  1  0.01160750  -0.20277030  0.86664268  1
  O2-  O215  1  0.01281327  0.60380812  -0.08011341  1
  O2-  O216  1  -0.00763926  0.61890253  0.38695477  1
  O2-  O217  1  -0.00813990  0.66902532  0.59756044  1
  O2-  O218  1  -0.00468883  0.61754239  0.76272196  1
  O2-  O219  1  0.24595005  -0.15549104  -0.11651231  1
  O2-  O220  1  0.24621627  -0.12741507  0.12103915  1
  O2-  O221  1  0.24860993  -0.15454973  0.36838586  1
  O2-  O222  1  0.26004805  0.14716145  0.84173480  1
  O2-  O223  1  0.28827083  0.52683153  0.11781991  1
  O2-  O224  1  0.26823939  0.68553381  0.14999617  1
  O2-  O225  1  0.25125854  0.64024140  0.35360109  1
  O2-  O226  1  0.25418576  0.33988278  0.85762889  1
  O2-  O227  1  0.50746446  0.11031514  -0.09803046  1
  O2-  O228  1  0.48241182  0.15014999  0.35172016  1
  O2-  O229  1  0.49294260  -0.11774820  0.54885372  1
  O2-  O230  1  0.49586303  -0.10258766  0.70915846  1
  O2-  O231  1  0.49052401  0.36977946  0.09627284  1
  O2-  O232  1  0.48874563  0.34237370  0.35879567  1
  O2-  O233  1  0.49797796  0.60366688  0.56148995  1
  O2-  O234  1  0.49201091  0.60929229  0.71882935  1
  O2-  O235  1  0.74459180  -0.10893920  0.03457658  1
  O2-  O236  1  0.74639441  -0.09298050  0.18917660  1
  O2-  O237  1  0.74672206  -0.13383860  0.36004803  1
  O2-  O238  1  0.75843958  0.18238322  0.88078464  1
  O2-  O239  1  0.73862853  0.61408199  0.04063495  1
  O2-  O240  1  0.74511785  0.61507058  0.19493246  1
  O2-  O241  1  0.74628756  0.66050179  0.36631899  1
  O2-  O242  1  0.75956693  0.35587178  0.85951468  1
