# generated using pymatgen
data_Gd19Ta56(WO20)8
_symmetry_space_group_name_H-M   'P 1'
_cell_length_a   15.48805505
_cell_length_b   15.51181790
_cell_length_c   15.32259616
_cell_angle_alpha   90.03786251
_cell_angle_beta   89.88250435
_cell_angle_gamma   90.01156614
_symmetry_Int_Tables_number   1
_chemical_formula_structural   Gd19Ta56(WO20)8
_chemical_formula_sum   'Gd19 Ta56 W8 O160'
_cell_volume   3681.21277100
_cell_formula_units_Z   1
loop_
 _symmetry_equiv_pos_site_id
 _symmetry_equiv_pos_as_xyz
  1  'x, y, z'
loop_
 _atom_type_symbol
 _atom_type_oxidation_number
  Gd3+  3.0
  Ta5+  5.0
  W6+  6.0
  O2-  -2.0
loop_
 _atom_site_type_symbol
 _atom_site_label
 _atom_site_symmetry_multiplicity
 _atom_site_fract_x
 _atom_site_fract_y
 _atom_site_fract_z
 _atom_site_occupancy
  Gd3+  Gd0  1  0.00500947  0.24944876  0.73364030  1
  Gd3+  Gd1  1  0.51973431  0.26017208  0.51109898  1
  Gd3+  Gd2  1  0.73860706  0.74556660  0.24463354  1
  Gd3+  Gd3  1  0.01348123  0.77211697  0.50237353  1
  Gd3+  Gd4  1  0.02030847  0.78657732  0.74259682  1
  Gd3+  Gd5  1  0.23721850  0.74116128  0.45071559  1
  Gd3+  Gd6  1  0.27261897  0.74071889  0.00348476  1
  Gd3+  Gd7  1  0.50892830  0.25709758  0.74994572  1
  Gd3+  Gd8  1  0.75342733  0.27230249  0.51051304  1
  Gd3+  Gd9  1  0.26293441  0.23905663  -0.00819281  1
  Gd3+  Gd10  1  0.23662397  0.22256310  0.48264020  1
  Gd3+  Gd11  1  0.26393313  0.24385617  0.23615405  1
  Gd3+  Gd12  1  0.48946194  0.23323998  0.00380710  1
  Gd3+  Gd13  1  -0.01716041  0.26725562  -0.00848451  1
  Gd3+  Gd14  1  -0.00964297  0.25116515  0.49575500  1
  Gd3+  Gd15  1  0.74571085  0.25886680  0.75958911  1
  Gd3+  Gd16  1  0.25757245  0.21953546  0.74377314  1
  Gd3+  Gd17  1  0.73838284  0.23580897  0.02280050  1
  Gd3+  Gd18  1  0.46974065  0.73060081  0.50095601  1
  Ta5+  Ta19  1  0.39518250  0.85063307  0.85643989  1
  Ta5+  Ta20  1  0.09922838  0.63210794  0.87331572  1
  Ta5+  Ta21  1  0.40095511  0.09127238  0.13610531  1
  Ta5+  Ta22  1  0.65422228  0.08437525  0.63707173  1
  Ta5+  Ta23  1  0.61455651  0.41092435  0.14090471  1
  Ta5+  Ta24  1  0.38257259  0.09820189  0.86477331  1
  Ta5+  Ta25  1  0.87383230  0.63624542  0.11958954  1
  Ta5+  Ta26  1  0.87478081  0.12437156  0.88065065  1
  Ta5+  Ta27  1  0.09416111  0.12043835  0.32738118  1
  Ta5+  Ta28  1  0.12828426  0.87871603  0.33882958  1
  Ta5+  Ta29  1  0.85248622  0.88344186  0.37400276  1
  Ta5+  Ta30  1  0.63051863  0.38942818  0.89625809  1
  Ta5+  Ta31  1  0.87001251  0.10965269  0.62744005  1
  Ta5+  Ta32  1  0.55988679  0.86218307  0.89652334  1
  Ta5+  Ta33  1  0.34675500  0.61025661  0.34922501  1
  Ta5+  Ta34  1  0.35580623  0.05623872  0.61313324  1
  Ta5+  Ta35  1  0.13043351  0.63055359  0.12438846  1
  Ta5+  Ta36  1  0.11727417  0.10624311  0.61281119  1
  Ta5+  Ta37  1  0.60318224  0.10225413  0.14844736  1
  Ta5+  Ta38  1  0.63226276  0.11711851  0.38624937  1
  Ta5+  Ta39  1  0.08621215  0.62806438  0.35691404  1
  Ta5+  Ta40  1  0.58712283  0.63917033  0.12690287  1
  Ta5+  Ta41  1  0.42017128  0.63329018  0.11714405  1
  Ta5+  Ta42  1  0.56960431  0.63407609  0.87785318  1
  Ta5+  Ta43  1  0.35697775  0.37779143  0.62338349  1
  Ta5+  Ta44  1  0.87465196  0.40985559  0.87541767  1
  Ta5+  Ta45  1  0.87012403  0.64956663  0.62731379  1
  Ta5+  Ta46  1  0.62947638  0.38878960  0.37399084  1
  Ta5+  Ta47  1  0.14383301  0.86219568  0.13003705  1
  Ta5+  Ta48  1  0.63272444  0.10193085  0.88299719  1
  Ta5+  Ta49  1  0.62291086  0.86582923  0.39199664  1
  Ta5+  Ta50  1  0.41149784  0.40488028  0.12847663  1
  Ta5+  Ta51  1  0.14591762  0.37927950  0.61855726  1
  Ta5+  Ta52  1  0.12902535  0.11138129  0.87339212  1
  Ta5+  Ta53  1  0.91629291  0.64306433  0.36944029  1
  Ta5+  Ta54  1  0.90509417  0.12018668  0.13868539  1
  Ta5+  Ta55  1  0.38834740  0.38699599  0.87460157  1
  Ta5+  Ta56  1  0.83471671  0.89927111  0.62459619  1
  Ta5+  Ta57  1  0.33752381  0.85728400  0.62032288  1
  Ta5+  Ta58  1  0.85797920  0.89147443  0.86689123  1
  Ta5+  Ta59  1  0.37592445  0.86497671  0.35016844  1
  Ta5+  Ta60  1  0.12059965  0.11126545  0.11870642  1
  Ta5+  Ta61  1  0.86231903  0.12898791  0.37187189  1
  Ta5+  Ta62  1  0.87235707  0.39612611  0.37160429  1
  Ta5+  Ta63  1  0.31868154  0.61741284  0.62704436  1
  Ta5+  Ta64  1  0.16973450  0.87693368  0.61307251  1
  Ta5+  Ta65  1  0.14199469  0.38931085  0.87234110  1
  Ta5+  Ta66  1  0.89049593  0.38933189  0.13433883  1
  Ta5+  Ta67  1  0.11148469  0.37976042  0.36106449  1
  Ta5+  Ta68  1  0.42494996  0.86104585  0.10856919  1
  Ta5+  Ta69  1  0.88986398  0.39992918  0.62764697  1
  Ta5+  Ta70  1  0.39073640  0.36834235  0.37110805  1
  Ta5+  Ta71  1  0.58952299  0.86865821  0.14040704  1
  Ta5+  Ta72  1  0.40174726  0.62992662  0.86347496  1
  Ta5+  Ta73  1  0.39721263  0.10354359  0.37063107  1
  Ta5+  Ta74  1  0.62806408  0.63442015  0.37962643  1
  W6+  W75  1  0.15379102  0.63201735  0.62174666  1
  W6+  W76  1  0.61338421  0.62851686  0.63364119  1
  W6+  W77  1  0.14477564  0.38147091  0.11975024  1
  W6+  W78  1  0.15985835  0.87872054  0.87190476  1
  W6+  W79  1  0.53960670  0.86874673  0.64062046  1
  W6+  W80  1  0.93757195  0.65421079  0.88038885  1
  W6+  W81  1  0.62694801  0.41072742  0.63668767  1
  W6+  W82  1  0.83047442  0.87823671  0.11298669  1
  O2-  O83  1  0.12872687  -0.00724456  0.11420500  1
  O2-  O84  1  0.10986747  0.00753703  0.36272140  1
  O2-  O85  1  0.10450666  -0.01003997  0.59838236  1
  O2-  O86  1  0.10093441  -0.00252309  0.88454869  1
  O2-  O87  1  0.14441008  0.51344859  0.11675548  1
  O2-  O88  1  0.09924009  0.49589983  0.37225183  1
  O2-  O89  1  0.16106359  0.49630483  0.60914528  1
  O2-  O90  1  0.10779950  0.50260507  0.89171762  1
  O2-  O91  1  0.36544031  -0.01910351  0.10792095  1
  O2-  O92  1  0.41425883  -0.01258809  0.37693046  1
  O2-  O93  1  0.43655687  -0.03366859  0.60837908  1
  O2-  O94  1  0.41073689  -0.01573725  0.87260635  1
  O2-  O95  1  0.36698091  0.51005767  0.09995931  1
  O2-  O96  1  0.35401993  0.48219052  0.36976042  1
  O2-  O97  1  0.35967656  0.49686277  0.60432820  1
  O2-  O98  1  0.41355940  0.50132057  0.89057957  1
  O2-  O99  1  0.64321441  -0.01153525  0.13688310  1
  O2-  O100  1  0.62292247  -0.00450007  0.39050814  1
  O2-  O101  1  0.59579777  -0.01250681  0.66910307  1
  O2-  O102  1  0.60680965  -0.01431818  0.87644439  1
  O2-  O103  1  0.65343323  0.52328760  0.13533918  1
  O2-  O104  1  0.61962457  0.50837954  0.35991662  1
  O2-  O105  1  0.55630434  0.51416748  0.63909604  1
  O2-  O106  1  0.60026820  0.50284347  0.88873157  1
  O2-  O107  1  0.87916622  0.00777229  0.13194189  1
  O2-  O108  1  0.87943652  0.00784990  0.36353109  1
  O2-  O109  1  0.91484871  -0.01078955  0.64695052  1
  O2-  O110  1  0.90873601  0.00507989  0.86609100  1
  O2-  O111  1  0.85957604  0.50888995  0.12572837  1
  O2-  O112  1  0.89393704  0.51384295  0.36774695  1
  O2-  O113  1  0.87630319  0.52081100  0.63718565  1
  O2-  O114  1  0.90611950  0.52064983  0.86679118  1
  O2-  O115  1  0.17121467  0.24097963  0.11650337  1
  O2-  O116  1  0.15481973  0.23277522  0.35192709  1
  O2-  O117  1  0.12185432  0.24984951  0.63185741  1
  O2-  O118  1  0.00756363  0.16553784  0.87767190  1
  O2-  O119  1  0.18621150  0.74571021  0.14957612  1
  O2-  O120  1  0.11618993  0.75553836  0.34791800  1
  O2-  O121  1  0.10267286  0.76409722  0.62268382  1
  O2-  O122  1  0.11916310  0.75647419  0.85567830  1
  O2-  O123  1  0.36823375  0.21460226  0.12424649  1
  O2-  O124  1  0.34006056  0.24744072  0.37323299  1
  O2-  O125  1  0.41287726  0.26233514  0.63129560  1
  O2-  O126  1  0.36288570  0.24392275  0.85279070  1
  O2-  O127  1  0.37297535  0.74965502  0.12899600  1
  O2-  O128  1  0.35759508  0.74021918  0.34474095  1
  O2-  O129  1  0.36619651  0.73290784  0.62283086  1
  O2-  O130  1  0.33564042  0.73973751  0.85674685  1
  O2-  O131  1  0.62285744  0.22241569  0.11473307  1
  O2-  O132  1  0.64148867  0.25158027  0.41319161  1
  O2-  O133  1  0.59681461  0.27728480  0.62960253  1
  O2-  O134  1  0.66394419  0.24643990  0.89430114  1
  O2-  O135  1  0.62705615  0.75634311  0.11203335  1
  O2-  O136  1  0.67932557  0.75061860  0.40098751  1
  O2-  O137  1  0.54879881  0.74083512  0.62654522  1
  O2-  O138  1  0.60811471  0.75449736  0.90673532  1
  O2-  O139  1  0.87029422  0.26038591  0.10544453  1
  O2-  O140  1  0.85792857  0.25764753  0.40820665  1
  O2-  O141  1  0.90301673  0.25933905  0.61477307  1
  O2-  O142  1  0.85698651  0.25874516  0.89505842  1
  O2-  O143  1  0.80569366  0.73868343  0.10983690  1
  O2-  O144  1  0.91048774  0.77569495  0.38537284  1
  O2-  O145  1  0.90489852  0.79102319  0.62315431  1
  O2-  O146  1  0.93687960  0.80116534  0.86937781  1
  O2-  O147  1  0.16601459  0.12491538  -0.00306243  1
  O2-  O148  1  0.18032041  0.11788785  0.23078472  1
  O2-  O149  1  0.11047681  0.14275360  0.49034796  1
  O2-  O150  1  0.12601960  0.12636864  0.74597099  1
  O2-  O151  1  0.14596037  0.65216990  -0.00444294  1
  O2-  O152  1  0.06909703  0.63062078  0.23080638  1
  O2-  O153  1  0.11689205  0.65646479  0.48633399  1
  O2-  O154  1  0.13063995  0.61858408  0.75655443  1
  O2-  O155  1  0.36323082  0.12790658  -0.01270947  1
  O2-  O156  1  0.34282795  0.11305906  0.25940787  1
  O2-  O157  1  0.35198944  0.11339841  0.49011007  1
  O2-  O158  1  0.38344019  0.10614311  0.72705823  1
  O2-  O159  1  0.38611094  0.64447131  -0.00869785  1
  O2-  O160  1  0.40941902  0.60760560  0.24465820  1
  O2-  O161  1  0.35017015  0.63379799  0.48555338  1
  O2-  O162  1  0.35723908  0.60776837  0.74354842  1
  O2-  O163  1  0.66140238  0.10802583  0.00272793  1
  O2-  O164  1  0.65267973  0.12851560  0.26600149  1
  O2-  O165  1  0.60266794  0.11965043  0.53148037  1
  O2-  O166  1  0.62970778  0.14788265  0.74777496  1
  O2-  O167  1  0.56856081  0.62079696  0.00744061  1
  O2-  O168  1  0.61288992  0.65866721  0.25885211  1
  O2-  O169  1  0.58058165  0.63073981  0.49589716  1
  O2-  O170  1  0.61375515  0.63883969  0.76445180  1
  O2-  O171  1  0.85574484  0.12836499  0.00643675  1
  O2-  O172  1  0.84943961  0.15049498  0.24826760  1
  O2-  O173  1  0.89353319  0.12035640  0.50727552  1
  O2-  O174  1  0.87859829  0.15914766  0.75284606  1
  O2-  O175  1  0.93956188  0.64782498  0.02116581  1
  O2-  O176  1  0.88586342  0.65568746  0.24524878  1
  O2-  O177  1  0.91778621  0.65051590  0.51041413  1
  O2-  O178  1  0.93324870  0.66398387  0.73323392  1
  O2-  O179  1  0.10078071  0.35201218  -0.01425751  1
  O2-  O180  1  0.17787659  0.37176243  0.25641972  1
  O2-  O181  1  0.11315759  0.34201173  0.48408060  1
  O2-  O182  1  0.17103752  0.24891108  0.86637500  1
  O2-  O183  1  0.16795487  0.85238651  0.00825243  1
  O2-  O184  1  0.06507387  0.87440395  0.23105711  1
  O2-  O185  1  0.14144668  0.85825220  0.47981613  1
  O2-  O186  1  0.14186843  0.88304151  0.73618126  1
  O2-  O187  1  0.37104520  0.34787751  0.00653298  1
  O2-  O188  1  0.36234021  0.35984093  0.23528519  1
  O2-  O189  1  0.41195982  0.36311410  0.49512768  1
  O2-  O190  1  0.41386975  0.38145521  0.75049644  1
  O2-  O191  1  0.36808428  0.85114115  -0.01681369  1
  O2-  O192  1  0.42682121  0.87365740  0.23793213  1
  O2-  O193  1  0.36108171  0.84264285  0.48332699  1
  O2-  O194  1  0.34153162  0.87929305  0.74269252  1
  O2-  O195  1  0.67340825  0.37529258  0.02193288  1
  O2-  O196  1  0.65667649  0.36235764  0.24547375  1
  O2-  O197  1  0.60336485  0.39062259  0.49837741  1
  O2-  O198  1  0.62666676  0.35815648  0.77009644  1
  O2-  O199  1  0.53290676  0.89807369  0.01975916  1
  O2-  O200  1  0.61742839  0.85247472  0.26681590  1
  O2-  O201  1  0.55984911  0.85972610  0.49949969  1
  O2-  O202  1  0.51144194  0.85685612  0.77786319  1
  O2-  O203  1  0.89980116  0.39187878  -0.00258233  1
  O2-  O204  1  0.84855737  0.37348456  0.24968305  1
  O2-  O205  1  0.88829954  0.39134598  0.50284684  1
  O2-  O206  1  0.90490462  0.36489892  0.75912351  1
  O2-  O207  1  0.80166866  0.88800923  -0.02941256  1
  O2-  O208  1  0.82677253  0.86611949  0.25342787  1
  O2-  O209  1  0.82159696  0.89040070  0.50110179  1
  O2-  O210  1  0.80398087  0.88278530  0.75421648  1
  O2-  O211  1  0.00957755  0.14737837  0.06518246  1
  O2-  O212  1  0.02024725  0.11155486  0.21708253  1
  O2-  O213  1  -0.01320240  0.16203822  0.37345251  1
  O2-  O214  1  -0.00133275  0.13189990  0.63836958  1
  O2-  O215  1  0.00696477  0.37506206  0.14523077  1
  O2-  O216  1  -0.00628533  0.34687294  0.35398671  1
  O2-  O217  1  0.01504728  0.38666691  0.61768970  1
  O2-  O218  1  0.09771928  0.37192965  0.75808975  1
  O2-  O219  1  0.25776984  0.09906802  -0.15199877  1
  O2-  O220  1  0.25308878  -0.11269712  0.34035663  1
  O2-  O221  1  0.26816807  -0.02788329  0.58705756  1
  O2-  O222  1  0.24550621  0.13912237  0.61599367  1
  O2-  O223  1  0.26282371  0.39950646  -0.12285663  1
  O2-  O224  1  0.22644380  0.61891797  0.34732291  1
  O2-  O225  1  0.25738482  0.35029399  0.54469424  1
  O2-  O226  1  0.25240932  0.36006214  0.69999502  1
  O2-  O227  1  0.50498879  0.09911287  0.06269944  1
  O2-  O228  1  0.49724592  0.08459996  0.22024952  1
  O2-  O229  1  0.50533115  0.15613904  0.38965086  1
  O2-  O230  1  0.50833420  0.14799337  0.87293816  1
  O2-  O231  1  0.51756663  0.35420897  0.07529507  1
  O2-  O232  1  0.50677463  0.45015689  0.19671975  1
  O2-  O233  1  0.50757858  0.34945861  0.34902700  1
  O2-  O234  1  0.50988949  0.33694924  0.89426227  1
  O2-  O235  1  0.75642237  0.10037754  -0.14764471  1
  O2-  O236  1  0.74934887  0.12400901  0.42763079  1
  O2-  O237  1  0.76218448  0.01944997  0.62035557  1
  O2-  O238  1  0.75593389  0.17693573  0.63033869  1
  O2-  O239  1  0.75530902  0.40608776  -0.13490464  1
  O2-  O240  1  0.75133143  0.39140016  0.40299078  1
  O2-  O241  1  0.75458349  0.66773823  0.62780785  1
  O2-  O242  1  0.76511883  0.35940063  0.64058089  1
