# generated using pymatgen
data_Gd19Ta56(WO20)8
_symmetry_space_group_name_H-M   'P 1'
_cell_length_a   15.53733060
_cell_length_b   15.51975471
_cell_length_c   15.42275193
_cell_angle_alpha   90.18884258
_cell_angle_beta   90.16643912
_cell_angle_gamma   89.86355521
_symmetry_Int_Tables_number   1
_chemical_formula_structural   Gd19Ta56(WO20)8
_chemical_formula_sum   'Gd19 Ta56 W8 O160'
_cell_volume   3718.92756706
_cell_formula_units_Z   1
loop_
 _symmetry_equiv_pos_site_id
 _symmetry_equiv_pos_as_xyz
  1  'x, y, z'
loop_
 _atom_type_symbol
 _atom_type_oxidation_number
  Gd3+  3.0
  Ta5+  5.0
  W6+  6.0
  O2-  -2.0
loop_
 _atom_site_type_symbol
 _atom_site_label
 _atom_site_symmetry_multiplicity
 _atom_site_fract_x
 _atom_site_fract_y
 _atom_site_fract_z
 _atom_site_occupancy
  Gd3+  Gd0  1  0.77989728  0.24974489  0.25691604  1
  Gd3+  Gd1  1  0.25225520  0.25847771  0.74056436  1
  Gd3+  Gd2  1  -0.00184034  0.75324776  0.22837635  1
  Gd3+  Gd3  1  0.20843795  0.78657559  0.51694094  1
  Gd3+  Gd4  1  0.24985212  0.76875714  0.25541787  1
  Gd3+  Gd5  1  0.54070439  0.26290515  0.22184389  1
  Gd3+  Gd6  1  0.49416853  0.76330970  0.25151327  1
  Gd3+  Gd7  1  0.78543863  0.22921290  0.49981013  1
  Gd3+  Gd8  1  0.76350456  0.75601097  0.75308369  1
  Gd3+  Gd9  1  0.77121942  0.76010679  0.50482556  1
  Gd3+  Gd10  1  0.49222156  0.24708988  0.76465144  1
  Gd3+  Gd11  1  0.74413436  0.75551101  -0.00679767  1
  Gd3+  Gd12  1  0.25900965  0.26175712  0.49334087  1
  Gd3+  Gd13  1  0.75568489  0.74449098  0.26623079  1
  Gd3+  Gd14  1  0.46845000  0.75983398  0.00369140  1
  Gd3+  Gd15  1  0.73267056  0.24281523  0.73274028  1
  Gd3+  Gd16  1  0.49337363  0.75412800  0.76178553  1
  Gd3+  Gd17  1  0.01347497  0.24161886  0.73834525  1
  Gd3+  Gd18  1  -0.02021302  0.26363203  -0.00369803  1
  Ta5+  Ta19  1  0.35330385  0.92400343  0.11665485  1
  Ta5+  Ta20  1  0.14505492  0.60142276  0.36944014  1
  Ta5+  Ta21  1  0.84420962  0.38556569  0.11563404  1
  Ta5+  Ta22  1  0.10738731  0.63607242  0.86313872  1
  Ta5+  Ta23  1  0.62124402  0.61085316  0.13342799  1
  Ta5+  Ta24  1  0.87553062  0.88949282  0.37795551  1
  Ta5+  Ta25  1  0.60129792  0.89342361  0.87771326  1
  Ta5+  Ta26  1  0.12968353  0.12927565  0.88889160  1
  Ta5+  Ta27  1  0.88884483  0.62083228  0.88407738  1
  Ta5+  Ta28  1  0.11377251  0.89914809  0.12016237  1
  Ta5+  Ta29  1  0.63425876  0.13053288  0.37010758  1
  Ta5+  Ta30  1  0.61959365  0.38445345  0.61122286  1
  Ta5+  Ta31  1  0.07747603  0.88219480  0.87880290  1
  Ta5+  Ta32  1  0.86476672  0.12780072  0.12016673  1
  Ta5+  Ta33  1  0.06832289  0.89630628  0.63129728  1
  Ta5+  Ta34  1  0.86557860  0.60979884  0.12164180  1
  Ta5+  Ta35  1  0.67098262  0.38436931  0.37173436  1
  Ta5+  Ta36  1  0.92661708  0.40422513  0.60899796  1
  Ta5+  Ta37  1  0.60990420  0.58601424  0.88467761  1
  Ta5+  Ta38  1  0.63360171  0.39262164  0.86942846  1
  Ta5+  Ta39  1  0.69197296  0.13184780  0.11435112  1
  Ta5+  Ta40  1  0.35325787  0.63399507  0.62673951  1
  Ta5+  Ta41  1  0.11712993  0.37213504  0.36917618  1
  Ta5+  Ta42  1  0.87649383  0.62674844  0.63146818  1
  Ta5+  Ta43  1  0.38670793  0.11175275  0.14712081  1
  Ta5+  Ta44  1  0.91067085  0.87242792  0.88110914  1
  Ta5+  Ta45  1  0.62461562  0.13373742  0.87732571  1
  Ta5+  Ta46  1  0.14996984  0.63357392  0.10418771  1
  Ta5+  Ta47  1  0.34613275  0.87989019  0.87082488  1
  Ta5+  Ta48  1  0.60582519  0.61767108  0.39590316  1
  Ta5+  Ta49  1  0.38033332  0.11959188  0.61123481  1
  Ta5+  Ta50  1  0.09450915  0.14137787  0.35196765  1
  Ta5+  Ta51  1  0.87024227  0.37739372  0.85715637  1
  Ta5+  Ta52  1  0.90169964  0.09059136  0.61943513  1
  Ta5+  Ta53  1  0.61641866  0.89791024  0.38201953  1
  Ta5+  Ta54  1  0.41793654  0.35882042  0.37650160  1
  Ta5+  Ta55  1  0.90439590  0.61584697  0.38522987  1
  Ta5+  Ta56  1  0.38585529  0.60930224  0.37893740  1
  Ta5+  Ta57  1  0.10404590  0.90154730  0.37073902  1
  Ta5+  Ta58  1  0.92803790  0.13468286  0.36292063  1
  Ta5+  Ta59  1  0.37705736  0.11975260  0.89689260  1
  Ta5+  Ta60  1  0.47023937  0.13499775  0.38847792  1
  Ta5+  Ta61  1  0.36990927  0.87522963  0.62516094  1
  Ta5+  Ta62  1  0.59399097  0.87398439  0.61012262  1
  Ta5+  Ta63  1  0.37780029  0.38727963  0.61858576  1
  Ta5+  Ta64  1  0.67708547  0.37891160  0.11294925  1
  Ta5+  Ta65  1  0.87149858  0.11384074  0.86762756  1
  Ta5+  Ta66  1  0.86532605  0.87821684  0.12129595  1
  Ta5+  Ta67  1  0.13841094  0.11267513  0.59805528  1
  Ta5+  Ta68  1  0.06630652  0.14309206  0.14041816  1
  Ta5+  Ta69  1  0.09176044  0.39266099  0.13297049  1
  Ta5+  Ta70  1  0.33353366  0.34864388  0.13901681  1
  Ta5+  Ta71  1  0.38113032  0.59885159  0.13281678  1
  Ta5+  Ta72  1  0.41233351  0.91440494  0.39859134  1
  Ta5+  Ta73  1  0.89325368  0.88802552  0.63709570  1
  Ta5+  Ta74  1  0.12698132  0.40365144  0.61918750  1
  W6+  W75  1  0.62706201  0.62547369  0.64677418  1
  W6+  W76  1  0.62475294  0.12321845  0.59784334  1
  W6+  W77  1  0.10487979  0.63779847  0.62143958  1
  W6+  W78  1  0.63229608  0.89782633  0.14522907  1
  W6+  W79  1  0.36625621  0.37744213  0.88837940  1
  W6+  W80  1  0.84513289  0.39096247  0.37806627  1
  W6+  W81  1  0.36891147  0.62225046  0.87728823  1
  W6+  W82  1  0.11966032  0.38671473  0.87816806  1
  O2-  O83  1  0.09809183  0.01552100  0.13845742  1
  O2-  O84  1  0.11521574  0.01409668  0.33527358  1
  O2-  O85  1  0.15200380  -0.00085830  0.63998566  1
  O2-  O86  1  0.09285591  0.01711917  0.87627686  1
  O2-  O87  1  0.10459679  0.52446113  0.13457371  1
  O2-  O88  1  0.17995972  0.48640450  0.35921188  1
  O2-  O89  1  0.16060928  0.51640913  0.64029682  1
  O2-  O90  1  0.13171521  0.51776298  0.86158669  1
  O2-  O91  1  0.45219711  -0.00572125  0.13404917  1
  O2-  O92  1  0.38473033  0.02682599  0.37360796  1
  O2-  O93  1  0.39120184  -0.00540806  0.63537780  1
  O2-  O94  1  0.35846373  0.00474776  0.85400874  1
  O2-  O95  1  0.36206448  0.48411347  0.14747572  1
  O2-  O96  1  0.40592817  0.49293741  0.36573873  1
  O2-  O97  1  0.37197154  0.50787414  0.62766802  1
  O2-  O98  1  0.34259916  0.50144532  0.87696465  1
  O2-  O99  1  0.64957635  0.01783499  0.12231041  1
  O2-  O100  1  0.64779174  0.00565631  0.34354056  1
  O2-  O101  1  0.61236321  -0.00980084  0.61263013  1
  O2-  O102  1  0.50293952  0.11242216  0.87444996  1
  O2-  O103  1  0.61139807  0.49467579  0.13591345  1
  O2-  O104  1  0.62790543  0.50631149  0.35813360  1
  O2-  O105  1  0.64776430  0.49281802  0.65033446  1
  O2-  O106  1  0.54045671  0.48080145  0.86951214  1
  O2-  O107  1  0.85422472  -0.00426635  0.12825786  1
  O2-  O108  1  0.89874096  0.00396130  0.36314157  1
  O2-  O109  1  0.82200037  -0.00022324  0.63931054  1
  O2-  O110  1  0.88153625  -0.00574661  0.88434399  1
  O2-  O111  1  0.91311860  0.50076866  0.10960027  1
  O2-  O112  1  0.82912098  0.52765002  0.38960728  1
  O2-  O113  1  0.86273791  0.50641310  0.64419505  1
  O2-  O114  1  0.89286257  0.49911806  0.85920586  1
  O2-  O115  1  0.05253301  0.27196143  0.13153096  1
  O2-  O116  1  0.15891638  0.25810248  0.37328993  1
  O2-  O117  1  0.17620491  0.23126578  0.61336006  1
  O2-  O118  1  0.07450949  0.25027651  0.88040835  1
  O2-  O119  1  0.09744461  0.74281451  0.11562124  1
  O2-  O120  1  0.20326395  0.82628429  0.37853724  1
  O2-  O121  1  0.09254186  0.77623960  0.60783924  1
  O2-  O122  1  0.11537626  0.76517211  0.87452328  1
  O2-  O123  1  0.33055028  0.22455596  0.14446225  1
  O2-  O124  1  0.38332058  0.23989275  0.39471618  1
  O2-  O125  1  0.37121620  0.24964691  0.60341999  1
  O2-  O126  1  0.39415034  0.24369406  0.87631631  1
  O2-  O127  1  0.40710013  0.81161320  0.13759314  1
  O2-  O128  1  0.26945418  0.64233104  0.34885271  1
  O2-  O129  1  0.31259644  0.75502679  0.61587890  1
  O2-  O130  1  0.35297190  0.75755108  0.90306157  1
  O2-  O131  1  0.64600653  0.25706630  0.11286330  1
  O2-  O132  1  0.68441491  0.25466692  0.38522587  1
  O2-  O133  1  0.66761582  0.26088792  0.59959972  1
  O2-  O134  1  0.60132908  0.26225217  0.87496078  1
  O2-  O135  1  0.50239461  0.65766345  0.11883838  1
  O2-  O136  1  0.70816944  0.68209285  0.39429084  1
  O2-  O137  1  0.64993908  0.76645006  0.65248975  1
  O2-  O138  1  0.69729079  0.81795099  0.86608910  1
  O2-  O139  1  0.86860871  0.26013071  0.11798381  1
  O2-  O140  1  0.87651030  0.25249963  0.37565283  1
  O2-  O141  1  0.83428892  0.19611774  0.63903474  1
  O2-  O142  1  0.89907273  0.24803204  0.85566645  1
  O2-  O143  1  0.89820586  0.73138093  0.11480708  1
  O2-  O144  1  0.86492914  0.73588047  0.38454569  1
  O2-  O145  1  0.86906517  0.76209691  0.62692869  1
  O2-  O146  1  0.85411629  0.74694625  0.88725826  1
  O2-  O147  1  0.08543841  0.14399414  0.00978778  1
  O2-  O148  1  0.13613172  0.16486999  0.23597261  1
  O2-  O149  1  0.11420540  0.11542155  0.47963840  1
  O2-  O150  1  0.14368202  0.15409502  0.76067808  1
  O2-  O151  1  0.16882416  0.63329475  -0.01196235  1
  O2-  O152  1  0.12709299  0.66623261  0.26322017  1
  O2-  O153  1  0.15122158  0.65291481  0.48134778  1
  O2-  O154  1  0.06635639  0.64319101  0.75034706  1
  O2-  O155  1  0.39106285  0.11359987  0.01718401  1
  O2-  O156  1  0.45150196  0.14218212  0.25019814  1
  O2-  O157  1  0.46175991  0.11908639  0.51922207  1
  O2-  O158  1  0.37310424  0.14799608  0.73745683  1
  O2-  O159  1  0.38120197  0.62713626  0.01502548  1
  O2-  O160  1  0.40222519  0.64422341  0.25033417  1
  O2-  O161  1  0.36753960  0.63115761  0.49743894  1
  O2-  O162  1  0.38917986  0.65226517  0.74283243  1
  O2-  O163  1  0.66048433  0.14058934  -0.00762817  1
  O2-  O164  1  0.65068199  0.15971370  0.24254452  1
  O2-  O165  1  0.69089122  0.11314883  0.48265814  1
  O2-  O166  1  0.61065709  0.15399508  0.73859452  1
  O2-  O167  1  0.63649207  0.63655653  0.00175093  1
  O2-  O168  1  0.60755118  0.65121941  0.25306624  1
  O2-  O169  1  0.59542346  0.61035911  0.51398501  1
  O2-  O170  1  0.64804435  0.65251703  0.78670744  1
  O2-  O171  1  0.89251465  0.13687797  -0.01148880  1
  O2-  O172  1  0.87388788  0.13169127  0.25014959  1
  O2-  O173  1  0.89463010  0.11846979  0.49673159  1
  O2-  O174  1  0.92748524  0.10866234  0.75579601  1
  O2-  O175  1  0.82621260  0.61803746  -0.00592603  1
  O2-  O176  1  0.89795563  0.63149344  0.25237672  1
  O2-  O177  1  0.91525470  0.63138036  0.51204541  1
  O2-  O178  1  0.86401079  0.64392850  0.75976786  1
  O2-  O179  1  0.07239089  0.39116947  0.00961649  1
  O2-  O180  1  0.06584408  0.39075789  0.25965924  1
  O2-  O181  1  0.15106166  0.37549098  0.49612617  1
  O2-  O182  1  0.12267376  0.35494577  0.73857794  1
  O2-  O183  1  0.12580433  0.89276713  0.00123529  1
  O2-  O184  1  0.11182842  0.85115054  0.24688619  1
  O2-  O185  1  0.10895573  0.90434955  0.49430143  1
  O2-  O186  1  0.06118989  0.88976656  0.75199786  1
  O2-  O187  1  0.36510978  0.35803907  0.02600351  1
  O2-  O188  1  0.40900411  0.34634311  0.24599833  1
  O2-  O189  1  0.35240550  0.37936535  0.48665399  1
  O2-  O190  1  0.39336218  0.35892757  0.74249680  1
  O2-  O191  1  0.34108897  0.90850546  -0.00121893  1
  O2-  O192  1  0.36935581  0.81717953  0.32681912  1
  O2-  O193  1  0.33854099  0.88090936  0.49861174  1
  O2-  O194  1  0.37576695  0.85125195  0.74969355  1
  O2-  O195  1  0.65542453  0.38730143  -0.01152367  1
  O2-  O196  1  0.65556950  0.35863864  0.24539160  1
  O2-  O197  1  0.66792142  0.39590953  0.49800900  1
  O2-  O198  1  0.60843104  0.34788470  0.73824898  1
  O2-  O199  1  0.60354983  0.84530721  0.00217684  1
  O2-  O200  1  0.63546737  0.82680662  0.26802388  1
  O2-  O201  1  0.64810130  0.83880662  0.49937655  1
  O2-  O202  1  0.57547042  0.88051987  0.75293742  1
  O2-  O203  1  0.86792409  0.37182743  -0.01859058  1
  O2-  O204  1  0.84873718  0.38799277  0.24086038  1
  O2-  O205  1  0.85372704  0.36369053  0.52170842  1
  O2-  O206  1  0.90898304  0.36343122  0.73066616  1
  O2-  O207  1  0.84841792  0.86497131  -0.00078056  1
  O2-  O208  1  0.86945229  0.84506499  0.25021084  1
  O2-  O209  1  0.87064789  0.87755739  0.50138672  1
  O2-  O210  1  0.87539514  0.86491287  0.75952381  1
  O2-  O211  1  -0.01040055  -0.12477287  0.12853970  1
  O2-  O212  1  -0.00481091  -0.15917775  0.36486293  1
  O2-  O213  1  -0.02198065  -0.01802822  0.59611779  1
  O2-  O214  1  0.02124798  0.14045117  0.62685185  1
  O2-  O215  1  -0.00105169  0.63631543  -0.07114139  1
  O2-  O216  1  0.02222249  0.58128739  0.37543995  1
  O2-  O217  1  0.01868188  0.47320962  0.56965185  1
  O2-  O218  1  0.02072863  0.31928206  0.61147707  1
  O2-  O219  1  0.29501994  0.03398636  0.16343508  1
  O2-  O220  1  0.23964781  -0.12827849  0.14813400  1
  O2-  O221  1  0.27256135  0.10994419  0.55644441  1
  O2-  O222  1  0.24895231  0.13471832  0.90585191  1
  O2-  O223  1  0.21316928  0.37077179  0.14386859  1
  O2-  O224  1  0.26592347  0.65100106  0.14956511  1
  O2-  O225  1  0.25407234  0.37061075  0.63212511  1
  O2-  O226  1  0.24076457  0.33269438  0.86520449  1
  O2-  O227  1  0.47871378  -0.13127874  -0.10721371  1
  O2-  O228  1  0.50666674  -0.09841868  0.31028118  1
  O2-  O229  1  0.51651091  -0.08233605  0.46973748  1
  O2-  O230  1  0.48143517  -0.18091063  0.61091751  1
  O2-  O231  1  0.50488456  0.67399569  -0.11450374  1
  O2-  O232  1  0.49365555  0.68062543  0.38229569  1
  O2-  O233  1  0.53620104  0.35382875  0.37458665  1
  O2-  O234  1  0.50154983  0.38106713  0.58817876  1
  O2-  O235  1  0.64178581  0.00456615  -0.12147004  1
  O2-  O236  1  0.74351658  -0.18058442  0.13014296  1
  O2-  O237  1  0.75192780  -0.13263996  0.37498986  1
  O2-  O238  1  0.75266761  0.13929141  0.83878898  1
  O2-  O239  1  0.70167548  0.50728775  -0.12951496  1
  O2-  O240  1  0.74408949  0.63527152  0.15096966  1
  O2-  O241  1  0.75825694  0.64378754  0.60181404  1
  O2-  O242  1  0.75285908  0.35153632  0.83039026  1
