# generated using pymatgen
data_Gd19Ta56(WO20)8
_symmetry_space_group_name_H-M   'P 1'
_cell_length_a   15.56224789
_cell_length_b   15.56998397
_cell_length_c   15.17098130
_cell_angle_alpha   89.80027132
_cell_angle_beta   90.17808590
_cell_angle_gamma   90.06350052
_symmetry_Int_Tables_number   1
_chemical_formula_structural   Gd19Ta56(WO20)8
_chemical_formula_sum   'Gd19 Ta56 W8 O160'
_cell_volume   3675.94639279
_cell_formula_units_Z   1
loop_
 _symmetry_equiv_pos_site_id
 _symmetry_equiv_pos_as_xyz
  1  'x, y, z'
loop_
 _atom_type_symbol
 _atom_type_oxidation_number
  Gd3+  3.0
  Ta5+  5.0
  W6+  6.0
  O2-  -2.0
loop_
 _atom_site_type_symbol
 _atom_site_label
 _atom_site_symmetry_multiplicity
 _atom_site_fract_x
 _atom_site_fract_y
 _atom_site_fract_z
 _atom_site_occupancy
  Gd3+  Gd0  1  0.01240167  0.23423033  0.46659780  1
  Gd3+  Gd1  1  0.49940200  0.75900391  0.48277874  1
  Gd3+  Gd2  1  0.74694244  0.24569685  0.73053523  1
  Gd3+  Gd3  1  0.74668204  0.24109552  -0.01226063  1
  Gd3+  Gd4  1  0.27251052  0.25966189  0.50743053  1
  Gd3+  Gd5  1  0.76809066  0.74237763  0.75752531  1
  Gd3+  Gd6  1  0.01547353  0.23939185  0.76112278  1
  Gd3+  Gd7  1  0.74752722  0.74387702  0.00238387  1
  Gd3+  Gd8  1  0.49070454  0.75672669  0.00796289  1
  Gd3+  Gd9  1  0.24503473  0.76031053  -0.00797537  1
  Gd3+  Gd10  1  -0.03430108  0.23958570  0.03608087  1
  Gd3+  Gd11  1  0.75198114  0.74888665  0.50603405  1
  Gd3+  Gd12  1  0.51365449  0.25890711  0.49292318  1
  Gd3+  Gd13  1  0.23474413  0.75078087  0.72954408  1
  Gd3+  Gd14  1  0.23333448  0.76063558  0.24270484  1
  Gd3+  Gd15  1  0.49376251  0.23527091  0.00356237  1
  Gd3+  Gd16  1  -0.01488496  0.73732565  0.27670268  1
  Gd3+  Gd17  1  0.52534598  0.75594809  0.75290691  1
  Gd3+  Gd18  1  0.02340781  0.74569505  0.52251185  1
  Ta5+  Ta19  1  0.62752509  0.62627601  0.35688630  1
  Ta5+  Ta20  1  0.14445355  0.13238227  0.61842423  1
  Ta5+  Ta21  1  0.87018614  0.57116878  0.63699699  1
  Ta5+  Ta22  1  0.67126999  0.38541937  0.59605309  1
  Ta5+  Ta23  1  0.39898152  0.61980409  0.87330934  1
  Ta5+  Ta24  1  0.91264752  0.86730109  0.89885290  1
  Ta5+  Ta25  1  0.85860025  0.86595363  0.14513417  1
  Ta5+  Ta26  1  0.12866217  0.37864165  0.88102504  1
  Ta5+  Ta27  1  0.14656973  0.35593719  0.35604805  1
  Ta5+  Ta28  1  0.16873865  0.13236829  0.88164382  1
  Ta5+  Ta29  1  0.63054983  0.37026680  0.86032679  1
  Ta5+  Ta30  1  0.38980277  0.12923952  0.64038978  1
  Ta5+  Ta31  1  0.81729439  0.12827999  0.39559908  1
  Ta5+  Ta32  1  0.34005831  0.12799505  0.12648013  1
  Ta5+  Ta33  1  0.64359539  0.13101512  0.13233058  1
  Ta5+  Ta34  1  0.88123937  0.88830408  0.38817797  1
  Ta5+  Ta35  1  0.60179603  0.60825310  0.10893705  1
  Ta5+  Ta36  1  0.14029029  0.59191910  0.34592346  1
  Ta5+  Ta37  1  0.35901211  0.37753441  0.10861755  1
  Ta5+  Ta38  1  0.37956365  0.88577359  0.62465839  1
  Ta5+  Ta39  1  0.87967252  0.37252823  0.87612103  1
  Ta5+  Ta40  1  0.82577328  0.36593628  0.39878014  1
  Ta5+  Ta41  1  0.88147179  0.37157455  0.61427424  1
  Ta5+  Ta42  1  0.09457402  0.88752236  0.09613880  1
  Ta5+  Ta43  1  0.62149239  0.62062727  0.62396618  1
  Ta5+  Ta44  1  0.64965994  0.36840541  0.12932492  1
  Ta5+  Ta45  1  0.35601719  0.88800239  0.37406394  1
  Ta5+  Ta46  1  0.61203189  0.88738573  0.11486064  1
  Ta5+  Ta47  1  0.36414728  0.62493185  0.12372948  1
  Ta5+  Ta48  1  0.39245350  0.37916716  0.35959564  1
  Ta5+  Ta49  1  0.38974461  0.38173375  0.62745040  1
  Ta5+  Ta50  1  0.85734492  0.61803235  0.13853528  1
  Ta5+  Ta51  1  0.65797405  0.37808204  0.37534005  1
  Ta5+  Ta52  1  0.13613599  0.13061692  0.09434699  1
  Ta5+  Ta53  1  0.64739452  0.12698109  0.37689822  1
  Ta5+  Ta54  1  0.11634607  0.89226928  0.87346318  1
  Ta5+  Ta55  1  0.61877451  0.89544134  0.88138771  1
  Ta5+  Ta56  1  0.40409119  0.89456733  0.87050816  1
  Ta5+  Ta57  1  0.85507127  0.60300384  0.39526561  1
  Ta5+  Ta58  1  0.81119788  0.11615295  0.14459994  1
  Ta5+  Ta59  1  0.11863578  0.38246404  0.10879653  1
  Ta5+  Ta60  1  0.37233032  0.37557945  0.87916535  1
  Ta5+  Ta61  1  0.87846808  0.11457562  0.62553155  1
  Ta5+  Ta62  1  0.37680288  0.62690340  0.62424585  1
  Ta5+  Ta63  1  0.36626409  0.13564804  0.36467897  1
  Ta5+  Ta64  1  0.62018265  0.13600464  0.85557358  1
  Ta5+  Ta65  1  0.36695836  0.89270488  0.12269828  1
  Ta5+  Ta66  1  0.61396739  0.61162444  0.88456015  1
  Ta5+  Ta67  1  0.13945975  0.89527054  0.61697395  1
  Ta5+  Ta68  1  0.63956523  0.87561594  0.36061251  1
  Ta5+  Ta69  1  0.08814072  0.62870744  0.08329497  1
  Ta5+  Ta70  1  0.64270675  0.11981318  0.59640432  1
  Ta5+  Ta71  1  0.37169896  0.62409654  0.37197000  1
  Ta5+  Ta72  1  0.89343802  0.87633346  0.64767764  1
  Ta5+  Ta73  1  0.11693277  0.62468654  0.87241273  1
  Ta5+  Ta74  1  0.12592288  0.91176087  0.36130889  1
  W6+  W75  1  0.13263524  0.36558786  0.62388764  1
  W6+  W76  1  0.90753827  0.61650253  0.88645417  1
  W6+  W77  1  0.20330991  0.15676364  0.34353782  1
  W6+  W78  1  0.33188816  0.12722624  0.89100858  1
  W6+  W79  1  0.06946797  0.56060196  0.68173463  1
  W6+  W80  1  0.81375798  0.37088832  0.14172124  1
  W6+  W81  1  0.88560400  0.11194852  0.87993416  1
  W6+  W82  1  0.63435787  0.87870128  0.62677077  1
  O2-  O83  1  0.10749333  0.00742877  0.11484230  1
  O2-  O84  1  0.14900017  0.02323502  0.35115561  1
  O2-  O85  1  0.10416852  0.01778968  0.61343140  1
  O2-  O86  1  0.12396889  0.01204537  0.87428671  1
  O2-  O87  1  0.09331538  0.50875041  0.09769306  1
  O2-  O88  1  0.10515374  0.48338420  0.37823358  1
  O2-  O89  1  0.15738495  0.49392883  0.62749489  1
  O2-  O90  1  0.12218853  0.50361257  0.88675140  1
  O2-  O91  1  0.31600890  -0.00102947  0.11344919  1
  O2-  O92  1  0.36240723  0.00737273  0.37691960  1
  O2-  O93  1  0.40989957  0.00258094  0.62712493  1
  O2-  O94  1  0.33940123  -0.00897913  0.88449592  1
  O2-  O95  1  0.35168067  0.50985393  0.10147988  1
  O2-  O96  1  0.40353655  0.50790437  0.36241561  1
  O2-  O97  1  0.36233883  0.50825283  0.62442980  1
  O2-  O98  1  0.37272732  0.50574512  0.89522617  1
  O2-  O99  1  0.60942064  0.00619195  0.11321026  1
  O2-  O100  1  0.63638877  -0.00633929  0.37006809  1
  O2-  O101  1  0.61161725  0.00764106  0.62353238  1
  O2-  O102  1  0.64183050  0.01083863  0.86475787  1
  O2-  O103  1  0.59954140  0.48898374  0.11168121  1
  O2-  O104  1  0.64136272  0.50845329  0.37047926  1
  O2-  O105  1  0.63036690  0.50333493  0.62047483  1
  O2-  O106  1  0.62473903  0.49122508  0.86780545  1
  O2-  O107  1  0.82596491  -0.01955360  0.14528174  1
  O2-  O108  1  0.86478155  0.00330570  0.39147881  1
  O2-  O109  1  0.86894836  -0.01015250  0.61538829  1
  O2-  O110  1  0.87678742  -0.02100147  0.89638176  1
  O2-  O111  1  0.81447083  0.50899676  0.14294724  1
  O2-  O112  1  0.87254862  0.48632117  0.40959116  1
  O2-  O113  1  0.95628947  0.48087561  0.64059423  1
  O2-  O114  1  0.92234447  0.48156122  0.88655955  1
  O2-  O115  1  0.09805550  0.25048215  0.11725902  1
  O2-  O116  1  0.08643441  0.25193321  0.33786606  1
  O2-  O117  1  0.06086232  0.22960707  0.61509345  1
  O2-  O118  1  0.12795429  0.25018299  0.87968020  1
  O2-  O119  1  0.13387620  0.75854096  0.09965978  1
  O2-  O120  1  0.00476369  0.87342590  0.35133271  1
  O2-  O121  1  0.14576575  0.76859950  0.61088639  1
  O2-  O122  1  0.15423466  0.75748351  0.87241849  1
  O2-  O123  1  0.36049042  0.25359419  0.10894439  1
  O2-  O124  1  0.42614445  0.25775595  0.36073233  1
  O2-  O125  1  0.40128999  0.25501828  0.62985523  1
  O2-  O126  1  0.38024552  0.25578567  0.90206914  1
  O2-  O127  1  0.32471489  0.75858137  0.12723102  1
  O2-  O128  1  0.38461902  0.75145639  0.36296321  1
  O2-  O129  1  0.33909619  0.74932796  0.62068469  1
  O2-  O130  1  0.42580557  0.75659804  0.86813174  1
  O2-  O131  1  0.59867303  0.25378530  0.12184153  1
  O2-  O132  1  0.63282382  0.25329237  0.39662449  1
  O2-  O133  1  0.64805517  0.25108663  0.59418324  1
  O2-  O134  1  0.57009622  0.25713880  0.86497246  1
  O2-  O135  1  0.61615944  0.74917895  0.08741588  1
  O2-  O136  1  0.58116892  0.75525665  0.35193717  1
  O2-  O137  1  0.66519968  0.74398848  0.62887600  1
  O2-  O138  1  0.60734561  0.74987318  0.89727454  1
  O2-  O139  1  0.84752506  0.23831440  0.13967869  1
  O2-  O140  1  0.86206112  0.24264499  0.40423917  1
  O2-  O141  1  0.86699407  0.24394378  0.63134342  1
  O2-  O142  1  0.92885925  0.24572885  0.88649907  1
  O2-  O143  1  0.80488761  0.74076293  0.14225098  1
  O2-  O144  1  0.91463868  0.71671510  0.41479695  1
  O2-  O145  1  0.83673091  0.76641941  0.62909338  1
  O2-  O146  1  0.85607565  0.75103042  0.88277017  1
  O2-  O147  1  0.06842390  0.13566615  -0.01291491  1
  O2-  O148  1  0.22424798  0.14267085  0.18979933  1
  O2-  O149  1  0.15770440  0.15897906  0.48845847  1
  O2-  O150  1  0.13721852  0.14088991  0.74971419  1
  O2-  O151  1  0.18507997  0.62697011  -0.00381952  1
  O2-  O152  1  0.13723790  0.63359678  0.22511024  1
  O2-  O153  1  0.08309922  0.69142988  0.39094543  1
  O2-  O154  1  0.16987912  0.62528076  0.75702020  1
  O2-  O155  1  0.41166624  0.11641324  0.02174870  1
  O2-  O156  1  0.39654594  0.12358390  0.23499217  1
  O2-  O157  1  0.38189500  0.15247477  0.49498060  1
  O2-  O158  1  0.38179413  0.12779919  0.76094853  1
  O2-  O159  1  0.36014507  0.66165994  -0.00503504  1
  O2-  O160  1  0.32245188  0.63125504  0.24260758  1
  O2-  O161  1  0.40280001  0.63534970  0.49543583  1
  O2-  O162  1  0.34562436  0.63999682  0.75933875  1
  O2-  O163  1  0.62289657  0.14674384  -0.00958032  1
  O2-  O164  1  0.62253297  0.13592980  0.25591225  1
  O2-  O165  1  0.56762778  0.12389583  0.49157602  1
  O2-  O166  1  0.61489676  0.14967110  0.73072915  1
  O2-  O167  1  0.67720208  0.61238718  0.00221305  1
  O2-  O168  1  0.64173646  0.62610481  0.22416252  1
  O2-  O169  1  0.61195811  0.64676953  0.49277847  1
  O2-  O170  1  0.65263768  0.64160374  0.75903272  1
  O2-  O171  1  0.85153223  0.12939873  0.01271711  1
  O2-  O172  1  0.81857466  0.11935488  0.27007628  1
  O2-  O173  1  0.92344163  0.12295682  0.50810438  1
  O2-  O174  1  0.93164239  0.11534271  0.74052547  1
  O2-  O175  1  0.85078916  0.63150635  0.01392727  1
  O2-  O176  1  0.88518441  0.62364194  0.27121371  1
  O2-  O177  1  0.81787316  0.61268640  0.52825850  1
  O2-  O178  1  0.83986631  0.61106953  0.75038890  1
  O2-  O179  1  0.05966712  0.36407565  -0.00904912  1
  O2-  O180  1  0.12871720  0.39151837  0.23126934  1
  O2-  O181  1  0.14409961  0.34065088  0.48558982  1
  O2-  O182  1  0.09196328  0.36957644  0.76251116  1
  O2-  O183  1  0.17871930  0.88980207  -0.00626285  1
  O2-  O184  1  0.13376763  0.86960533  0.23196880  1
  O2-  O185  1  0.10604424  0.88745730  0.48734200  1
  O2-  O186  1  0.16207912  0.88583903  0.74904955  1
  O2-  O187  1  0.43474828  0.37919928  0.00544903  1
  O2-  O188  1  0.39366183  0.38543535  0.22569026  1
  O2-  O189  1  0.39103606  0.37277157  0.49469238  1
  O2-  O190  1  0.40220402  0.38273499  0.76118153  1
  O2-  O191  1  0.36459500  0.85336251  -0.00553750  1
  O2-  O192  1  0.33686112  0.87724891  0.24392098  1
  O2-  O193  1  0.39715390  0.87019613  0.49327631  1
  O2-  O194  1  0.35273549  0.86398611  0.75249331  1
  O2-  O195  1  0.64395442  0.35642411  -0.00913343  1
  O2-  O196  1  0.63082277  0.36798048  0.25338070  1
  O2-  O197  1  0.59362767  0.38700291  0.49685108  1
  O2-  O198  1  0.65334368  0.36297928  0.72725316  1
  O2-  O199  1  0.67877147  0.88183887  -0.00034913  1
  O2-  O200  1  0.65944898  0.86981941  0.22757980  1
  O2-  O201  1  0.61706801  0.85148594  0.48873955  1
  O2-  O202  1  0.66392316  0.85230918  0.76893718  1
  O2-  O203  1  0.85667880  0.34893378  0.00372515  1
  O2-  O204  1  0.82081765  0.36960164  0.27782855  1
  O2-  O205  1  0.94051478  0.35561458  0.50539878  1
  O2-  O206  1  0.90183299  0.35223351  0.74875333  1
  O2-  O207  1  0.85879692  0.84623099  0.01930864  1
  O2-  O208  1  0.86787712  0.83024527  0.27116001  1
  O2-  O209  1  0.90441292  0.85466407  0.50638443  1
  O2-  O210  1  0.85550602  0.87045703  0.76593142  1
  O2-  O211  1  0.02146923  -0.11816850  -0.02091729  1
  O2-  O212  1  -0.01799068  -0.14093603  0.14978666  1
  O2-  O213  1  0.01125392  -0.13960598  0.64021495  1
  O2-  O214  1  0.00984152  -0.14658170  0.82099385  1
  O2-  O215  1  0.02413269  0.64491945  -0.02797847  1
  O2-  O216  1  -0.01897226  0.66250967  0.14267328  1
  O2-  O217  1  -0.02573913  0.64255606  0.61442573  1
  O2-  O218  1  0.01407495  0.62757291  0.79812590  1
  O2-  O219  1  0.23460852  0.13481901  0.01314898  1
  O2-  O220  1  0.23248934  -0.15714641  0.37554581  1
  O2-  O221  1  0.25894427  -0.09009953  0.59699350  1
  O2-  O222  1  0.26520529  0.12805196  0.62317121  1
  O2-  O223  1  0.23715773  0.37961462  0.08245567  1
  O2-  O224  1  0.26855492  0.37459568  0.36146181  1
  O2-  O225  1  0.24619187  0.61399629  0.39918059  1
  O2-  O226  1  0.25012236  0.37879201  0.88433297  1
  O2-  O227  1  0.51578930  -0.10327956  -0.03925557  1
  O2-  O228  1  0.48987362  -0.13727630  0.13404261  1
  O2-  O229  1  0.49649555  -0.16795288  0.62646943  1
  O2-  O230  1  0.51135928  -0.10087121  0.80048325  1
  O2-  O231  1  0.51701469  0.61293050  -0.02460494  1
  O2-  O232  1  0.48187465  0.64504330  0.14184733  1
  O2-  O233  1  0.49934775  0.65253319  0.63806323  1
  O2-  O234  1  0.50541745  0.61274497  0.81115002  1
  O2-  O235  1  0.74649014  0.16015633  -0.14252529  1
  O2-  O236  1  0.75907892  -0.14825701  0.39428746  1
  O2-  O237  1  0.73044885  0.11103015  0.49299458  1
  O2-  O238  1  0.76047858  0.11570490  0.65804211  1
  O2-  O239  1  0.75669220  0.33664660  -0.14047332  1
  O2-  O240  1  0.74495933  0.66639755  0.37570514  1
  O2-  O241  1  0.77431674  0.34951740  0.52973688  1
  O2-  O242  1  0.79358450  0.46337816  0.64096285  1
