# generated using pymatgen
data_Gd19Ta56(WO20)8
_symmetry_space_group_name_H-M   'P 1'
_cell_length_a   15.53899663
_cell_length_b   15.54301588
_cell_length_c   15.32910278
_cell_angle_alpha   90.18296485
_cell_angle_beta   89.94274533
_cell_angle_gamma   89.99838814
_symmetry_Int_Tables_number   1
_chemical_formula_structural   Gd19Ta56(WO20)8
_chemical_formula_sum   'Gd19 Ta56 W8 O160'
_cell_volume   3702.30819260
_cell_formula_units_Z   1
loop_
 _symmetry_equiv_pos_site_id
 _symmetry_equiv_pos_as_xyz
  1  'x, y, z'
loop_
 _atom_type_symbol
 _atom_type_oxidation_number
  Gd3+  3.0
  Ta5+  5.0
  W6+  6.0
  O2-  -2.0
loop_
 _atom_site_type_symbol
 _atom_site_label
 _atom_site_symmetry_multiplicity
 _atom_site_fract_x
 _atom_site_fract_y
 _atom_site_fract_z
 _atom_site_occupancy
  Gd3+  Gd0  1  0.00090840  0.72199507  0.02565846  1
  Gd3+  Gd1  1  0.76790301  0.23868350  0.01113216  1
  Gd3+  Gd2  1  0.50313320  0.76409216  0.73905105  1
  Gd3+  Gd3  1  0.75791793  0.74332238  0.76152724  1
  Gd3+  Gd4  1  -0.01114798  0.73320626  0.26275114  1
  Gd3+  Gd5  1  0.76254639  0.78083356  0.00538831  1
  Gd3+  Gd6  1  0.50023868  0.24013936  -0.00265142  1
  Gd3+  Gd7  1  0.49749200  0.75354283  0.25088421  1
  Gd3+  Gd8  1  0.23920286  0.26170796  0.25459538  1
  Gd3+  Gd9  1  0.22704105  0.26319996  0.73522885  1
  Gd3+  Gd10  1  0.75787252  0.23978664  0.26173695  1
  Gd3+  Gd11  1  0.49272798  0.24757162  0.75477163  1
  Gd3+  Gd12  1  0.20888465  0.74870961  0.22347792  1
  Gd3+  Gd13  1  0.00639788  0.25229849  0.25670396  1
  Gd3+  Gd14  1  0.24502810  0.26657069  0.49285739  1
  Gd3+  Gd15  1  0.77358545  0.24934845  0.73672024  1
  Gd3+  Gd16  1  0.51266609  0.25863602  0.50709731  1
  Gd3+  Gd17  1  0.23291425  0.77018258  -0.01839225  1
  Gd3+  Gd18  1  0.49339842  0.75642134  0.49518560  1
  Ta5+  Ta19  1  0.13146439  0.63563089  0.63674033  1
  Ta5+  Ta20  1  0.63858883  0.62909783  0.13048845  1
  Ta5+  Ta21  1  0.36656151  0.89195582  0.62342653  1
  Ta5+  Ta22  1  0.87489272  0.37990066  0.87993357  1
  Ta5+  Ta23  1  0.09630349  0.38588618  0.38732993  1
  Ta5+  Ta24  1  0.93044263  0.37249740  0.40996486  1
  Ta5+  Ta25  1  0.85319349  0.86564372  0.39053793  1
  Ta5+  Ta26  1  0.84182602  0.61433809  0.14785483  1
  Ta5+  Ta27  1  0.62798725  0.37201615  0.37714306  1
  Ta5+  Ta28  1  0.13212273  0.13132073  0.11584412  1
  Ta5+  Ta29  1  0.62139149  0.87543838  0.88339778  1
  Ta5+  Ta30  1  0.09723534  0.89382036  0.11444578  1
  Ta5+  Ta31  1  0.12516476  0.88460249  0.62892925  1
  Ta5+  Ta32  1  0.65232031  0.87337310  0.38032230  1
  Ta5+  Ta33  1  0.37893173  0.89069762  0.87026393  1
  Ta5+  Ta34  1  0.88310998  0.11004449  0.62738535  1
  Ta5+  Ta35  1  0.62146306  0.12123057  0.63305660  1
  Ta5+  Ta36  1  0.10990172  0.12869917  0.86318636  1
  Ta5+  Ta37  1  0.62827922  0.61743674  0.37067902  1
  Ta5+  Ta38  1  0.36992954  0.62492665  0.63000564  1
  Ta5+  Ta39  1  0.88541887  0.06041081  0.86952636  1
  Ta5+  Ta40  1  0.86743473  0.61175427  0.39088319  1
  Ta5+  Ta41  1  0.12612129  0.39262593  0.12953807  1
  Ta5+  Ta42  1  0.59717517  0.63184045  0.88561072  1
  Ta5+  Ta43  1  0.90432239  0.36809048  0.62053241  1
  Ta5+  Ta44  1  0.88444218  0.86052319  0.62718483  1
  Ta5+  Ta45  1  0.37139794  0.13617053  0.62007920  1
  Ta5+  Ta46  1  0.61688061  0.11844179  0.86708912  1
  Ta5+  Ta47  1  0.12070603  0.11254783  0.38262083  1
  Ta5+  Ta48  1  0.86568605  0.60345774  0.89087643  1
  Ta5+  Ta49  1  0.63470051  0.38219345  0.63669436  1
  Ta5+  Ta50  1  0.64407096  0.88424402  0.14677896  1
  Ta5+  Ta51  1  0.60968146  0.38759586  0.87572089  1
  Ta5+  Ta52  1  0.88556352  0.37624508  0.13986684  1
  Ta5+  Ta53  1  0.62866035  0.38122078  0.12423611  1
  Ta5+  Ta54  1  0.10337605  0.38899287  0.61211944  1
  Ta5+  Ta55  1  0.38430371  0.13058155  0.36651877  1
  Ta5+  Ta56  1  0.37199768  0.12621444  0.11906704  1
  Ta5+  Ta57  1  0.91480145  0.86202514  0.87915395  1
  Ta5+  Ta58  1  0.36916059  0.38285045  0.62820578  1
  Ta5+  Ta59  1  0.14354493  0.61772970  0.41111156  1
  Ta5+  Ta60  1  0.07952949  0.88995567  0.87234717  1
  Ta5+  Ta61  1  0.36240983  0.62969205  0.10676173  1
  Ta5+  Ta62  1  0.39695098  0.39703634  0.87778921  1
  Ta5+  Ta63  1  0.34601657  0.62410228  0.38309791  1
  Ta5+  Ta64  1  0.36987177  0.12200154  0.86971762  1
  Ta5+  Ta65  1  0.38344015  0.38459361  0.36690808  1
  Ta5+  Ta66  1  0.11993007  0.38377701  0.87716112  1
  Ta5+  Ta67  1  0.62834617  0.11875654  0.38003741  1
  Ta5+  Ta68  1  0.38340149  0.38627383  0.11068770  1
  Ta5+  Ta69  1  0.14099039  0.56955887  0.11077825  1
  Ta5+  Ta70  1  0.85818587  0.60646335  0.63064684  1
  Ta5+  Ta71  1  0.09581110  0.61500410  0.86880854  1
  Ta5+  Ta72  1  0.64281929  0.87658177  0.61357503  1
  Ta5+  Ta73  1  0.34513980  0.89355678  0.12520410  1
  Ta5+  Ta74  1  0.89963514  0.88475123  0.13867201  1
  W6+  W75  1  0.11071974  0.12935976  0.60264278  1
  W6+  W76  1  0.60944430  0.61976981  0.62517918  1
  W6+  W77  1  0.36440641  0.88034353  0.36980539  1
  W6+  W78  1  0.11998521  0.86548300  0.37729086  1
  W6+  W79  1  0.62513347  0.12181919  0.12782106  1
  W6+  W80  1  0.91272384  0.04629251  0.23154275  1
  W6+  W81  1  0.43127425  0.64605737  0.88406703  1
  W6+  W82  1  0.91209852  0.11754652  0.41676782  1
  O2-  O83  1  0.09138401  0.01624302  0.13063848  1
  O2-  O84  1  0.13701170  -0.00276739  0.37169752  1
  O2-  O85  1  0.09938073  0.00202681  0.62976341  1
  O2-  O86  1  0.12990904  0.01246773  0.85620611  1
  O2-  O87  1  0.21582617  0.47564202  0.15601726  1
  O2-  O88  1  0.09679761  0.51565302  0.37138573  1
  O2-  O89  1  0.10967033  0.50724711  0.62493566  1
  O2-  O90  1  0.15356623  0.50450345  0.85794009  1
  O2-  O91  1  0.39577787  0.00592950  0.13659483  1
  O2-  O92  1  0.36103823  0.01563378  0.37241645  1
  O2-  O93  1  0.36542259  0.01433350  0.61903768  1
  O2-  O94  1  0.33270514  0.00378919  0.85428462  1
  O2-  O95  1  0.39784107  0.50972659  0.10886961  1
  O2-  O96  1  0.38816898  0.51290725  0.36073553  1
  O2-  O97  1  0.38176238  0.50454734  0.62787613  1
  O2-  O98  1  0.39193544  0.51346925  0.87945479  1
  O2-  O99  1  0.59844494  -0.00949754  0.12646620  1
  O2-  O100  1  0.64490481  -0.00210335  0.38688738  1
  O2-  O101  1  0.64053379  -0.00356342  0.62867138  1
  O2-  O102  1  0.63372859  -0.00531502  0.86965772  1
  O2-  O103  1  0.63619957  0.50294624  0.12675414  1
  O2-  O104  1  0.62460059  0.49648433  0.36863996  1
  O2-  O105  1  0.59255296  0.49111309  0.64688218  1
  O2-  O106  1  0.61946928  0.50838813  0.87567860  1
  O2-  O107  1  0.89878283  0.00183437  0.10891838  1
  O2-  O108  1  0.88072182  -0.01845505  0.39488320  1
  O2-  O109  1  0.89475912  -0.01729244  0.63173615  1
  O2-  O110  1  0.81809759  -0.04109593  0.87539818  1
  O2-  O111  1  0.83530774  0.48997217  0.13862112  1
  O2-  O112  1  0.89360970  0.49326314  0.39101046  1
  O2-  O113  1  0.91184535  0.49620776  0.63813149  1
  O2-  O114  1  0.81859242  0.48695769  0.89469582  1
  O2-  O115  1  0.14174597  0.25784552  0.13155026  1
  O2-  O116  1  0.13606156  0.25523933  0.38235261  1
  O2-  O117  1  0.14319705  0.26122666  0.60163890  1
  O2-  O118  1  0.16075485  0.26331718  0.86957999  1
  O2-  O119  1  0.12745964  0.76369967  0.09141574  1
  O2-  O120  1  0.09928801  0.72463650  0.36448980  1
  O2-  O121  1  0.13704113  0.75455530  0.63503098  1
  O2-  O122  1  0.10665756  0.74143732  0.89752664  1
  O2-  O123  1  0.38970233  0.25323999  0.10127058  1
  O2-  O124  1  0.33702409  0.26005943  0.37045324  1
  O2-  O125  1  0.41967544  0.26568880  0.62543429  1
  O2-  O126  1  0.40383215  0.25446026  0.88151611  1
  O2-  O127  1  0.31140843  0.76125915  0.11429192  1
  O2-  O128  1  0.40371552  0.73728090  0.37365326  1
  O2-  O129  1  0.39769598  0.75882769  0.62715448  1
  O2-  O130  1  0.32421792  0.78325962  0.85878932  1
  O2-  O131  1  0.66384885  0.25575465  0.12456080  1
  O2-  O132  1  0.66043745  0.24815742  0.38344705  1
  O2-  O133  1  0.60175905  0.25660147  0.64190568  1
  O2-  O134  1  0.59807857  0.25350803  0.86890909  1
  O2-  O135  1  0.60940155  0.75697162  0.14287399  1
  O2-  O136  1  0.59858664  0.75250534  0.37259918  1
  O2-  O137  1  0.58790649  0.75747650  0.61460415  1
  O2-  O138  1  0.66796825  0.74994817  0.89021530  1
  O2-  O139  1  0.84136143  0.25778369  0.14031064  1
  O2-  O140  1  0.93698341  0.24960646  0.39360930  1
  O2-  O141  1  0.90096082  0.23699936  0.64036047  1
  O2-  O142  1  0.80060277  0.27993927  0.87357713  1
  O2-  O143  1  0.89394320  0.73558832  0.14157112  1
  O2-  O144  1  0.89108867  0.73747366  0.37291167  1
  O2-  O145  1  0.88073692  0.72754612  0.64790760  1
  O2-  O146  1  0.84674619  0.73290215  0.88745940  1
  O2-  O147  1  0.11557816  0.13670134  -0.00765576  1
  O2-  O148  1  0.15885260  0.13896942  0.25550389  1
  O2-  O149  1  0.19870349  0.12854955  0.48333942  1
  O2-  O150  1  0.14189074  0.14747369  0.73959279  1
  O2-  O151  1  0.08560138  0.60107104  0.00040464  1
  O2-  O152  1  0.08684296  0.62990862  0.19931657  1
  O2-  O153  1  0.08470016  0.63500771  0.51787537  1
  O2-  O154  1  0.07462290  0.63373906  0.74575586  1
  O2-  O155  1  0.40393923  0.11602588  -0.00650451  1
  O2-  O156  1  0.35130963  0.15187689  0.24538173  1
  O2-  O157  1  0.39627486  0.15904757  0.49408796  1
  O2-  O158  1  0.34476286  0.15669987  0.74592060  1
  O2-  O159  1  0.42994303  0.67589603  0.02265399  1
  O2-  O160  1  0.38868158  0.64961750  0.22792780  1
  O2-  O161  1  0.40226150  0.63577247  0.50716474  1
  O2-  O162  1  0.43148894  0.63412864  0.73586214  1
  O2-  O163  1  0.61221078  0.13582920  -0.00904890  1
  O2-  O164  1  0.66065241  0.12823897  0.26054893  1
  O2-  O165  1  0.60399366  0.13855490  0.50676350  1
  O2-  O166  1  0.67209869  0.13636170  0.75209936  1
  O2-  O167  1  0.59626412  0.63015931  0.01121293  1
  O2-  O168  1  0.57403277  0.62546806  0.25400719  1
  O2-  O169  1  0.57885382  0.62568327  0.48240151  1
  O2-  O170  1  0.63014807  0.65776704  0.75803093  1
  O2-  O171  1  0.83610338  0.12303568  -0.04192789  1
  O2-  O172  1  0.83621235  0.12906765  0.30245672  1
  O2-  O173  1  0.82239214  0.11865913  0.52549696  1
  O2-  O174  1  0.84902048  0.11089396  0.75828710  1
  O2-  O175  1  0.89638234  0.61294981  0.01901412  1
  O2-  O176  1  0.90421461  0.60905804  0.26075596  1
  O2-  O177  1  0.89658524  0.62121682  0.50911229  1
  O2-  O178  1  0.83195245  0.61216070  0.76526181  1
  O2-  O179  1  0.13685393  0.39096041  -0.00182089  1
  O2-  O180  1  0.11230472  0.36635073  0.26012872  1
  O2-  O181  1  0.16968727  0.39515035  0.49597395  1
  O2-  O182  1  0.12408580  0.37013584  0.73939494  1
  O2-  O183  1  0.14098904  0.89176985  -0.01193244  1
  O2-  O184  1  0.09530604  0.84797326  0.23870606  1
  O2-  O185  1  0.10106537  0.86802294  0.51062421  1
  O2-  O186  1  0.08364509  0.86803203  0.75044518  1
  O2-  O187  1  0.33654692  0.38258802  -0.00670802  1
  O2-  O188  1  0.35431817  0.37394733  0.23447964  1
  O2-  O189  1  0.37580369  0.37961555  0.49448746  1
  O2-  O190  1  0.33806846  0.37192180  0.76280173  1
  O2-  O191  1  0.35197939  0.88778590  -0.00146279  1
  O2-  O192  1  0.39741784  0.85892423  0.23292423  1
  O2-  O193  1  0.39469909  0.87555874  0.50343935  1
  O2-  O194  1  0.41981880  0.88819816  0.73943789  1
  O2-  O195  1  0.66664791  0.36925307  -0.00237098  1
  O2-  O196  1  0.66076006  0.36911467  0.24808291  1
  O2-  O197  1  0.62143859  0.37085181  0.50608176  1
  O2-  O198  1  0.67587313  0.36888971  0.76380742  1
  O2-  O199  1  0.64258478  0.86911253  0.00966703  1
  O2-  O200  1  0.58822657  0.87783722  0.26243492  1
  O2-  O201  1  0.58514053  0.87836709  0.49971914  1
  O2-  O202  1  0.62785503  0.85366932  0.75134846  1
  O2-  O203  1  0.86327057  0.35791444  0.00725712  1
  O2-  O204  1  0.90029623  0.36120679  0.26807824  1
  O2-  O205  1  0.84139162  0.36539513  0.51823977  1
  O2-  O206  1  0.86842488  0.36845051  0.75053237  1
  O2-  O207  1  0.89873486  0.84289593  0.01162643  1
  O2-  O208  1  0.91325118  0.86392175  0.26588916  1
  O2-  O209  1  0.90932088  0.84523541  0.50787576  1
  O2-  O210  1  0.89594751  0.84963281  0.75643070  1
  O2-  O211  1  -0.02206521  -0.02394802  -0.09409776  1
  O2-  O212  1  0.00487487  0.11627904  0.31261511  1
  O2-  O213  1  0.03551566  0.11840425  0.48241642  1
  O2-  O214  1  -0.00834504  0.14061203  0.85407457  1
  O2-  O215  1  -0.02113788  0.57134528  -0.13234105  1
  O2-  O216  1  0.00237257  0.35510690  0.12189374  1
  O2-  O217  1  0.00361800  0.36561501  0.53150914  1
  O2-  O218  1  -0.00252742  0.37643923  0.87962721  1
  O2-  O219  1  0.25363012  0.11685811  0.10112285  1
  O2-  O220  1  0.22996385  -0.08918487  0.14517777  1
  O2-  O221  1  0.24515737  -0.16699059  0.33593980  1
  O2-  O222  1  0.24860569  -0.11453737  0.64032345  1
  O2-  O223  1  0.25093679  0.61575619  0.05167377  1
  O2-  O224  1  0.24127728  0.63663952  0.31560081  1
  O2-  O225  1  0.25292390  0.59669941  0.46932476  1
  O2-  O226  1  0.25260942  0.62173495  0.65881381  1
  O2-  O227  1  0.50016503  -0.14086270  -0.11074448  1
  O2-  O228  1  0.50628233  0.14390214  0.35922364  1
  O2-  O229  1  0.49927880  0.12303760  0.64921450  1
  O2-  O230  1  0.49520402  0.11059182  0.83965590  1
  O2-  O231  1  0.50329279  0.38201759  -0.04267010  1
  O2-  O232  1  0.50911054  0.36916689  0.13098634  1
  O2-  O233  1  0.50342724  0.34699557  0.36778399  1
  O2-  O234  1  0.50461390  0.38809580  0.79660394  1
  O2-  O235  1  0.76514349  -0.13051361  0.13196191  1
  O2-  O236  1  0.75077947  -0.13972067  0.30689468  1
  O2-  O237  1  0.74591985  -0.15075631  0.46443216  1
  O2-  O238  1  0.75992891  -0.15005681  0.64108270  1
  O2-  O239  1  0.74618873  0.65282935  0.06455283  1
  O2-  O240  1  0.73734476  0.62671904  0.21926136  1
  O2-  O241  1  0.74716574  0.62600105  0.39550878  1
  O2-  O242  1  0.74265126  0.60212087  0.60661724  1
