# generated using pymatgen
data_Gd19Ta56(WO20)8
_symmetry_space_group_name_H-M   'P 1'
_cell_length_a   15.51476999
_cell_length_b   15.47946966
_cell_length_c   15.36690472
_cell_angle_alpha   90.09579042
_cell_angle_beta   90.16571007
_cell_angle_gamma   90.20974438
_symmetry_Int_Tables_number   1
_chemical_formula_structural   Gd19Ta56(WO20)8
_chemical_formula_sum   'Gd19 Ta56 W8 O160'
_cell_volume   3690.47677184
_cell_formula_units_Z   1
loop_
 _symmetry_equiv_pos_site_id
 _symmetry_equiv_pos_as_xyz
  1  'x, y, z'
loop_
 _atom_type_symbol
 _atom_type_oxidation_number
  Gd3+  3.0
  Ta5+  5.0
  W6+  6.0
  O2-  -2.0
loop_
 _atom_site_type_symbol
 _atom_site_label
 _atom_site_symmetry_multiplicity
 _atom_site_fract_x
 _atom_site_fract_y
 _atom_site_fract_z
 _atom_site_occupancy
  Gd3+  Gd0  1  0.01028042  0.76758409  0.75322111  1
  Gd3+  Gd1  1  -0.00801532  0.26513957  0.74851156  1
  Gd3+  Gd2  1  -0.00063817  0.75887778  0.49350060  1
  Gd3+  Gd3  1  0.47738931  0.74191071  -0.01605265  1
  Gd3+  Gd4  1  0.74421826  0.25437053  0.22630779  1
  Gd3+  Gd5  1  0.27413440  0.74719925  0.76616356  1
  Gd3+  Gd6  1  0.76987628  0.24426754  -0.00257365  1
  Gd3+  Gd7  1  0.26663831  0.25819725  0.49579619  1
  Gd3+  Gd8  1  0.00924263  0.24315760  0.50898512  1
  Gd3+  Gd9  1  0.73443596  0.73895244  0.50128533  1
  Gd3+  Gd10  1  0.29897833  0.27051804  0.01694075  1
  Gd3+  Gd11  1  0.24811038  0.77026812  0.50720231  1
  Gd3+  Gd12  1  0.50567255  0.26865340  0.26250493  1
  Gd3+  Gd13  1  0.50846572  0.73693053  0.23880187  1
  Gd3+  Gd14  1  0.74692769  0.74360656  -0.02234863  1
  Gd3+  Gd15  1  0.74206571  0.72803508  0.24346053  1
  Gd3+  Gd16  1  0.01803306  0.24561735  -0.00637237  1
  Gd3+  Gd17  1  0.73183260  0.24402103  0.75120563  1
  Gd3+  Gd18  1  0.22945525  0.76263621  0.26987837  1
  Ta5+  Ta19  1  0.11264375  0.63808837  0.88215266  1
  Ta5+  Ta20  1  0.11546829  0.09315782  0.86881921  1
  Ta5+  Ta21  1  0.42140249  0.14965519  0.87305314  1
  Ta5+  Ta22  1  0.13551133  0.38753421  0.11250848  1
  Ta5+  Ta23  1  0.38087884  0.62689568  0.38340574  1
  Ta5+  Ta24  1  0.61181794  0.88325476  0.87384338  1
  Ta5+  Ta25  1  0.14825479  0.12282005  0.63378176  1
  Ta5+  Ta26  1  0.11664322  0.88292220  0.12767848  1
  Ta5+  Ta27  1  0.87253625  0.87294536  0.62621470  1
  Ta5+  Ta28  1  0.13163260  0.89707634  0.87960210  1
  Ta5+  Ta29  1  0.88316442  0.62260907  0.86373869  1
  Ta5+  Ta30  1  0.87115291  0.61633022  0.62891192  1
  Ta5+  Ta31  1  0.62109292  0.87841846  0.36892295  1
  Ta5+  Ta32  1  0.85686875  0.11408975  0.60939464  1
  Ta5+  Ta33  1  0.63520072  0.12657944  0.37320049  1
  Ta5+  Ta34  1  0.64022586  0.11540710  0.10942245  1
  Ta5+  Ta35  1  0.64786365  0.42136051  0.11967217  1
  Ta5+  Ta36  1  0.87777690  0.61827979  0.36962672  1
  Ta5+  Ta37  1  0.14539004  0.42815899  0.62693112  1
  Ta5+  Ta38  1  0.37095614  0.88328255  0.63008468  1
  Ta5+  Ta39  1  0.38984118  0.87872954  0.37175314  1
  Ta5+  Ta40  1  0.36950722  0.90341038  0.88335485  1
  Ta5+  Ta41  1  0.62896776  0.61832773  0.63921803  1
  Ta5+  Ta42  1  0.60354519  0.60511644  0.11202154  1
  Ta5+  Ta43  1  0.58878666  0.60947742  0.39057658  1
  Ta5+  Ta44  1  0.09304458  0.94294955  0.36981704  1
  Ta5+  Ta45  1  0.62781226  0.87325868  0.62576043  1
  Ta5+  Ta46  1  0.89776843  0.10917904  0.11827791  1
  Ta5+  Ta47  1  0.39713926  0.88698703  0.12647598  1
  Ta5+  Ta48  1  0.87469852  0.11188834  0.85862955  1
  Ta5+  Ta49  1  0.12577795  0.37244157  0.36166459  1
  Ta5+  Ta50  1  0.36966539  0.39096439  0.37528121  1
  Ta5+  Ta51  1  0.60502680  0.36831474  0.62685631  1
  Ta5+  Ta52  1  0.13290736  0.12459244  0.37088617  1
  Ta5+  Ta53  1  0.61752787  0.12173023  0.61589874  1
  Ta5+  Ta54  1  0.11425417  0.63249945  0.62394363  1
  Ta5+  Ta55  1  0.86434401  0.86962533  0.36682302  1
  Ta5+  Ta56  1  0.35501980  0.59733919  0.88152390  1
  Ta5+  Ta57  1  0.33281981  0.59885743  0.62127779  1
  Ta5+  Ta58  1  0.10616011  0.61389317  0.37489821  1
  Ta5+  Ta59  1  0.60233993  0.36576356  0.87972349  1
  Ta5+  Ta60  1  0.67296662  0.38123570  0.39923440  1
  Ta5+  Ta61  1  0.37815691  0.37711162  0.64036152  1
  Ta5+  Ta62  1  0.12665354  0.63288876  0.12397676  1
  Ta5+  Ta63  1  0.85842232  0.38694948  0.86435588  1
  Ta5+  Ta64  1  0.89094457  0.62485603  0.11672109  1
  Ta5+  Ta65  1  0.14671996  0.12993419  0.12544117  1
  Ta5+  Ta66  1  0.58683014  0.13270655  0.87346851  1
  Ta5+  Ta67  1  0.43554581  0.37463294  0.88148406  1
  Ta5+  Ta68  1  0.60892667  0.61084282  0.86717466  1
  Ta5+  Ta69  1  0.88136421  0.11233879  0.36870430  1
  Ta5+  Ta70  1  0.11538018  0.39029943  0.86292525  1
  Ta5+  Ta71  1  0.34363387  0.62768532  0.13075159  1
  Ta5+  Ta72  1  0.88060350  0.36906198  0.37487663  1
  Ta5+  Ta73  1  0.60773052  0.87767296  0.11866706  1
  Ta5+  Ta74  1  0.89401696  0.37937850  0.12989367  1
  W6+  W75  1  0.42366578  0.40515442  0.13405787  1
  W6+  W76  1  0.85413354  0.37010589  0.60051007  1
  W6+  W77  1  0.38954218  0.12735777  0.37394166  1
  W6+  W78  1  0.37442276  0.12900901  0.62869956  1
  W6+  W79  1  0.87211936  0.86407476  0.11397098  1
  W6+  W80  1  0.11377906  0.90029469  0.61808127  1
  W6+  W81  1  0.40020024  0.13589360  0.12985616  1
  W6+  W82  1  0.86086142  0.87897894  0.86042935  1
  O2-  O83  1  0.12997145  0.00821743  0.13206918  1
  O2-  O84  1  0.19622114  0.01778185  0.37234116  1
  O2-  O85  1  0.07672735  0.03023352  0.62287841  1
  O2-  O86  1  0.04304499  -0.00951743  0.88402229  1
  O2-  O87  1  0.14235574  0.50853074  0.11855486  1
  O2-  O88  1  0.09368840  0.48980041  0.38476186  1
  O2-  O89  1  0.06043517  0.51585573  0.64083332  1
  O2-  O90  1  0.10880008  0.51277206  0.85865156  1
  O2-  O91  1  0.38372770  0.00310302  0.12604630  1
  O2-  O92  1  0.40726755  -0.00509423  0.37115041  1
  O2-  O93  1  0.40385147  -0.00466873  0.62717598  1
  O2-  O94  1  0.38749953  0.01938206  0.88352429  1
  O2-  O95  1  0.34608508  0.50982460  0.14422063  1
  O2-  O96  1  0.33780321  0.51303961  0.37579439  1
  O2-  O97  1  0.40858322  0.50632391  0.61308039  1
  O2-  O98  1  0.42912488  0.50351521  0.87726602  1
  O2-  O99  1  0.64155353  -0.00716966  0.13816387  1
  O2-  O100  1  0.62686215  0.00004768  0.35993139  1
  O2-  O101  1  0.60806694  -0.00485282  0.61805863  1
  O2-  O102  1  0.60717825  0.00341960  0.87033635  1
  O2-  O103  1  0.70545368  0.53619007  0.10471779  1
  O2-  O104  1  0.63528139  0.49610245  0.36197520  1
  O2-  O105  1  0.61991969  0.49615896  0.64447449  1
  O2-  O106  1  0.62429013  0.49213022  0.86141329  1
  O2-  O107  1  0.91574582  -0.00672625  0.10159339  1
  O2-  O108  1  0.85346967  -0.01023282  0.38312404  1
  O2-  O109  1  0.87894064  -0.00602794  0.60408740  1
  O2-  O110  1  0.82494372  0.00866603  0.88581080  1
  O2-  O111  1  0.89935355  0.50253902  0.11112963  1
  O2-  O112  1  0.88224000  0.49928926  0.38083413  1
  O2-  O113  1  0.85221789  0.50304485  0.59946909  1
  O2-  O114  1  0.83329216  0.50380092  0.86873218  1
  O2-  O115  1  0.16165474  0.26344338  0.09889085  1
  O2-  O116  1  0.08499102  0.25492882  0.38140808  1
  O2-  O117  1  0.07651465  0.22421040  0.63914079  1
  O2-  O118  1  0.09617570  0.25664204  0.86559492  1
  O2-  O119  1  0.15417082  0.76184979  0.13832188  1
  O2-  O120  1  0.16215923  0.72689299  0.39507633  1
  O2-  O121  1  0.11025070  0.76012606  0.60202234  1
  O2-  O122  1  0.09316947  0.76726618  0.87874891  1
  O2-  O123  1  0.39394013  0.27461197  0.14256466  1
  O2-  O124  1  0.39308786  0.26536471  0.36918589  1
  O2-  O125  1  0.32942235  0.26086232  0.62732413  1
  O2-  O126  1  0.36322731  0.26754273  0.87950640  1
  O2-  O127  1  0.40826819  0.74562021  0.12909070  1
  O2-  O128  1  0.34219205  0.75101555  0.38444828  1
  O2-  O129  1  0.34756186  0.73051846  0.63175995  1
  O2-  O130  1  0.39301093  0.71788875  0.86018924  1
  O2-  O131  1  0.66731238  0.24134495  0.10077245  1
  O2-  O132  1  0.62884614  0.26647404  0.37053229  1
  O2-  O133  1  0.65980406  0.25421334  0.61314848  1
  O2-  O134  1  0.66087043  0.24272709  0.89086846  1
  O2-  O135  1  0.59068736  0.74010127  0.10937160  1
  O2-  O136  1  0.63542386  0.72861757  0.37949863  1
  O2-  O137  1  0.60870628  0.74653730  0.60391421  1
  O2-  O138  1  0.62032282  0.74377896  0.89084129  1
  O2-  O139  1  0.86552902  0.24955213  0.13273689  1
  O2-  O140  1  0.90008178  0.24388214  0.36705984  1
  O2-  O141  1  0.89609625  0.23919350  0.62092362  1
  O2-  O142  1  0.84662028  0.24475764  0.85661888  1
  O2-  O143  1  0.81170263  0.73144785  0.11484012  1
  O2-  O144  1  0.81553423  0.73916474  0.37023886  1
  O2-  O145  1  0.91788889  0.74553104  0.63171069  1
  O2-  O146  1  0.88874177  0.74498925  0.83996961  1
  O2-  O147  1  0.12305362  0.13583709  -0.01339973  1
  O2-  O148  1  0.13365720  0.14591807  0.24940702  1
  O2-  O149  1  0.15076581  0.15143525  0.50125935  1
  O2-  O150  1  0.16773539  0.12641238  0.75871789  1
  O2-  O151  1  0.09197649  0.63635130  0.00334692  1
  O2-  O152  1  0.14216082  0.62632353  0.25561174  1
  O2-  O153  1  0.07184295  0.62555441  0.50132111  1
  O2-  O154  1  0.13842900  0.66134276  0.74702110  1
  O2-  O155  1  0.38055492  0.15339877  -0.00049702  1
  O2-  O156  1  0.44644114  0.13567312  0.25510916  1
  O2-  O157  1  0.34224505  0.13693452  0.49662419  1
  O2-  O158  1  0.41307923  0.14597522  0.75246624  1
  O2-  O159  1  0.37570052  0.62603613  0.00524824  1
  O2-  O160  1  0.32960635  0.65140225  0.25869605  1
  O2-  O161  1  0.31210346  0.63296039  0.49695916  1
  O2-  O162  1  0.32628320  0.60183172  0.74656198  1
  O2-  O163  1  0.58133597  0.11492665  0.00442527  1
  O2-  O164  1  0.63180116  0.14978638  0.24289974  1
  O2-  O165  1  0.59169537  0.13059032  0.48704780  1
  O2-  O166  1  0.61905975  0.13968436  0.74147275  1
  O2-  O167  1  0.56475444  0.61220527  -0.01098661  1
  O2-  O168  1  0.62826419  0.63375007  0.24165125  1
  O2-  O169  1  0.65214238  0.61006316  0.50215009  1
  O2-  O170  1  0.57286341  0.63745542  0.74657692  1
  O2-  O171  1  0.90052355  0.14909898  -0.01518067  1
  O2-  O172  1  0.89029043  0.10877311  0.24423575  1
  O2-  O173  1  0.91515609  0.12754162  0.49383664  1
  O2-  O174  1  0.83302768  0.12007111  0.73699531  1
  O2-  O175  1  0.88030596  0.63714454  -0.00858310  1
  O2-  O176  1  0.84652560  0.61759740  0.24396608  1
  O2-  O177  1  0.87760963  0.65002796  0.49746879  1
  O2-  O178  1  0.92261121  0.60298735  0.74100246  1
  O2-  O179  1  0.15684030  0.38476098  -0.01897585  1
  O2-  O180  1  0.11955231  0.37475920  0.24111001  1
  O2-  O181  1  0.13983156  0.36614230  0.51732303  1
  O2-  O182  1  0.09932364  0.37220545  0.72808226  1
  O2-  O183  1  0.12231775  0.88109303  0.00568668  1
  O2-  O184  1  0.12799182  0.88270935  0.26652236  1
  O2-  O185  1  0.12588207  0.88742718  0.47480743  1
  O2-  O186  1  0.10824661  0.88204011  0.75479818  1
  O2-  O187  1  0.39345407  0.38275074  0.00299222  1
  O2-  O188  1  0.44652609  0.40356339  0.27910765  1
  O2-  O189  1  0.36026532  0.37915797  0.50086326  1
  O2-  O190  1  0.41490558  0.38036100  0.75561808  1
  O2-  O191  1  0.35222277  0.86473916  0.00413441  1
  O2-  O192  1  0.33937170  0.86576056  0.25152760  1
  O2-  O193  1  0.36526304  0.86829321  0.49788514  1
  O2-  O194  1  0.37578702  0.86751581  0.75655207  1
  O2-  O195  1  0.62284786  0.38387042  0.00818255  1
  O2-  O196  1  0.62053761  0.35827287  0.22369948  1
  O2-  O197  1  0.60982762  0.39353411  0.50209193  1
  O2-  O198  1  0.62405407  0.34776642  0.75155579  1
  O2-  O199  1  0.66150150  0.86972456  -0.00127925  1
  O2-  O200  1  0.65207928  0.84481625  0.24758463  1
  O2-  O201  1  0.65844647  0.86973877  0.48699379  1
  O2-  O202  1  0.62055524  0.86771376  0.75073693  1
  O2-  O203  1  0.86756048  0.35625239  -0.00740695  1
  O2-  O204  1  0.92503743  0.38049559  0.25066026  1
  O2-  O205  1  0.94310413  0.36820376  0.48607801  1
  O2-  O206  1  0.84238898  0.36440921  0.73857941  1
  O2-  O207  1  0.84619558  0.84580199  -0.01285126  1
  O2-  O208  1  0.84366646  0.85853051  0.24587926  1
  O2-  O209  1  0.86527998  0.83781907  0.49739587  1
  O2-  O210  1  0.92226998  0.88849928  0.73982611  1
  O2-  O211  1  0.01466007  0.15780992  0.11464229  1
  O2-  O212  1  0.02062083  0.05843046  0.37084420  1
  O2-  O213  1  -0.01159329  -0.14230667  0.37454646  1
  O2-  O214  1  -0.00648449  0.13172730  0.81789103  1
  O2-  O215  1  0.01416843  0.36112891  0.08792930  1
  O2-  O216  1  0.00058393  0.65788011  0.14806507  1
  O2-  O217  1  -0.00915380  0.66510755  0.35347725  1
  O2-  O218  1  -0.01532374  0.37850163  0.86424885  1
  O2-  O219  1  0.25283807  -0.14742986  -0.13338443  1
  O2-  O220  1  0.26586007  0.13592730  0.12196334  1
  O2-  O221  1  0.24656879  -0.13150779  0.63024224  1
  O2-  O222  1  0.20259362  0.00760470  0.88355193  1
  O2-  O223  1  0.23536964  0.64375575  -0.11001263  1
  O2-  O224  1  0.24580785  0.35771202  0.36705156  1
  O2-  O225  1  0.21495963  0.54999393  0.60729534  1
  O2-  O226  1  0.25895101  0.41169946  0.66917928  1
  O2-  O227  1  0.50287229  -0.12050017  0.04892363  1
  O2-  O228  1  0.50192888  -0.11778673  0.20580164  1
  O2-  O229  1  0.50295405  -0.17085596  0.37331626  1
  O2-  O230  1  0.48887871  -0.13615118  0.88358038  1
  O2-  O231  1  0.53835918  0.49894512  0.13398415  1
  O2-  O232  1  0.48378851  0.60863601  0.30842475  1
  O2-  O233  1  0.48482037  0.62554461  0.46279668  1
  O2-  O234  1  0.49334419  0.33119319  0.61438605  1
  O2-  O235  1  0.76992242  0.11034254  0.10192664  1
  O2-  O236  1  0.75988442  0.13954326  0.37255792  1
  O2-  O237  1  0.73990557  0.10943513  0.58620359  1
  O2-  O238  1  0.75233876  -0.14825109  0.63059161  1
  O2-  O239  1  0.76781316  0.38191583  0.13550294  1
  O2-  O240  1  0.76954100  0.36935723  0.31127078  1
  O2-  O241  1  0.77873130  0.36807753  0.46919918  1
  O2-  O242  1  0.75263322  0.65150582  0.64263853  1
