# generated using pymatgen
data_Gd19Ta56(WO20)8
_symmetry_space_group_name_H-M   'P 1'
_cell_length_a   15.55336999
_cell_length_b   15.39633820
_cell_length_c   15.25439716
_cell_angle_alpha   90.09718195
_cell_angle_beta   90.20882035
_cell_angle_gamma   90.23690445
_symmetry_Int_Tables_number   1
_chemical_formula_structural   Gd19Ta56(WO20)8
_chemical_formula_sum   'Gd19 Ta56 W8 O160'
_cell_volume   3652.83253544
_cell_formula_units_Z   1
loop_
 _symmetry_equiv_pos_site_id
 _symmetry_equiv_pos_as_xyz
  1  'x, y, z'
loop_
 _atom_type_symbol
 _atom_type_oxidation_number
  Gd3+  3.0
  Ta5+  5.0
  W6+  6.0
  O2-  -2.0
loop_
 _atom_site_type_symbol
 _atom_site_label
 _atom_site_symmetry_multiplicity
 _atom_site_fract_x
 _atom_site_fract_y
 _atom_site_fract_z
 _atom_site_occupancy
  Gd3+  Gd0  1  0.47947552  0.27091238  0.75723144  1
  Gd3+  Gd1  1  0.77261969  0.26482348  0.72929355  1
  Gd3+  Gd2  1  0.48640255  0.74953046  0.70846004  1
  Gd3+  Gd3  1  -0.03125480  0.74829207  0.54733231  1
  Gd3+  Gd4  1  0.73649701  0.73728152  0.00397803  1
  Gd3+  Gd5  1  0.27077651  0.26132382  0.45058610  1
  Gd3+  Gd6  1  0.47671533  0.24647981  0.00214818  1
  Gd3+  Gd7  1  -0.00490210  0.22110362  0.24340762  1
  Gd3+  Gd8  1  0.01452038  0.26795379  0.75608272  1
  Gd3+  Gd9  1  0.73842763  0.23165158  0.49930098  1
  Gd3+  Gd10  1  0.76398963  0.22173995  0.27335176  1
  Gd3+  Gd11  1  0.29785776  0.77158481  0.10328404  1
  Gd3+  Gd12  1  0.25955587  0.75204157  0.73742997  1
  Gd3+  Gd13  1  -0.00761507  0.76423175  0.27065045  1
  Gd3+  Gd14  1  -0.00142673  0.25453881  0.00903437  1
  Gd3+  Gd15  1  0.75587793  0.74244572  0.78530082  1
  Gd3+  Gd16  1  0.05265202  0.74277188  0.04189200  1
  Gd3+  Gd17  1  -0.04114399  0.24333530  0.47144780  1
  Gd3+  Gd18  1  0.72859659  0.24552471  0.02729590  1
  Ta5+  Ta19  1  0.35353068  0.87778388  0.55925109  1
  Ta5+  Ta20  1  0.68430376  0.86769211  0.38202695  1
  Ta5+  Ta21  1  0.66828407  0.87077813  0.63420846  1
  Ta5+  Ta22  1  0.90088277  0.88407025  0.88438464  1
  Ta5+  Ta23  1  0.34167665  0.10011476  0.11516949  1
  Ta5+  Ta24  1  0.87191724  0.10778102  0.11930397  1
  Ta5+  Ta25  1  0.82916743  0.61771196  0.64116564  1
  Ta5+  Ta26  1  0.60819240  0.37111274  0.37731093  1
  Ta5+  Ta27  1  0.62231520  0.10050348  0.18592841  1
  Ta5+  Ta28  1  0.35697162  0.63173204  0.54358019  1
  Ta5+  Ta29  1  0.90784074  0.62315197  0.87979291  1
  Ta5+  Ta30  1  0.38415200  0.38521573  0.59444270  1
  Ta5+  Ta31  1  0.37258466  0.12522990  0.59827369  1
  Ta5+  Ta32  1  0.33414755  0.43095655  0.09143509  1
  Ta5+  Ta33  1  0.35904698  0.12124579  0.86194708  1
  Ta5+  Ta34  1  0.10537723  0.62265312  0.83840848  1
  Ta5+  Ta35  1  0.89402634  0.10743516  0.64126498  1
  Ta5+  Ta36  1  0.39296486  0.88219521  0.90038227  1
  Ta5+  Ta37  1  0.66303882  0.62670879  0.62729449  1
  Ta5+  Ta38  1  0.46155393  0.64854833  0.10517595  1
  Ta5+  Ta39  1  0.40358853  0.38510195  0.32179746  1
  Ta5+  Ta40  1  0.61089342  0.11505676  0.85884730  1
  Ta5+  Ta41  1  0.86382491  0.04665191  0.45116503  1
  Ta5+  Ta42  1  0.08283681  0.38799170  0.58996360  1
  Ta5+  Ta43  1  0.47442480  0.89338954  0.36829275  1
  Ta5+  Ta44  1  0.60791722  0.11060997  0.63105653  1
  Ta5+  Ta45  1  0.85185093  0.64452393  0.38923340  1
  Ta5+  Ta46  1  0.62813542  0.38777061  0.61894980  1
  Ta5+  Ta47  1  0.12998412  0.10821291  0.11442372  1
  Ta5+  Ta48  1  0.60105613  0.61208084  0.88599064  1
  Ta5+  Ta49  1  0.85274198  0.63409013  0.13624612  1
  Ta5+  Ta50  1  0.13978927  0.92649426  0.17198410  1
  Ta5+  Ta51  1  0.60078381  0.87271631  0.88548776  1
  Ta5+  Ta52  1  0.09821623  0.40776311  0.14569781  1
  Ta5+  Ta53  1  0.84949608  0.86702763  0.39224986  1
  Ta5+  Ta54  1  0.15895651  0.38700358  0.90471689  1
  Ta5+  Ta55  1  0.84684335  0.38919321  0.90638920  1
  Ta5+  Ta56  1  0.61139684  0.09385303  0.38212848  1
  Ta5+  Ta57  1  0.15690583  0.59775325  0.16295865  1
  Ta5+  Ta58  1  0.86451595  0.38591304  0.15414818  1
  Ta5+  Ta59  1  0.65300824  0.38018189  0.86648725  1
  Ta5+  Ta60  1  0.49458282  0.90149307  0.11774706  1
  Ta5+  Ta61  1  0.09910088  0.87638001  0.84375033  1
  Ta5+  Ta62  1  0.14866271  0.63072511  0.39472914  1
  Ta5+  Ta63  1  0.39535755  0.64029299  0.89983300  1
  Ta5+  Ta64  1  0.84675363  0.86230728  0.13180470  1
  Ta5+  Ta65  1  0.61874908  0.36614280  0.17410289  1
  Ta5+  Ta66  1  0.92833680  0.41449729  0.35499170  1
  Ta5+  Ta67  1  0.08856943  0.12705277  0.60039516  1
  Ta5+  Ta68  1  0.14244306  0.88311057  0.60253080  1
  Ta5+  Ta69  1  0.15338350  0.62489900  0.59866095  1
  Ta5+  Ta70  1  0.83425145  0.87820928  0.64700114  1
  Ta5+  Ta71  1  0.87209926  0.39630330  0.57082737  1
  Ta5+  Ta72  1  0.40179666  0.11993817  0.34049929  1
  Ta5+  Ta73  1  0.66887808  0.88133655  0.13320596  1
  Ta5+  Ta74  1  0.09130237  0.39267238  0.37868058  1
  W6+  W75  1  0.81449664  0.12251824  0.87513692  1
  W6+  W76  1  0.35294592  0.39465726  0.86935108  1
  W6+  W77  1  0.63886096  0.62144261  0.37613189  1
  W6+  W78  1  0.43438742  0.64364504  0.32827964  1
  W6+  W79  1  0.11627335  0.12643929  0.86199436  1
  W6+  W80  1  0.62202610  0.62112706  0.13908469  1
  W6+  W81  1  0.14158934  0.88638151  0.39567891  1
  W6+  W82  1  0.13466123  0.12274049  0.37571285  1
  O2-  O83  1  0.06530976  -0.01218354  0.10420196  1
  O2-  O84  1  0.18242816  -0.00140829  0.36586006  1
  O2-  O85  1  0.11067604  0.00206618  0.60955582  1
  O2-  O86  1  0.12867308  -0.01188847  0.87146817  1
  O2-  O87  1  0.06062793  0.52822663  0.12554870  1
  O2-  O88  1  0.09315942  0.52149996  0.39012313  1
  O2-  O89  1  0.12802470  0.50500988  0.59012497  1
  O2-  O90  1  0.13026563  0.50608625  0.87481973  1
  O2-  O91  1  0.40554607  -0.00655059  0.11053769  1
  O2-  O92  1  0.40053591  -0.00759577  0.37087873  1
  O2-  O93  1  0.33926143  0.00934873  0.59969424  1
  O2-  O94  1  0.36938648  -0.00904747  0.84835919  1
  O2-  O95  1  0.39668848  0.53072980  0.10150975  1
  O2-  O96  1  0.41427949  0.50352255  0.31921723  1
  O2-  O97  1  0.35282020  0.50152434  0.57808292  1
  O2-  O98  1  0.33895418  0.53985325  0.87188518  1
  O2-  O99  1  0.59005306  0.00209545  0.11143398  1
  O2-  O100  1  0.58249610  -0.03388593  0.38715311  1
  O2-  O101  1  0.63897240  -0.00182621  0.65683081  1
  O2-  O102  1  0.60556818  -0.00451334  0.85425398  1
  O2-  O103  1  0.60801223  0.48206472  0.15447223  1
  O2-  O104  1  0.60381842  0.48918550  0.38651399  1
  O2-  O105  1  0.61316080  0.50348586  0.63651099  1
  O2-  O106  1  0.58849473  0.48139999  0.87358063  1
  O2-  O107  1  0.86559190  -0.01337153  0.11936076  1
  O2-  O108  1  0.94241816  -0.02808932  0.39940748  1
  O2-  O109  1  0.89708981  -0.00995352  0.66388525  1
  O2-  O110  1  0.88035759  0.00224906  0.89210820  1
  O2-  O111  1  0.84286300  0.51068097  0.15137965  1
  O2-  O112  1  0.88952159  0.52896192  0.37962055  1
  O2-  O113  1  0.88704666  0.50643301  0.61840311  1
  O2-  O114  1  0.90187205  0.49560708  0.88938075  1
  O2-  O115  1  0.07614741  0.28231409  0.13910030  1
  O2-  O116  1  0.07158204  0.25461086  0.37472812  1
  O2-  O117  1  0.05159026  0.25600622  0.59073304  1
  O2-  O118  1  0.10299258  0.27311964  0.87829336  1
  O2-  O119  1  0.07707960  0.68957105  0.18256227  1
  O2-  O120  1  0.11663027  0.74655590  0.36571189  1
  O2-  O121  1  0.17630181  0.75366247  0.61088037  1
  O2-  O122  1  0.14845818  0.74634537  0.85593512  1
  O2-  O123  1  0.42943049  0.18263695  0.12255835  1
  O2-  O124  1  0.39101299  0.24563742  0.33454975  1
  O2-  O125  1  0.33715519  0.26274414  0.58455955  1
  O2-  O126  1  0.38960227  0.25212354  0.87113197  1
  O2-  O127  1  0.46792096  0.78036247  0.09518476  1
  O2-  O128  1  0.44374553  0.77730386  0.35943256  1
  O2-  O129  1  0.34182796  0.75814086  0.52540959  1
  O2-  O130  1  0.35363397  0.75488910  0.85305170  1
  O2-  O131  1  0.62472149  0.22470609  0.19535403  1
  O2-  O132  1  0.64570364  0.22494430  0.37763665  1
  O2-  O133  1  0.66647498  0.22640832  0.62744169  1
  O2-  O134  1  0.59073389  0.26966671  0.88486247  1
  O2-  O135  1  0.65438216  0.75518649  0.12703718  1
  O2-  O136  1  0.65953926  0.75174978  0.36996046  1
  O2-  O137  1  0.61590676  0.74629647  0.63791778  1
  O2-  O138  1  0.62142570  0.74190129  0.90153717  1
  O2-  O139  1  0.88368834  0.25664419  0.13083220  1
  O2-  O140  1  0.84093797  0.17015693  0.40940059  1
  O2-  O141  1  0.86779862  0.25601543  0.59860399  1
  O2-  O142  1  0.77609752  0.26249526  0.88287187  1
  O2-  O143  1  0.92421719  0.74820813  0.12077206  1
  O2-  O144  1  0.92720884  0.75376918  0.40282524  1
  O2-  O145  1  0.86149434  0.74635986  0.66655896  1
  O2-  O146  1  0.88462225  0.74612686  0.87017976  1
  O2-  O147  1  0.10391495  0.14454372  -0.00324921  1
  O2-  O148  1  0.10664655  0.12360216  0.23850407  1
  O2-  O149  1  0.17157776  0.15422408  0.51363955  1
  O2-  O150  1  0.10295670  0.14863431  0.72175255  1
  O2-  O151  1  0.19868730  0.66219446  0.06764282  1
  O2-  O152  1  0.20403628  0.60545540  0.28050813  1
  O2-  O153  1  0.07225208  0.65181963  0.50558681  1
  O2-  O154  1  0.17831781  0.62282613  0.72921230  1
  O2-  O155  1  0.34197204  0.11155151  -0.01507154  1
  O2-  O156  1  0.32846858  0.10090976  0.24866476  1
  O2-  O157  1  0.35677256  0.13728059  0.46418794  1
  O2-  O158  1  0.38279324  0.15004891  0.72233563  1
  O2-  O159  1  0.35971805  0.67704794  0.01388822  1
  O2-  O160  1  0.38605634  0.67442811  0.20047340  1
  O2-  O161  1  0.44815832  0.61990342  0.46928928  1
  O2-  O162  1  0.37096812  0.66167675  0.66610297  1
  O2-  O163  1  0.49467338  0.12671070  -0.09666414  1
  O2-  O164  1  0.69472338  0.07992188  0.28872357  1
  O2-  O165  1  0.63819411  0.10459750  0.50276586  1
  O2-  O166  1  0.55544281  0.14766891  0.74045619  1
  O2-  O167  1  0.66653622  0.60501298  -0.00605180  1
  O2-  O168  1  0.56407242  0.63338625  0.27047657  1
  O2-  O169  1  0.65970088  0.62533644  0.50482948  1
  O2-  O170  1  0.65467707  0.62402376  0.77231253  1
  O2-  O171  1  0.86754599  0.15789655  -0.00187536  1
  O2-  O172  1  0.87746259  0.12868284  0.24302227  1
  O2-  O173  1  0.79841727  0.09888055  0.55985659  1
  O2-  O174  1  0.89353465  0.16522619  0.75715558  1
  O2-  O175  1  0.85477999  0.63211905  0.00256698  1
  O2-  O176  1  0.86764004  0.66029419  0.25975544  1
  O2-  O177  1  0.85466831  0.64925972  0.51718420  1
  O2-  O178  1  0.83230359  0.60950976  0.77796905  1
  O2-  O179  1  0.08382611  0.38692329  0.01469189  1
  O2-  O180  1  0.14160174  0.39235614  0.26565468  1
  O2-  O181  1  0.16588906  0.35580469  0.49276234  1
  O2-  O182  1  0.06667367  0.39134605  0.71093911  1
  O2-  O183  1  0.16162530  0.83134887  0.10013853  1
  O2-  O184  1  0.07434940  0.88913513  0.27154377  1
  O2-  O185  1  0.06522183  0.85289058  0.50820880  1
  O2-  O186  1  0.17270604  0.87362353  0.73161068  1
  O2-  O187  1  0.41130695  0.37584660  0.00877802  1
  O2-  O188  1  0.35290332  0.37442966  0.20015362  1
  O2-  O189  1  0.37272698  0.37479881  0.44607895  1
  O2-  O190  1  0.38928517  0.38306676  0.71977291  1
  O2-  O191  1  0.31441871  0.86201369  -0.00994316  1
  O2-  O192  1  0.48850284  0.90184073  0.24084625  1
  O2-  O193  1  0.45867440  0.89606827  0.50546385  1
  O2-  O194  1  0.36918391  0.84397868  0.67771774  1
  O2-  O195  1  0.58926086  0.31906950  0.06221099  1
  O2-  O196  1  0.69214117  0.36445154  0.29020971  1
  O2-  O197  1  0.64551763  0.35118711  0.49591128  1
  O2-  O198  1  0.61321331  0.34648963  0.73935493  1
  O2-  O199  1  0.66866349  0.88204853  -0.00926976  1
  O2-  O200  1  0.67777984  0.89553860  0.25578332  1
  O2-  O201  1  0.66297811  0.87348308  0.51294876  1
  O2-  O202  1  0.65023313  0.84939723  0.77069553  1
  O2-  O203  1  0.89119272  0.38497863  0.02891482  1
  O2-  O204  1  0.86539627  0.32699906  0.28150988  1
  O2-  O205  1  0.84056537  0.35521772  0.44863597  1
  O2-  O206  1  0.93807454  0.31583780  0.87321393  1
  O2-  O207  1  0.85047371  0.85318461  -0.00232709  1
  O2-  O208  1  0.87071501  0.85572891  0.25989666  1
  O2-  O209  1  0.86288308  0.85183295  0.52506378  1
  O2-  O210  1  0.82292834  0.87723844  0.78399579  1
  O2-  O211  1  0.02281910  -0.14852634  -0.05401385  1
  O2-  O212  1  -0.00565261  0.13409454  0.11476192  1
  O2-  O213  1  -0.02624272  0.10491070  0.52982204  1
  O2-  O214  1  -0.00425969  -0.11784085  0.78514334  1
  O2-  O215  1  0.02698783  0.63935641  -0.05750328  1
  O2-  O216  1  -0.02155224  0.41076166  0.21134871  1
  O2-  O217  1  -0.00856482  0.40045853  0.49290053  1
  O2-  O218  1  0.00281914  0.61940412  0.77974128  1
  O2-  O219  1  0.23499710  0.17359569  0.11255613  1
  O2-  O220  1  0.22476065  0.01223955  0.13761186  1
  O2-  O221  1  0.23274732  -0.10383550  0.51429329  1
  O2-  O222  1  0.24641812  0.13450488  0.83409138  1
  O2-  O223  1  0.25550167  0.40027672  -0.01788922  1
  O2-  O224  1  0.21428722  0.47393586  0.12993169  1
  O2-  O225  1  0.23873104  0.61766376  0.48891157  1
  O2-  O226  1  0.23401709  0.36820500  0.81120325  1
  O2-  O227  1  0.49281221  -0.09224170  -0.02919776  1
  O2-  O228  1  0.51840799  0.10680743  0.28536218  1
  O2-  O229  1  0.49210334  0.11318496  0.58358197  1
  O2-  O230  1  0.48928108  -0.15747903  0.82160309  1
  O2-  O231  1  0.49652746  0.61030176  -0.02559321  1
  O2-  O232  1  0.52165300  0.35584117  0.27462145  1
  O2-  O233  1  0.50331997  0.35804091  0.59210636  1
  O2-  O234  1  0.49034495  0.64618736  0.81409961  1
  O2-  O235  1  0.69136887  0.12217040  -0.04701357  1
  O2-  O236  1  0.74142998  0.12745771  0.12865780  1
  O2-  O237  1  0.76661348  -0.02011680  0.40989057  1
  O2-  O238  1  0.71396755  0.13190662  0.77664960  1
  O2-  O239  1  0.72715694  0.39490386  -0.03271287  1
  O2-  O240  1  0.74208737  0.35032988  0.14090738  1
  O2-  O241  1  0.75490916  0.38131724  0.62304653  1
  O2-  O242  1  0.76131170  0.40509847  0.80358503  1
