# generated using pymatgen
data_Gd19Ta56(WO20)8
_symmetry_space_group_name_H-M   'P 1'
_cell_length_a   15.50620624
_cell_length_b   15.45042649
_cell_length_c   15.36642506
_cell_angle_alpha   89.94504809
_cell_angle_beta   89.94146427
_cell_angle_gamma   89.92989777
_symmetry_Int_Tables_number   1
_chemical_formula_structural   Gd19Ta56(WO20)8
_chemical_formula_sum   'Gd19 Ta56 W8 O160'
_cell_volume   3681.44333082
_cell_formula_units_Z   1
loop_
 _symmetry_equiv_pos_site_id
 _symmetry_equiv_pos_as_xyz
  1  'x, y, z'
loop_
 _atom_type_symbol
 _atom_type_oxidation_number
  Gd3+  3.0
  Ta5+  5.0
  W6+  6.0
  O2-  -2.0
loop_
 _atom_site_type_symbol
 _atom_site_label
 _atom_site_symmetry_multiplicity
 _atom_site_fract_x
 _atom_site_fract_y
 _atom_site_fract_z
 _atom_site_occupancy
  Gd3+  Gd0  1  -0.00651349  0.74047090  0.27015846  1
  Gd3+  Gd1  1  0.51511629  0.75517708  0.00635685  1
  Gd3+  Gd2  1  -0.01265110  0.74391199  0.74974698  1
  Gd3+  Gd3  1  0.24445406  0.74784463  0.00010371  1
  Gd3+  Gd4  1  0.21424937  0.25871389  0.73811438  1
  Gd3+  Gd5  1  0.50894694  0.77107562  0.25013929  1
  Gd3+  Gd6  1  -0.00128680  0.73700097  0.51236462  1
  Gd3+  Gd7  1  0.22701351  0.74762378  0.52178905  1
  Gd3+  Gd8  1  0.51824337  0.74745128  0.48961042  1
  Gd3+  Gd9  1  0.47017677  0.22782009  0.24732667  1
  Gd3+  Gd10  1  0.03916873  0.23490477  0.26053810  1
  Gd3+  Gd11  1  0.77892594  0.27254319  -0.00112165  1
  Gd3+  Gd12  1  0.51266671  0.76275769  0.74074928  1
  Gd3+  Gd13  1  0.44995983  0.22930075  0.51348124  1
  Gd3+  Gd14  1  0.22196963  0.26557715  -0.01110516  1
  Gd3+  Gd15  1  0.74513309  0.74200535  0.23459530  1
  Gd3+  Gd16  1  0.22495357  0.74690397  0.74837837  1
  Gd3+  Gd17  1  0.78782981  0.26216719  0.26027721  1
  Gd3+  Gd18  1  0.75384555  0.76325723  -0.00030800  1
  Ta5+  Ta19  1  0.15248381  0.12427847  0.11944110  1
  Ta5+  Ta20  1  0.36883385  0.36972596  0.11974560  1
  Ta5+  Ta21  1  0.14619124  0.88606707  0.35204500  1
  Ta5+  Ta22  1  0.33463254  0.10787620  0.36858158  1
  Ta5+  Ta23  1  0.64043770  0.14952199  0.62606978  1
  Ta5+  Ta24  1  0.39292458  0.60872567  0.35751114  1
  Ta5+  Ta25  1  0.63959339  0.15188668  0.38326996  1
  Ta5+  Ta26  1  0.07976190  0.13450577  0.60939707  1
  Ta5+  Ta27  1  0.35930094  0.12677751  0.87012203  1
  Ta5+  Ta28  1  0.37249691  0.90000525  0.88324948  1
  Ta5+  Ta29  1  0.62542870  0.90851404  0.12705253  1
  Ta5+  Ta30  1  0.89138462  0.56511780  0.88428711  1
  Ta5+  Ta31  1  0.62520839  0.89784824  0.87325655  1
  Ta5+  Ta32  1  0.64516031  0.59098377  0.37985755  1
  Ta5+  Ta33  1  0.34413138  0.36358027  0.36606276  1
  Ta5+  Ta34  1  0.08420861  0.14219578  0.86936466  1
  Ta5+  Ta35  1  0.89840959  0.12904695  0.12723225  1
  Ta5+  Ta36  1  0.60386598  0.37766826  0.86656779  1
  Ta5+  Ta37  1  0.61795574  0.61041812  0.12619739  1
  Ta5+  Ta38  1  0.60503696  0.14500469  0.87397739  1
  Ta5+  Ta39  1  0.17358215  0.37228045  0.36447368  1
  Ta5+  Ta40  1  0.09971660  0.37974752  0.11805386  1
  Ta5+  Ta41  1  0.62004547  0.89773190  0.61840865  1
  Ta5+  Ta42  1  0.37561212  0.88483402  0.13149435  1
  Ta5+  Ta43  1  0.37263293  0.61019196  0.64606335  1
  Ta5+  Ta44  1  0.34656853  0.87088569  0.37345563  1
  Ta5+  Ta45  1  0.93080081  0.37466207  0.11695023  1
  Ta5+  Ta46  1  0.36801217  0.60243628  0.89529872  1
  Ta5+  Ta47  1  0.88236173  0.88239133  0.12842731  1
  Ta5+  Ta48  1  0.32416737  0.12119537  0.12209481  1
  Ta5+  Ta49  1  0.87061448  0.61569941  0.11421196  1
  Ta5+  Ta50  1  0.85080805  0.60770007  0.38327566  1
  Ta5+  Ta51  1  0.85361920  0.60828078  0.63583309  1
  Ta5+  Ta52  1  0.60778031  0.35168116  0.37622174  1
  Ta5+  Ta53  1  0.91732153  0.36841998  0.85458168  1
  Ta5+  Ta54  1  0.91840514  0.14870164  0.87634135  1
  Ta5+  Ta55  1  0.09611657  0.38560038  0.60136943  1
  Ta5+  Ta56  1  0.91885637  0.38153795  0.38307315  1
  Ta5+  Ta57  1  0.12555466  0.87575276  0.11874101  1
  Ta5+  Ta58  1  0.12507418  0.93232128  0.63895112  1
  Ta5+  Ta59  1  0.37442672  0.61893154  0.14876401  1
  Ta5+  Ta60  1  0.08282182  0.38043982  0.86023535  1
  Ta5+  Ta61  1  0.36247946  0.37799340  0.86347283  1
  Ta5+  Ta62  1  0.64170394  0.36124647  0.62046880  1
  Ta5+  Ta63  1  0.85743392  0.87928888  0.38881681  1
  Ta5+  Ta64  1  0.87433259  0.90156519  0.87278001  1
  Ta5+  Ta65  1  0.65249121  0.90138499  0.38072170  1
  Ta5+  Ta66  1  0.10889254  0.62204179  0.13187979  1
  Ta5+  Ta67  1  0.37070569  0.87686837  0.62839650  1
  Ta5+  Ta68  1  0.90725992  0.11836833  0.62878871  1
  Ta5+  Ta69  1  0.30108790  0.10923797  0.62058748  1
  Ta5+  Ta70  1  0.60841085  0.36216151  0.11891145  1
  Ta5+  Ta71  1  0.16817157  0.12084367  0.37896436  1
  Ta5+  Ta72  1  0.09067724  0.58186404  0.89654525  1
  Ta5+  Ta73  1  0.85628139  0.87864183  0.62249064  1
  Ta5+  Ta74  1  0.11452812  0.89416459  0.87243118  1
  W6+  W75  1  0.19359001  0.62185484  0.35814987  1
  W6+  W76  1  0.92106721  0.12699789  0.39319478  1
  W6+  W77  1  0.62015606  0.62699688  0.87049018  1
  W6+  W78  1  0.84567999  0.35480431  0.61552052  1
  W6+  W79  1  0.32464043  0.37851199  0.61190124  1
  W6+  W80  1  0.12992687  0.57142682  0.60664726  1
  W6+  W81  1  0.61381808  0.61588439  0.62333724  1
  W6+  W82  1  0.65812614  0.15525917  0.12152477  1
  O2-  O83  1  0.13726482  -0.00578017  0.11832848  1
  O2-  O84  1  0.11093188  -0.00137833  0.36485388  1
  O2-  O85  1  0.19683330  0.03421004  0.63008536  1
  O2-  O86  1  0.10848680  0.01095012  0.86363503  1
  O2-  O87  1  0.13403760  0.50373391  0.12647423  1
  O2-  O88  1  0.18652703  0.49175642  0.34784555  1
  O2-  O89  1  0.20231754  0.45067194  0.61629116  1
  O2-  O90  1  0.15990232  0.49492715  0.85283879  1
  O2-  O91  1  0.36752865  0.00144958  0.09602011  1
  O2-  O92  1  0.37934895  -0.01505289  0.39384408  1
  O2-  O93  1  0.36232366  -0.00231278  0.62090546  1
  O2-  O94  1  0.32272866  0.00838814  0.89924603  1
  O2-  O95  1  0.36771737  0.49605306  0.12969249  1
  O2-  O96  1  0.37538166  0.49057422  0.36633644  1
  O2-  O97  1  0.36136553  0.50639309  0.59092355  1
  O2-  O98  1  0.32786286  0.48893992  0.90854412  1
  O2-  O99  1  0.62562313  0.02290563  0.10552047  1
  O2-  O100  1  0.64271172  0.02391265  0.37789757  1
  O2-  O101  1  0.63145682  0.02113446  0.62257405  1
  O2-  O102  1  0.63629154  0.01754743  0.88483256  1
  O2-  O103  1  0.61740511  0.48858649  0.12326751  1
  O2-  O104  1  0.60056397  0.47374713  0.36786044  1
  O2-  O105  1  0.62450103  0.47820862  0.62060467  1
  O2-  O106  1  0.62574281  0.49453861  0.87903701  1
  O2-  O107  1  0.87354921  0.00446830  0.13189442  1
  O2-  O108  1  0.89574130  -0.00951480  0.37826176  1
  O2-  O109  1  0.85374803  0.00015956  0.62064903  1
  O2-  O110  1  0.88839896  0.01667287  0.87993551  1
  O2-  O111  1  0.89584083  0.49862646  0.12168478  1
  O2-  O112  1  0.92773517  0.50907038  0.37287681  1
  O2-  O113  1  0.84255997  0.49142192  0.63020598  1
  O2-  O114  1  0.82423237  0.46866226  0.88093590  1
  O2-  O115  1  0.13819686  0.25669288  0.11618182  1
  O2-  O116  1  0.14168419  0.24273381  0.37056951  1
  O2-  O117  1  0.08035059  0.25663175  0.59865898  1
  O2-  O118  1  0.13885708  0.26199427  0.86719470  1
  O2-  O119  1  0.15697678  0.73829953  0.12235073  1
  O2-  O120  1  0.07095253  0.79590260  0.39018468  1
  O2-  O121  1  0.06927532  0.69075707  0.64229835  1
  O2-  O122  1  0.23586678  0.85422343  0.86094463  1
  O2-  O123  1  0.36833883  0.23802316  0.13205491  1
  O2-  O124  1  0.37668754  0.23175847  0.36745432  1
  O2-  O125  1  0.31988013  0.23718395  0.62904839  1
  O2-  O126  1  0.32453611  0.25229030  0.85419865  1
  O2-  O127  1  0.38756569  0.75157295  0.14323439  1
  O2-  O128  1  0.41039758  0.76098399  0.36080761  1
  O2-  O129  1  0.37380553  0.74569956  0.67456855  1
  O2-  O130  1  0.28524068  0.68759674  0.86562243  1
  O2-  O131  1  0.70800746  0.28880013  0.13772912  1
  O2-  O132  1  0.54461895  0.23704608  0.39244205  1
  O2-  O133  1  0.56303917  0.25048818  0.62062211  1
  O2-  O134  1  0.55541230  0.25715860  0.88450486  1
  O2-  O135  1  0.61972178  0.75362130  0.14501895  1
  O2-  O136  1  0.59608672  0.78682826  0.36758878  1
  O2-  O137  1  0.59711067  0.76141011  0.61968799  1
  O2-  O138  1  0.59110373  0.76590921  0.87097082  1
  O2-  O139  1  0.87086554  0.25742910  0.12823999  1
  O2-  O140  1  0.95758240  0.26106779  0.38487588  1
  O2-  O141  1  0.84795171  0.21994701  0.60879152  1
  O2-  O142  1  0.85178596  0.25689770  0.87049073  1
  O2-  O143  1  0.84925929  0.75146572  0.11847855  1
  O2-  O144  1  0.90062723  0.74924903  0.38727617  1
  O2-  O145  1  0.89860904  0.74700948  0.63098166  1
  O2-  O146  1  0.75194972  0.86773521  0.86533275  1
  O2-  O147  1  0.12970380  0.13699121  -0.01175231  1
  O2-  O148  1  0.14834321  0.12880765  0.24693980  1
  O2-  O149  1  0.14332269  0.11673442  0.50048986  1
  O2-  O150  1  0.10890550  0.14994784  0.73811050  1
  O2-  O151  1  0.15027909  0.62478388  -0.00234275  1
  O2-  O152  1  0.09860629  0.63290804  0.25609915  1
  O2-  O153  1  0.12746726  0.64631845  0.48205122  1
  O2-  O154  1  0.10330741  0.68434983  0.82765119  1
  O2-  O155  1  0.32326694  0.15037831  -0.01162564  1
  O2-  O156  1  0.35768091  0.10505917  0.24431521  1
  O2-  O157  1  0.33943154  0.12601765  0.50261468  1
  O2-  O158  1  0.30861750  0.11401206  0.75573664  1
  O2-  O159  1  0.48094923  0.64106181  -0.09078921  1
  O2-  O160  1  0.45714333  0.62617799  0.24566228  1
  O2-  O161  1  0.47794557  0.63832563  0.58884128  1
  O2-  O162  1  0.38205557  0.58412571  0.76556512  1
  O2-  O163  1  0.67750313  0.16531147  -0.02744285  1
  O2-  O164  1  0.66906636  0.16238283  0.26232187  1
  O2-  O165  1  0.67084281  0.15801876  0.50688400  1
  O2-  O166  1  0.64455156  0.15342477  0.75804300  1
  O2-  O167  1  0.64519047  0.65500377  0.00742272  1
  O2-  O168  1  0.62596739  0.62800557  0.25609619  1
  O2-  O169  1  0.64005320  0.64026381  0.49207665  1
  O2-  O170  1  0.56797841  0.63157618  0.74746594  1
  O2-  O171  1  0.87771348  0.14429445  0.00402428  1
  O2-  O172  1  0.88343211  0.14784992  0.25831570  1
  O2-  O173  1  0.97502731  0.11836337  0.52013560  1
  O2-  O174  1  0.91755416  0.13017891  0.75095638  1
  O2-  O175  1  0.83813590  0.63327634  -0.01332054  1
  O2-  O176  1  0.87618854  0.63945172  0.25504348  1
  O2-  O177  1  0.87970613  0.62628805  0.50814833  1
  O2-  O178  1  0.89889999  0.61978740  0.76273906  1
  O2-  O179  1  0.10799596  0.37979975  -0.01270493  1
  O2-  O180  1  0.11445056  0.36237161  0.24933930  1
  O2-  O181  1  0.12631111  0.37900364  0.47965607  1
  O2-  O182  1  0.10370275  0.36278784  0.73173172  1
  O2-  O183  1  0.12899768  0.85187244  -0.01139039  1
  O2-  O184  1  0.09282588  0.85543242  0.23798214  1
  O2-  O185  1  0.09134960  0.85341925  0.55503557  1
  O2-  O186  1  0.10342876  0.85676223  0.74469085  1
  O2-  O187  1  0.34492693  0.35045190  -0.00764446  1
  O2-  O188  1  0.38907532  0.35712018  0.24572660  1
  O2-  O189  1  0.37203258  0.34875889  0.48900312  1
  O2-  O190  1  0.30685552  0.38605397  0.75448745  1
  O2-  O191  1  0.37471913  0.82246344  -0.01660094  1
  O2-  O192  1  0.41023088  0.89113390  0.25017742  1
  O2-  O193  1  0.37912404  0.83131819  0.50900139  1
  O2-  O194  1  0.37726025  0.88002682  0.76343181  1
  O2-  O195  1  0.65279422  0.35844177  -0.01312198  1
  O2-  O196  1  0.57894359  0.34081825  0.24449773  1
  O2-  O197  1  0.64810215  0.34772550  0.49574346  1
  O2-  O198  1  0.64753825  0.35255843  0.75500082  1
  O2-  O199  1  0.63602145  0.85953626  0.00047027  1
  O2-  O200  1  0.60153951  0.90315198  0.24957701  1
  O2-  O201  1  0.58953595  0.89047804  0.49549031  1
  O2-  O202  1  0.60889034  0.88818660  0.75037776  1
  O2-  O203  1  0.91161493  0.36527112  -0.00508009  1
  O2-  O204  1  0.89950551  0.36660080  0.25452541  1
  O2-  O205  1  0.85242671  0.37145298  0.48270804  1
  O2-  O206  1  0.89598929  0.35757523  0.73519422  1
  O2-  O207  1  0.86057236  0.86987136  -0.00574052  1
  O2-  O208  1  0.90311070  0.85763534  0.25106571  1
  O2-  O209  1  0.91233564  0.86477014  0.50970151  1
  O2-  O210  1  0.89326636  0.87227744  0.74482349  1
  O2-  O211  1  0.01617846  0.13414126  0.13327856  1
  O2-  O212  1  0.00038554  -0.13262216  0.09804767  1
  O2-  O213  1  0.02838688  0.00811236  0.64512730  1
  O2-  O214  1  -0.00550215  -0.14965946  0.87474382  1
  O2-  O215  1  -0.01284963  0.57691261  -0.03286005  1
  O2-  O216  1  -0.00772734  0.65885704  0.12237906  1
  O2-  O217  1  0.02456715  0.48434939  0.60082865  1
  O2-  O218  1  -0.00480373  0.49108439  0.83450058  1
  O2-  O219  1  0.25554335  -0.13456616  0.10245259  1
  O2-  O220  1  0.25360625  -0.13619520  0.28674591  1
  O2-  O221  1  0.23517859  -0.12612181  0.44403385  1
  O2-  O222  1  0.24147698  -0.14771951  0.63907961  1
  O2-  O223  1  0.33865236  0.63407336  0.02099761  1
  O2-  O224  1  0.29762304  0.62377135  0.25272965  1
  O2-  O225  1  0.30512669  0.64892507  0.43975395  1
  O2-  O226  1  0.24848157  0.64701337  0.63440832  1
  O2-  O227  1  0.49381333  -0.08935998  -0.10531069  1
  O2-  O228  1  0.50056581  -0.12358819  0.09891160  1
  O2-  O229  1  0.49292494  -0.11571095  0.63583056  1
  O2-  O230  1  0.47824412  0.10770808  0.86667220  1
  O2-  O231  1  0.49169407  0.35640785  0.08716232  1
  O2-  O232  1  0.49912579  0.62827042  0.09140526  1
  O2-  O233  1  0.50737462  0.61997293  0.40356765  1
  O2-  O234  1  0.47823581  0.40148837  0.84624557  1
  O2-  O235  1  0.74692110  -0.12431102  0.13049948  1
  O2-  O236  1  0.75407480  -0.13403852  0.31076431  1
  O2-  O237  1  0.75489733  -0.10298902  0.46234242  1
  O2-  O238  1  0.73916383  -0.14073972  0.63268077  1
  O2-  O239  1  0.74807339  0.61737859  0.13901903  1
  O2-  O240  1  0.74430441  0.68127782  0.36479696  1
  O2-  O241  1  0.75664701  0.52773067  0.39243787  1
  O2-  O242  1  0.74429138  0.64237689  0.65396181  1
