# generated using pymatgen
data_Gd19Ta56(WO20)8
_symmetry_space_group_name_H-M   'P 1'
_cell_length_a   15.56087359
_cell_length_b   15.41092375
_cell_length_c   15.17591396
_cell_angle_alpha   89.78600204
_cell_angle_beta   89.84695493
_cell_angle_gamma   89.95238529
_symmetry_Int_Tables_number   1
_chemical_formula_structural   Gd19Ta56(WO20)8
_chemical_formula_sum   'Gd19 Ta56 W8 O160'
_cell_volume   3639.25742791
_cell_formula_units_Z   1
loop_
 _symmetry_equiv_pos_site_id
 _symmetry_equiv_pos_as_xyz
  1  'x, y, z'
loop_
 _atom_type_symbol
 _atom_type_oxidation_number
  Gd3+  3.0
  Ta5+  5.0
  W6+  6.0
  O2-  -2.0
loop_
 _atom_site_type_symbol
 _atom_site_label
 _atom_site_symmetry_multiplicity
 _atom_site_fract_x
 _atom_site_fract_y
 _atom_site_fract_z
 _atom_site_occupancy
  Gd3+  Gd0  1  0.25959153  0.24242346  0.02250722  1
  Gd3+  Gd1  1  0.76642152  0.24529301  0.25025338  1
  Gd3+  Gd2  1  0.70086477  0.76386670  0.51033672  1
  Gd3+  Gd3  1  0.00593258  0.75646837  0.25900745  1
  Gd3+  Gd4  1  0.69809468  0.77422684  -0.00489984  1
  Gd3+  Gd5  1  0.00167315  0.26498373  0.72423824  1
  Gd3+  Gd6  1  0.01941326  0.22368714  0.00265333  1
  Gd3+  Gd7  1  0.47586450  0.74402766  0.25535174  1
  Gd3+  Gd8  1  0.27045416  0.74391385  0.50819977  1
  Gd3+  Gd9  1  0.76446784  0.24451293  0.51054728  1
  Gd3+  Gd10  1  0.44961615  0.74523091  -0.01221272  1
  Gd3+  Gd11  1  0.46304835  0.23432038  0.23581636  1
  Gd3+  Gd12  1  0.73686273  0.78836162  0.24068375  1
  Gd3+  Gd13  1  0.26141523  0.27128218  0.48474169  1
  Gd3+  Gd14  1  0.07743561  0.24336105  0.23230639  1
  Gd3+  Gd15  1  0.25470551  0.24868915  0.75544122  1
  Gd3+  Gd16  1  0.71509902  0.26331455  -0.04676688  1
  Gd3+  Gd17  1  -0.00510391  0.73715638  0.76898363  1
  Gd3+  Gd18  1  0.02301885  0.73178700  0.53605226  1
  Ta5+  Ta19  1  0.64206787  0.62284527  0.35354462  1
  Ta5+  Ta20  1  0.62280954  0.12811805  0.11335599  1
  Ta5+  Ta21  1  0.60219830  0.62096948  0.86165454  1
  Ta5+  Ta22  1  0.87661392  0.63418105  0.37582021  1
  Ta5+  Ta23  1  0.60883321  0.13823589  0.37612275  1
  Ta5+  Ta24  1  0.89653405  0.11593241  0.35592698  1
  Ta5+  Ta25  1  0.12455290  0.89475532  0.14404634  1
  Ta5+  Ta26  1  0.38937385  0.37808793  0.87053085  1
  Ta5+  Ta27  1  0.15896197  0.62241004  0.66613163  1
  Ta5+  Ta28  1  0.55370714  0.87820592  0.62064077  1
  Ta5+  Ta29  1  0.83824889  0.61990621  0.12339190  1
  Ta5+  Ta30  1  0.18934013  0.45331737  0.12041155  1
  Ta5+  Ta31  1  0.62032343  0.38410291  0.37653057  1
  Ta5+  Ta32  1  0.93904369  0.08920601  0.14408758  1
  Ta5+  Ta33  1  0.58966984  0.89005275  0.85914419  1
  Ta5+  Ta34  1  0.15088293  0.10835813  0.87403105  1
  Ta5+  Ta35  1  0.39258652  0.12626403  0.87745277  1
  Ta5+  Ta36  1  0.62620146  0.62231108  0.12477333  1
  Ta5+  Ta37  1  0.38276791  0.07404299  0.11612658  1
  Ta5+  Ta38  1  0.83223962  0.88164996  0.86734579  1
  Ta5+  Ta39  1  0.38158418  0.12699731  0.61982620  1
  Ta5+  Ta40  1  0.16095908  0.63480081  0.87554527  1
  Ta5+  Ta41  1  0.87538739  0.11956674  0.84401675  1
  Ta5+  Ta42  1  0.18135891  0.11857751  0.37639110  1
  Ta5+  Ta43  1  0.39849180  0.37474075  0.62296802  1
  Ta5+  Ta44  1  0.11866134  0.11812125  0.62119590  1
  Ta5+  Ta45  1  0.91224233  0.11221750  0.60650576  1
  Ta5+  Ta46  1  0.55485922  0.38914197  0.87541556  1
  Ta5+  Ta47  1  0.38722025  0.87547239  0.62790352  1
  Ta5+  Ta48  1  0.32374174  0.91878022  0.12466320  1
  Ta5+  Ta49  1  0.08952484  0.88251819  0.89559921  1
  Ta5+  Ta50  1  0.86572475  0.86681857  0.62928268  1
  Ta5+  Ta51  1  0.58117053  0.62258793  0.60929694  1
  Ta5+  Ta52  1  0.33163794  0.88455287  0.87372910  1
  Ta5+  Ta53  1  0.13463078  0.87622516  0.65465341  1
  Ta5+  Ta54  1  0.88783645  0.39381890  0.62277077  1
  Ta5+  Ta55  1  0.64511661  0.37677454  0.12166679  1
  Ta5+  Ta56  1  0.35457164  0.87154141  0.36598584  1
  Ta5+  Ta57  1  0.41419815  0.38245520  0.36947275  1
  Ta5+  Ta58  1  0.35070972  0.11807347  0.36637318  1
  Ta5+  Ta59  1  0.85611267  0.64273981  0.63277263  1
  Ta5+  Ta60  1  0.55825316  0.13915876  0.87003432  1
  Ta5+  Ta61  1  0.12013185  0.62468673  0.38587222  1
  Ta5+  Ta62  1  0.18694729  0.07245199  0.12539390  1
  Ta5+  Ta63  1  0.42428949  0.39201052  0.10616046  1
  Ta5+  Ta64  1  0.91318738  0.38465685  0.87698280  1
  Ta5+  Ta65  1  0.12568093  0.39067550  0.89021420  1
  Ta5+  Ta66  1  0.36851862  0.58879608  0.12117326  1
  Ta5+  Ta67  1  0.41510143  0.62521570  0.63467909  1
  Ta5+  Ta68  1  0.89857807  0.86524660  0.06269523  1
  Ta5+  Ta69  1  0.83832538  0.62427257  0.89227727  1
  Ta5+  Ta70  1  0.36006515  0.60248632  0.37782615  1
  Ta5+  Ta71  1  0.60538703  0.89573540  0.36540489  1
  Ta5+  Ta72  1  0.62602888  0.37929108  0.63306362  1
  Ta5+  Ta73  1  0.61088954  0.12528036  0.63080706  1
  Ta5+  Ta74  1  0.85612451  0.88161333  0.42290972  1
  W6+  W75  1  0.88663450  0.36628923  0.11624966  1
  W6+  W76  1  0.32575592  0.62153352  0.86389926  1
  W6+  W77  1  0.89732948  0.37888533  0.37277622  1
  W6+  W78  1  0.13600424  0.65173653  0.12217367  1
  W6+  W79  1  0.56725271  0.89474718  0.12133777  1
  W6+  W80  1  0.11968459  0.88442513  0.39558877  1
  W6+  W81  1  0.12528093  0.38535075  0.37450869  1
  W6+  W82  1  0.14981104  0.39127009  0.63700145  1
  O2-  O83  1  0.05348497  0.04104322  0.13218763  1
  O2-  O84  1  0.13022927  0.01168487  0.39672747  1
  O2-  O85  1  0.14332832  -0.00225234  0.62911592  1
  O2-  O86  1  0.07743664  0.01099412  0.88189228  1
  O2-  O87  1  0.09514849  0.52049967  0.09724355  1
  O2-  O88  1  0.08316221  0.51350331  0.39805376  1
  O2-  O89  1  0.20239930  0.51402961  0.63923156  1
  O2-  O90  1  0.13509264  0.51005265  0.89466927  1
  O2-  O91  1  0.45479310  -0.03224820  0.12716001  1
  O2-  O92  1  0.34399346  -0.00664402  0.36849618  1
  O2-  O93  1  0.37941180  0.00774165  0.61841229  1
  O2-  O94  1  0.36649029  0.00402840  0.87957645  1
  O2-  O95  1  0.46797995  0.51542117  0.11681609  1
  O2-  O96  1  0.33531173  0.47861843  0.37374168  1
  O2-  O97  1  0.40517221  0.49321357  0.62988650  1
  O2-  O98  1  0.34188353  0.48694961  0.86705359  1
  O2-  O99  1  0.64928290  0.01352094  0.10602782  1
  O2-  O100  1  0.63639992  0.01845337  0.37558436  1
  O2-  O101  1  0.59420369  0.00393206  0.62371391  1
  O2-  O102  1  0.57104124  0.00751705  0.87485504  1
  O2-  O103  1  0.64236871  0.50041857  0.12897484  1
  O2-  O104  1  0.66994579  0.50393392  0.35469374  1
  O2-  O105  1  0.62145733  0.49837054  0.60288357  1
  O2-  O106  1  0.54337686  0.51827978  0.89179043  1
  O2-  O107  1  0.89141653  -0.02923465  0.12718264  1
  O2-  O108  1  0.88868239  -0.01293356  0.37171970  1
  O2-  O109  1  0.89501690  -0.00862698  0.62663649  1
  O2-  O110  1  0.88009094  -0.00400772  0.85525113  1
  O2-  O111  1  0.84917825  0.50315260  0.11932355  1
  O2-  O112  1  0.88643844  0.51701526  0.37613507  1
  O2-  O113  1  0.87092187  0.51333483  0.63041009  1
  O2-  O114  1  0.88174619  0.50005357  0.88776048  1
  O2-  O115  1  0.13443140  0.20646571  0.09908701  1
  O2-  O116  1  0.15418091  0.24736612  0.36911646  1
  O2-  O117  1  0.12822426  0.24802070  0.64990555  1
  O2-  O118  1  0.13831064  0.24232114  0.89103537  1
  O2-  O119  1  0.16393473  0.78119161  0.15447363  1
  O2-  O120  1  0.07363888  0.74909983  0.39653580  1
  O2-  O121  1  0.10339837  0.74742425  0.66458556  1
  O2-  O122  1  0.09555070  0.75273699  0.87234394  1
  O2-  O123  1  0.36061013  0.28569268  0.12239119  1
  O2-  O124  1  0.35746320  0.26345910  0.35374262  1
  O2-  O125  1  0.32433458  0.25425464  0.62013022  1
  O2-  O126  1  0.33705067  0.25561872  0.89032166  1
  O2-  O127  1  0.42092845  0.70440078  0.12521940  1
  O2-  O128  1  0.38907794  0.73381778  0.37253088  1
  O2-  O129  1  0.36999935  0.74519587  0.62350844  1
  O2-  O130  1  0.35183751  0.75812304  0.87918096  1
  O2-  O131  1  0.69877161  0.24585803  0.10706853  1
  O2-  O132  1  0.69122747  0.24139327  0.37845851  1
  O2-  O133  1  0.67474010  0.25421443  0.63163923  1
  O2-  O134  1  0.58491646  0.26537214  0.87306122  1
  O2-  O135  1  0.63372288  0.76325464  0.13266237  1
  O2-  O136  1  0.61278596  0.75820658  0.33882572  1
  O2-  O137  1  0.59599885  0.75228209  0.61573923  1
  O2-  O138  1  0.60863351  0.74756458  0.87215222  1
  O2-  O139  1  0.95386978  0.22990528  0.13922903  1
  O2-  O140  1  0.87205676  0.23802122  0.36954136  1
  O2-  O141  1  0.89653347  0.24455485  0.61362326  1
  O2-  O142  1  0.94396447  0.22671821  0.86213491  1
  O2-  O143  1  0.82469943  0.77447871  0.11223264  1
  O2-  O144  1  0.89015079  0.77786391  0.35648060  1
  O2-  O145  1  0.79354715  0.75319305  0.63049888  1
  O2-  O146  1  0.80874530  0.74839327  0.89476866  1
  O2-  O147  1  0.19782466  0.10362519  -0.01069105  1
  O2-  O148  1  0.17476713  0.12413219  0.24648708  1
  O2-  O149  1  0.18512387  0.14130155  0.51522023  1
  O2-  O150  1  0.18101280  0.11744615  0.74859677  1
  O2-  O151  1  0.18070012  0.65797351  -0.00664592  1
  O2-  O152  1  0.09802162  0.64030118  0.26045595  1
  O2-  O153  1  0.14870628  0.64774673  0.52509435  1
  O2-  O154  1  0.07463215  0.60783252  0.76046511  1
  O2-  O155  1  0.37206374  0.13663531  0.00707358  1
  O2-  O156  1  0.37122399  0.11666305  0.23658998  1
  O2-  O157  1  0.36415925  0.14210780  0.49295881  1
  O2-  O158  1  0.36991891  0.14382633  0.74762076  1
  O2-  O159  1  0.36506680  0.61436783  -0.00170201  1
  O2-  O160  1  0.39342986  0.60453534  0.25519771  1
  O2-  O161  1  0.37205942  0.61632272  0.50266636  1
  O2-  O162  1  0.40542484  0.62717513  0.75683351  1
  O2-  O163  1  0.61302156  0.15164100  -0.01028565  1
  O2-  O164  1  0.63377366  0.15304856  0.24610756  1
  O2-  O165  1  0.64224225  0.14042193  0.50217870  1
  O2-  O166  1  0.61113044  0.13295385  0.75432712  1
  O2-  O167  1  0.57289285  0.64874036  0.01122808  1
  O2-  O168  1  0.56870720  0.62379102  0.24418180  1
  O2-  O169  1  0.60053365  0.63399804  0.47056400  1
  O2-  O170  1  0.59649426  0.61759685  0.74135529  1
  O2-  O171  1  0.77540608  0.14303735  -0.09939842  1
  O2-  O172  1  0.83830651  0.11067087  0.23624422  1
  O2-  O173  1  0.85145265  0.11760460  0.49007974  1
  O2-  O174  1  0.84323324  0.12918948  0.72765092  1
  O2-  O175  1  0.89598306  0.63866469  0.00721442  1
  O2-  O176  1  0.89531174  0.65013517  0.23697475  1
  O2-  O177  1  0.88787420  0.65511620  0.50430151  1
  O2-  O178  1  0.87289803  0.64117809  0.77056259  1
  O2-  O179  1  0.18287561  0.37738225  0.01458665  1
  O2-  O180  1  0.16081228  0.38603543  0.21805908  1
  O2-  O181  1  0.16492774  0.37621673  0.50062728  1
  O2-  O182  1  0.18630446  0.37726643  0.77987577  1
  O2-  O183  1  0.08817917  0.88311909  0.01705212  1
  O2-  O184  1  0.07037635  0.88967544  0.26383425  1
  O2-  O185  1  0.14964282  0.84329931  0.52995224  1
  O2-  O186  1  0.06105230  0.88279622  0.76073629  1
  O2-  O187  1  0.46096445  0.37400804  -0.01597430  1
  O2-  O188  1  0.42252790  0.38937530  0.24287745  1
  O2-  O189  1  0.37802213  0.36425075  0.49524204  1
  O2-  O190  1  0.37949215  0.34622237  0.74620451  1
  O2-  O191  1  0.35985217  0.86775548  0.00860682  1
  O2-  O192  1  0.35784148  0.85242956  0.23534557  1
  O2-  O193  1  0.36676050  0.86511736  0.49538502  1
  O2-  O194  1  0.35595778  0.88158817  0.75117265  1
  O2-  O195  1  0.63737197  0.38395803  -0.00616756  1
  O2-  O196  1  0.66326119  0.36087864  0.25275043  1
  O2-  O197  1  0.65996004  0.36417319  0.49237351  1
  O2-  O198  1  0.60726980  0.39531658  0.75427129  1
  O2-  O199  1  0.55665074  0.86003937  -0.01729411  1
  O2-  O200  1  0.63498666  0.89952106  0.24059812  1
  O2-  O201  1  0.59991331  0.87093972  0.49100852  1
  O2-  O202  1  0.54047884  0.86901121  0.74958522  1
  O2-  O203  1  0.84598932  0.33376271  -0.02911128  1
  O2-  O204  1  0.85247149  0.36240366  0.24840139  1
  O2-  O205  1  0.84419192  0.37474705  0.50535570  1
  O2-  O206  1  0.86942894  0.36361261  0.75327919  1
  O2-  O207  1  0.94475201  0.85724780  -0.06033102  1
  O2-  O208  1  0.99049788  0.81820942  0.12746089  1
  O2-  O209  1  0.94077549  0.85191582  0.51582265  1
  O2-  O210  1  0.88076621  0.84217375  0.75485670  1
  O2-  O211  1  -0.07679999  0.11183230  0.02232804  1
  O2-  O212  1  -0.00808577  0.12231928  0.27789199  1
  O2-  O213  1  0.01823753  0.11476086  0.54121655  1
  O2-  O214  1  0.00918534  0.11910925  0.70412938  1
  O2-  O215  1  0.01376071  0.36746428  -0.03391888  1
  O2-  O216  1  0.01223597  0.35013370  0.31594138  1
  O2-  O217  1  0.00633322  0.38606245  0.62120021  1
  O2-  O218  1  0.02415206  0.38711609  0.80851541  1
  O2-  O219  1  0.21687134  -0.04348882  0.05926756  1
  O2-  O220  1  0.21808207  -0.03908679  0.20877469  1
  O2-  O221  1  0.23951774  -0.17441804  0.38044719  1
  O2-  O222  1  0.21075021  -0.11153970  0.87801056  1
  O2-  O223  1  0.31755153  0.45549511  0.08740098  1
  O2-  O224  1  0.24579324  0.57201897  0.15952333  1
  O2-  O225  1  0.24230212  0.63354004  0.37450773  1
  O2-  O226  1  0.23308298  0.66139441  0.76091829  1
  O2-  O227  1  0.50476827  0.13778492  0.12802977  1
  O2-  O228  1  0.48605140  -0.11507689  0.34854456  1
  O2-  O229  1  0.49042379  0.13095525  0.36578998  1
  O2-  O230  1  0.49861818  0.16457069  0.61263782  1
  O2-  O231  1  0.53571823  0.32457285  0.13358884  1
  O2-  O232  1  0.51604422  0.45332555  0.39577371  1
  O2-  O233  1  0.52973260  0.29688679  0.35999835  1
  O2-  O234  1  0.51396267  0.34028951  0.60495841  1
  O2-  O235  1  0.78856026  -0.10654801  -0.00828142  1
  O2-  O236  1  0.74079798  -0.13605786  0.37292152  1
  O2-  O237  1  0.78193807  -0.10878638  0.52815097  1
  O2-  O238  1  0.71260911  -0.10606380  0.83245547  1
  O2-  O239  1  0.73394990  0.63702271  0.04721791  1
  O2-  O240  1  0.72949095  0.63860077  0.21043868  1
  O2-  O241  1  0.75394408  0.67258690  0.38305309  1
  O2-  O242  1  0.72161117  0.59051859  0.87780980  1
