# generated using pymatgen
data_Gd19Ta56(WO20)8
_symmetry_space_group_name_H-M   'P 1'
_cell_length_a   15.56993392
_cell_length_b   15.49598836
_cell_length_c   15.22640943
_cell_angle_alpha   90.04000021
_cell_angle_beta   89.88807692
_cell_angle_gamma   90.10856309
_symmetry_Int_Tables_number   1
_chemical_formula_structural   Gd19Ta56(WO20)8
_chemical_formula_sum   'Gd19 Ta56 W8 O160'
_cell_volume   3673.68437734
_cell_formula_units_Z   1
loop_
 _symmetry_equiv_pos_site_id
 _symmetry_equiv_pos_as_xyz
  1  'x, y, z'
loop_
 _atom_type_symbol
 _atom_type_oxidation_number
  Gd3+  3.0
  Ta5+  5.0
  W6+  6.0
  O2-  -2.0
loop_
 _atom_site_type_symbol
 _atom_site_label
 _atom_site_symmetry_multiplicity
 _atom_site_fract_x
 _atom_site_fract_y
 _atom_site_fract_z
 _atom_site_occupancy
  Gd3+  Gd0  1  -0.02307504  0.27190854  0.46392150  1
  Gd3+  Gd1  1  0.50732562  0.23211990  0.74180113  1
  Gd3+  Gd2  1  0.25134063  0.24304245  0.73144061  1
  Gd3+  Gd3  1  0.74427538  0.26644130  0.76176288  1
  Gd3+  Gd4  1  0.01580352  0.25265616  0.01411772  1
  Gd3+  Gd5  1  0.73678713  0.75248064  0.49135195  1
  Gd3+  Gd6  1  -0.03583020  0.75520577  0.24907994  1
  Gd3+  Gd7  1  0.54201564  0.73979192  0.26210812  1
  Gd3+  Gd8  1  0.49669665  0.25506066  0.26452944  1
  Gd3+  Gd9  1  -0.02193640  0.75742976  0.49553063  1
  Gd3+  Gd10  1  0.24362248  0.75888447  0.23618163  1
  Gd3+  Gd11  1  0.76026284  0.74180828  0.73656543  1
  Gd3+  Gd12  1  0.00014623  0.25210328  0.74135225  1
  Gd3+  Gd13  1  0.27125633  0.75778234  0.75286318  1
  Gd3+  Gd14  1  0.51531767  0.25419785  -0.00677392  1
  Gd3+  Gd15  1  0.25921512  0.22407330  0.25392077  1
  Gd3+  Gd16  1  0.25928201  0.75391627  0.49147740  1
  Gd3+  Gd17  1  0.02505357  0.74991028  0.74990199  1
  Gd3+  Gd18  1  0.27549180  0.26169430  -0.00142634  1
  Ta5+  Ta19  1  0.90409501  0.60722103  0.61787563  1
  Ta5+  Ta20  1  0.11336861  0.62188003  0.14054963  1
  Ta5+  Ta21  1  0.12234660  0.87528328  0.38274415  1
  Ta5+  Ta22  1  0.39058013  0.12102287  0.12442258  1
  Ta5+  Ta23  1  0.67327468  0.86786122  0.12250872  1
  Ta5+  Ta24  1  0.08832592  0.87117100  0.12773294  1
  Ta5+  Ta25  1  0.13808858  0.11406186  0.12193263  1
  Ta5+  Ta26  1  0.15816540  0.11390653  0.86899316  1
  Ta5+  Ta27  1  0.62170026  0.88902887  0.62938757  1
  Ta5+  Ta28  1  0.10630973  0.89105022  0.62282699  1
  Ta5+  Ta29  1  0.14560987  0.62087473  0.88694356  1
  Ta5+  Ta30  1  0.63698575  0.62450808  0.11123466  1
  Ta5+  Ta31  1  0.84384653  0.14783859  0.61284929  1
  Ta5+  Ta32  1  0.86380567  0.13660956  0.35845324  1
  Ta5+  Ta33  1  0.87792618  0.12474575  0.87462852  1
  Ta5+  Ta34  1  0.62949130  0.88787267  0.37236403  1
  Ta5+  Ta35  1  0.89838248  0.62025039  0.86023472  1
  Ta5+  Ta36  1  0.15620557  0.39416043  0.13090100  1
  Ta5+  Ta37  1  0.37401758  0.61520405  0.15919295  1
  Ta5+  Ta38  1  0.38634178  0.39138004  0.84447911  1
  Ta5+  Ta39  1  0.38970537  0.87820878  0.88250394  1
  Ta5+  Ta40  1  0.86458027  0.38438556  0.10452632  1
  Ta5+  Ta41  1  0.89449463  0.88025458  0.86078118  1
  Ta5+  Ta42  1  0.39700682  0.12183426  0.60721887  1
  Ta5+  Ta43  1  0.41786914  0.62960040  0.59549101  1
  Ta5+  Ta44  1  0.67153916  0.39342342  0.93402873  1
  Ta5+  Ta45  1  0.62536059  0.62305060  0.86909140  1
  Ta5+  Ta46  1  0.85825277  0.36191011  0.61162947  1
  Ta5+  Ta47  1  0.85007856  0.61835315  0.36658702  1
  Ta5+  Ta48  1  0.86711484  0.89526506  0.36891117  1
  Ta5+  Ta49  1  0.30551128  0.35791684  0.41252975  1
  Ta5+  Ta50  1  0.11773798  0.61488794  0.61762973  1
  Ta5+  Ta51  1  0.15532343  0.37523016  0.60068526  1
  Ta5+  Ta52  1  0.14447151  0.37827884  0.37263318  1
  Ta5+  Ta53  1  0.09437686  0.61292931  0.39653084  1
  Ta5+  Ta54  1  0.62754193  0.11161093  0.13499065  1
  Ta5+  Ta55  1  0.12070946  0.13014352  0.60212083  1
  Ta5+  Ta56  1  0.11450612  0.12535311  0.38339060  1
  Ta5+  Ta57  1  0.63031763  0.11916650  0.38066016  1
  Ta5+  Ta58  1  0.14210827  0.87790254  0.88581144  1
  Ta5+  Ta59  1  0.67650566  0.13194844  0.62432774  1
  Ta5+  Ta60  1  0.63648413  0.11822873  0.88283073  1
  Ta5+  Ta61  1  0.86968010  0.62197196  0.10942464  1
  Ta5+  Ta62  1  0.63073749  0.86844596  0.87316258  1
  Ta5+  Ta63  1  0.82107631  0.39072683  0.35488503  1
  Ta5+  Ta64  1  0.13773862  0.38002150  0.86635985  1
  Ta5+  Ta65  1  0.62965803  0.38236225  0.59683830  1
  Ta5+  Ta66  1  0.38673509  0.62775511  0.90631830  1
  Ta5+  Ta67  1  0.34050630  0.40107462  0.16764524  1
  Ta5+  Ta68  1  0.86126052  0.12293109  0.12044591  1
  Ta5+  Ta69  1  0.84000522  0.87314654  0.11039283  1
  Ta5+  Ta70  1  0.37132221  0.11579925  0.86346085  1
  Ta5+  Ta71  1  0.33965945  0.54498367  0.38674007  1
  Ta5+  Ta72  1  0.88205231  0.37873551  0.88262876  1
  Ta5+  Ta73  1  0.89418085  0.90231391  0.62740168  1
  Ta5+  Ta74  1  0.31579023  0.11354799  0.45650242  1
  W6+  W75  1  0.37904710  0.38342237  0.62080604  1
  W6+  W76  1  0.65560124  0.35042921  0.34538406  1
  W6+  W77  1  0.41734876  0.87172967  0.13818707  1
  W6+  W78  1  0.59701908  0.41445536  0.16788813  1
  W6+  W79  1  0.38297064  0.90701738  0.60950760  1
  W6+  W80  1  0.37032234  0.89818053  0.34879634  1
  W6+  W81  1  0.68117319  0.60499828  0.36918177  1
  W6+  W82  1  0.60601386  0.62373251  0.61665344  1
  O2-  O83  1  0.10009217  -0.00022038  0.13580125  1
  O2-  O84  1  0.11205444  -0.00490017  0.37733894  1
  O2-  O85  1  0.12833529  0.00846132  0.63437956  1
  O2-  O86  1  0.11873375  -0.00200928  0.85687311  1
  O2-  O87  1  0.09053011  0.49787807  0.13477549  1
  O2-  O88  1  0.08039785  0.49570550  0.38027847  1
  O2-  O89  1  0.14724136  0.49885360  0.63226165  1
  O2-  O90  1  0.11882882  0.50277846  0.85520962  1
  O2-  O91  1  0.42403994  0.00938017  0.12009392  1
  O2-  O92  1  0.32551328  0.01234249  0.39255537  1
  O2-  O93  1  0.32396169  0.02071767  0.58126939  1
  O2-  O94  1  0.26147539  -0.10928022  0.89188283  1
  O2-  O95  1  0.41653250  0.49666426  0.15780502  1
  O2-  O96  1  0.40665535  0.45382457  0.42397179  1
  O2-  O97  1  0.37626897  0.51921433  0.61170235  1
  O2-  O98  1  0.40603654  0.51068259  0.85822615  1
  O2-  O99  1  0.64195167  -0.00452146  0.11992926  1
  O2-  O100  1  0.58256767  0.00206827  0.38312718  1
  O2-  O101  1  0.64179256  0.00920624  0.63567319  1
  O2-  O102  1  0.63851542  0.00018483  0.87688770  1
  O2-  O103  1  0.57762250  0.52203291  0.08970246  1
  O2-  O104  1  0.72141494  0.47033980  0.34715464  1
  O2-  O105  1  0.58077106  0.48528099  0.62759212  1
  O2-  O106  1  0.62109925  0.49367145  0.88985313  1
  O2-  O107  1  0.84446058  0.00388851  0.11001110  1
  O2-  O108  1  0.89703547  0.01351611  0.37868962  1
  O2-  O109  1  0.86652791  0.01810204  0.62240339  1
  O2-  O110  1  0.90182995  0.00632057  0.85504356  1
  O2-  O111  1  0.90334868  0.50313774  0.10417296  1
  O2-  O112  1  0.87935559  0.50149297  0.38236712  1
  O2-  O113  1  0.88359959  0.48920725  0.61006875  1
  O2-  O114  1  0.90534647  0.49803963  0.85942020  1
  O2-  O115  1  0.16043864  0.24944425  0.10420383  1
  O2-  O116  1  0.10616361  0.25194090  0.38778491  1
  O2-  O117  1  0.17097971  0.24680957  0.59710917  1
  O2-  O118  1  0.16762333  0.24702051  0.87340462  1
  O2-  O119  1  0.06780114  0.73911269  0.13062784  1
  O2-  O120  1  0.11286724  0.74751089  0.41778055  1
  O2-  O121  1  0.09038939  0.75239309  0.60816653  1
  O2-  O122  1  0.15448003  0.74935894  0.87147090  1
  O2-  O123  1  0.34940281  0.26925326  0.12825158  1
  O2-  O124  1  0.30417912  0.23048924  0.40946450  1
  O2-  O125  1  0.37746315  0.24340808  0.64201099  1
  O2-  O126  1  0.36552742  0.24741193  0.83523583  1
  O2-  O127  1  0.41070664  0.73289666  0.17010428  1
  O2-  O128  1  0.24436709  0.83559564  0.36404518  1
  O2-  O129  1  0.32726864  0.71700823  0.62262892  1
  O2-  O130  1  0.36672992  0.74370061  0.86599692  1
  O2-  O131  1  0.51166051  0.18000843  0.12323217  1
  O2-  O132  1  0.58006269  0.23098869  0.38100962  1
  O2-  O133  1  0.61625599  0.26026445  0.63901767  1
  O2-  O134  1  0.51390297  0.15423668  0.87534132  1
  O2-  O135  1  0.60603384  0.74827598  0.12282206  1
  O2-  O136  1  0.63748835  0.75304713  0.37901998  1
  O2-  O137  1  0.66569750  0.75965811  0.62345071  1
  O2-  O138  1  0.66818840  0.74867768  0.85471987  1
  O2-  O139  1  0.89255057  0.25934514  0.10245507  1
  O2-  O140  1  0.87114186  0.26475830  0.34812753  1
  O2-  O141  1  0.93224644  0.25757697  0.60734008  1
  O2-  O142  1  0.92457871  0.25132917  0.88564449  1
  O2-  O143  1  0.88290138  0.74973976  0.11512355  1
  O2-  O144  1  0.84490885  0.75825278  0.37040926  1
  O2-  O145  1  0.90794255  0.74900200  0.63924243  1
  O2-  O146  1  0.88031081  0.74944346  0.83385486  1
  O2-  O147  1  0.10419092  0.12411912  -0.00719836  1
  O2-  O148  1  0.13389087  0.13609391  0.25301653  1
  O2-  O149  1  0.04268292  0.13850185  0.50149648  1
  O2-  O150  1  0.10943200  0.14992191  0.73793689  1
  O2-  O151  1  0.13827176  0.61942039  0.00841324  1
  O2-  O152  1  0.13207030  0.63487060  0.27138930  1
  O2-  O153  1  0.17724346  0.62009174  0.50141890  1
  O2-  O154  1  0.16007503  0.65403353  0.73292739  1
  O2-  O155  1  0.39685077  0.16326846  -0.00312855  1
  O2-  O156  1  0.38820122  0.15099372  0.24760964  1
  O2-  O157  1  0.44194044  0.13865118  0.49154313  1
  O2-  O158  1  0.42442408  0.10649204  0.74156044  1
  O2-  O159  1  0.37670318  0.62069336  0.02619583  1
  O2-  O160  1  0.32375196  0.61491064  0.27580331  1
  O2-  O161  1  0.35180594  0.64067089  0.46287703  1
  O2-  O162  1  0.26696511  0.60904661  0.86924327  1
  O2-  O163  1  0.62534825  0.14632839  0.00677545  1
  O2-  O164  1  0.58795806  0.11889158  0.25259021  1
  O2-  O165  1  0.66016864  0.13077298  0.50026915  1
  O2-  O166  1  0.64265104  0.15024399  0.75774490  1
  O2-  O167  1  0.66840897  0.63687578  -0.01644235  1
  O2-  O168  1  0.62097226  0.61910161  0.23914784  1
  O2-  O169  1  0.69098976  0.61590686  0.50931139  1
  O2-  O170  1  0.66881644  0.61655346  0.75180117  1
  O2-  O171  1  0.91406985  0.12562297  0.00094592  1
  O2-  O172  1  0.91054538  0.12607183  0.23254769  1
  O2-  O173  1  0.85945313  0.15518951  0.48316777  1
  O2-  O174  1  0.86986281  0.15909376  0.74865551  1
  O2-  O175  1  0.86065826  0.63026119  -0.02448110  1
  O2-  O176  1  0.87864537  0.63010403  0.24109477  1
  O2-  O177  1  0.86081403  0.65004882  0.50385940  1
  O2-  O178  1  0.84554347  0.61551563  0.73663337  1
  O2-  O179  1  0.11919334  0.37011758  -0.00960652  1
  O2-  O180  1  0.13838623  0.34401220  0.24629912  1
  O2-  O181  1  0.08348418  0.37538176  0.50119768  1
  O2-  O182  1  0.12228498  0.34918905  0.73476663  1
  O2-  O183  1  0.12067954  0.87328806  0.00724256  1
  O2-  O184  1  0.11738480  0.84797549  0.25337013  1
  O2-  O185  1  0.16903416  0.87952142  0.51308536  1
  O2-  O186  1  0.15536473  0.85269065  0.73860539  1
  O2-  O187  1  0.41766619  0.35638275  -0.04303783  1
  O2-  O188  1  0.35578356  0.34027130  0.28241913  1
  O2-  O189  1  0.26499690  0.38437976  0.53835571  1
  O2-  O190  1  0.46028644  0.37213002  0.74619914  1
  O2-  O191  1  0.40200514  0.85812273  0.00323632  1
  O2-  O192  1  0.31491819  0.88363915  0.22144838  1
  O2-  O193  1  0.37163339  0.86052943  0.47925140  1
  O2-  O194  1  0.36302300  0.87622700  0.75155183  1
  O2-  O195  1  0.61221755  0.35870027  0.03808327  1
  O2-  O196  1  0.64134239  0.29785595  0.21469818  1
  O2-  O197  1  0.63986937  0.37897876  0.48005219  1
  O2-  O198  1  0.61982998  0.29468116  0.87249849  1
  O2-  O199  1  0.65906277  0.86459414  -0.00769475  1
  O2-  O200  1  0.63947101  0.86736830  0.24781740  1
  O2-  O201  1  0.64727440  0.87953967  0.50513118  1
  O2-  O202  1  0.66689451  0.87740392  0.74870599  1
  O2-  O203  1  0.94646911  0.38058952  -0.00789357  1
  O2-  O204  1  0.83723247  0.38734739  0.22482950  1
  O2-  O205  1  0.83951132  0.36379483  0.48647757  1
  O2-  O206  1  0.89381961  0.35457150  0.74799255  1
  O2-  O207  1  0.84862136  0.87240584  -0.02754996  1
  O2-  O208  1  0.87234274  0.87897666  0.24231434  1
  O2-  O209  1  0.84908748  0.86288430  0.51030428  1
  O2-  O210  1  0.83377514  0.88049340  0.74248740  1
  O2-  O211  1  0.01159866  -0.14824718  -0.12791142  1
  O2-  O212  1  -0.00757994  -0.14538503  0.37391320  1
  O2-  O213  1  0.00203271  -0.10118909  0.54843674  1
  O2-  O214  1  -0.00413452  -0.10831702  0.70702222  1
  O2-  O215  1  0.01658599  0.64665805  -0.13372672  1
  O2-  O216  1  -0.01891619  0.65863376  0.36937469  1
  O2-  O217  1  0.01756839  0.61013290  0.53100952  1
  O2-  O218  1  0.00726214  0.60890097  0.69228866  1
  O2-  O219  1  0.26211988  0.11292556  -0.05870256  1
  O2-  O220  1  0.26335947  0.10998182  0.12629461  1
  O2-  O221  1  0.19355945  0.10860947  0.49124657  1
  O2-  O222  1  0.26399227  0.10733633  0.78598635  1
  O2-  O223  1  0.26605337  0.39734373  0.05730100  1
  O2-  O224  1  0.24328675  0.46524716  0.19959011  1
  O2-  O225  1  0.23978182  0.47472026  0.37890660  1
  O2-  O226  1  0.26360584  0.38953520  0.84488242  1
  O2-  O227  1  0.40679496  0.00268223  -0.11045957  1
  O2-  O228  1  0.46890759  -0.12966688  0.27299026  1
  O2-  O229  1  0.50631040  -0.12992176  0.63771681  1
  O2-  O230  1  0.51452461  -0.14290680  0.86087470  1
  O2-  O231  1  0.50952357  0.64694075  -0.11405235  1
  O2-  O232  1  0.53870391  0.40026526  0.28198109  1
  O2-  O233  1  0.51118347  0.64492174  0.51944536  1
  O2-  O234  1  0.48668011  0.64747333  0.69378220  1
  O2-  O235  1  0.74257003  0.15251952  0.14019058  1
  O2-  O236  1  0.74690852  -0.08208534  0.37066429  1
  O2-  O237  1  0.74477037  0.12139166  0.33644971  1
  O2-  O238  1  0.75650290  0.16539653  0.88664693  1
  O2-  O239  1  0.78497693  0.39035603  -0.00221543  1
  O2-  O240  1  0.75377872  0.59875516  0.12794757  1
  O2-  O241  1  0.74119993  0.38420643  0.65606449  1
  O2-  O242  1  0.76052629  0.38625594  0.83959638  1
