# generated using pymatgen
data_Gd19Ta56(WO20)8
_symmetry_space_group_name_H-M   'P 1'
_cell_length_a   15.59708592
_cell_length_b   15.46833554
_cell_length_c   15.09075470
_cell_angle_alpha   89.82113324
_cell_angle_beta   90.23508093
_cell_angle_gamma   90.28056212
_symmetry_Int_Tables_number   1
_chemical_formula_structural   Gd19Ta56(WO20)8
_chemical_formula_sum   'Gd19 Ta56 W8 O160'
_cell_volume   3640.71813649
_cell_formula_units_Z   1
loop_
 _symmetry_equiv_pos_site_id
 _symmetry_equiv_pos_as_xyz
  1  'x, y, z'
loop_
 _atom_type_symbol
 _atom_type_oxidation_number
  Gd3+  3.0
  Ta5+  5.0
  W6+  6.0
  O2-  -2.0
loop_
 _atom_site_type_symbol
 _atom_site_label
 _atom_site_symmetry_multiplicity
 _atom_site_fract_x
 _atom_site_fract_y
 _atom_site_fract_z
 _atom_site_occupancy
  Gd3+  Gd0  1  0.47056590  0.74539496  0.74352479  1
  Gd3+  Gd1  1  0.55643470  0.75562474  0.03878562  1
  Gd3+  Gd2  1  0.24256955  0.73297675  0.72605725  1
  Gd3+  Gd3  1  0.22776153  0.22346744  0.73848874  1
  Gd3+  Gd4  1  0.78826367  0.26199214  0.73551470  1
  Gd3+  Gd5  1  0.55277704  0.76578642  0.26147885  1
  Gd3+  Gd6  1  -0.00142174  0.22766651  0.77283697  1
  Gd3+  Gd7  1  0.73226574  0.75371660  0.47757416  1
  Gd3+  Gd8  1  0.78398218  0.25014006  0.24619518  1
  Gd3+  Gd9  1  0.80811234  0.23454061  0.51000127  1
  Gd3+  Gd10  1  0.19752798  0.21167603  -0.01477177  1
  Gd3+  Gd11  1  0.48196076  0.24700575  0.73991883  1
  Gd3+  Gd12  1  0.46783422  0.73084850  0.50926392  1
  Gd3+  Gd13  1  0.22967820  0.75710090  0.00418160  1
  Gd3+  Gd14  1  0.74756083  0.76385117  0.76368651  1
  Gd3+  Gd15  1  0.52258614  0.24786051  0.24872229  1
  Gd3+  Gd16  1  0.49248251  0.24424470  -0.00100943  1
  Gd3+  Gd17  1  0.23404904  0.74356033  0.25472275  1
  Gd3+  Gd18  1  0.77318224  0.75624257  0.23307202  1
  Ta5+  Ta19  1  0.92878300  0.63016935  0.13716374  1
  Ta5+  Ta20  1  0.35975292  0.38673121  0.62728188  1
  Ta5+  Ta21  1  0.11360004  0.61993367  0.86813297  1
  Ta5+  Ta22  1  0.93786328  0.13484668  0.13895744  1
  Ta5+  Ta23  1  0.07433081  0.36071233  0.61322805  1
  Ta5+  Ta24  1  0.38112465  0.88352957  0.37529098  1
  Ta5+  Ta25  1  0.62818448  0.37690465  0.86047230  1
  Ta5+  Ta26  1  0.88192648  0.64615616  0.88741070  1
  Ta5+  Ta27  1  0.92153130  0.88446169  0.13362478  1
  Ta5+  Ta28  1  0.37934651  0.63673402  0.11366403  1
  Ta5+  Ta29  1  0.67521731  0.12017574  0.37249128  1
  Ta5+  Ta30  1  0.89861642  0.38405889  0.12225332  1
  Ta5+  Ta31  1  0.05824128  0.36075253  0.36708930  1
  Ta5+  Ta32  1  0.09426421  0.61375304  0.12778667  1
  Ta5+  Ta33  1  0.35395639  0.38005467  0.87606042  1
  Ta5+  Ta34  1  0.09786599  0.09784310  0.12737016  1
  Ta5+  Ta35  1  0.61975571  0.87580748  0.63037434  1
  Ta5+  Ta36  1  0.59289484  0.88952948  0.87639982  1
  Ta5+  Ta37  1  0.07910447  0.56987511  0.62271778  1
  Ta5+  Ta38  1  0.65809260  0.37325359  0.11460123  1
  Ta5+  Ta39  1  0.87356999  0.63553072  0.38991802  1
  Ta5+  Ta40  1  0.08512100  0.85623323  0.12947594  1
  Ta5+  Ta41  1  0.72681542  0.53646421  0.29408157  1
  Ta5+  Ta42  1  0.10299388  0.10426023  0.36126808  1
  Ta5+  Ta43  1  0.38109588  0.88001514  0.87843016  1
  Ta5+  Ta44  1  0.37898851  0.57392103  0.63100339  1
  Ta5+  Ta45  1  0.10263010  0.11450196  0.59919577  1
  Ta5+  Ta46  1  0.34652986  0.07974683  0.61951975  1
  Ta5+  Ta47  1  0.61378911  0.61841833  0.88443649  1
  Ta5+  Ta48  1  0.36474362  0.88751090  0.62386438  1
  Ta5+  Ta49  1  0.61849649  0.93533364  0.13336336  1
  Ta5+  Ta50  1  0.67999997  0.38400548  0.36589114  1
  Ta5+  Ta51  1  0.35007952  0.11651042  0.87623433  1
  Ta5+  Ta52  1  0.85791029  0.91174867  0.61606977  1
  Ta5+  Ta53  1  0.65373593  0.12066114  0.09482311  1
  Ta5+  Ta54  1  0.63595603  0.13105832  0.87088545  1
  Ta5+  Ta55  1  0.89120307  0.38876313  0.37893177  1
  Ta5+  Ta56  1  0.87678784  0.90305970  0.37704753  1
  Ta5+  Ta57  1  0.14175943  0.37778656  0.86448116  1
  Ta5+  Ta58  1  0.40119159  0.38852621  0.38204509  1
  Ta5+  Ta59  1  0.42831340  0.39804311  0.12574457  1
  Ta5+  Ta60  1  0.88520869  0.60656521  0.63402984  1
  Ta5+  Ta61  1  0.87767672  0.89378950  0.88369520  1
  Ta5+  Ta62  1  0.61960842  0.62453640  0.64131783  1
  Ta5+  Ta63  1  0.07421365  0.88061448  0.63083785  1
  Ta5+  Ta64  1  0.37421483  0.90540433  0.11000158  1
  Ta5+  Ta65  1  0.61080313  0.56732487  0.14309339  1
  Ta5+  Ta66  1  0.10042639  0.85490560  0.38853745  1
  Ta5+  Ta67  1  0.07830340  0.04866781  0.86412379  1
  Ta5+  Ta68  1  0.10841005  0.60953925  0.38697509  1
  Ta5+  Ta69  1  0.84700852  0.13041125  0.90956858  1
  Ta5+  Ta70  1  0.94213233  0.13927541  0.36219251  1
  Ta5+  Ta71  1  0.64254627  0.92912591  0.37986838  1
  Ta5+  Ta72  1  0.92140278  0.42955155  0.61814955  1
  Ta5+  Ta73  1  0.08411343  0.84569025  0.86373858  1
  Ta5+  Ta74  1  0.37752182  0.62261186  0.89826343  1
  W6+  W75  1  0.36856389  0.57182127  0.35862126  1
  W6+  W76  1  0.37813841  0.10648985  0.13653352  1
  W6+  W77  1  0.08981723  0.36148953  0.11538403  1
  W6+  W78  1  0.65033270  0.12294590  0.61889710  1
  W6+  W79  1  0.87683006  0.39901163  0.86865255  1
  W6+  W80  1  0.41410844  0.13445624  0.38894005  1
  W6+  W81  1  0.64477336  0.37774702  0.61071085  1
  W6+  W82  1  0.94028539  0.07185522  0.60011738  1
  O2-  O83  1  0.11362087  -0.02685901  0.11844279  1
  O2-  O84  1  0.12157666  -0.02520621  0.39019386  1
  O2-  O85  1  0.11411325  -0.00801722  0.59866093  1
  O2-  O86  1  0.15455657  -0.05282871  0.84895600  1
  O2-  O87  1  0.09848542  0.49523728  0.12011076  1
  O2-  O88  1  0.08902802  0.49064596  0.38355161  1
  O2-  O89  1  0.13779505  0.46768461  0.61898825  1
  O2-  O90  1  0.15273562  0.50542319  0.86588964  1
  O2-  O91  1  0.42304641  0.00057104  0.05422315  1
  O2-  O92  1  0.39561454  -0.00158358  0.38287420  1
  O2-  O93  1  0.42966170  -0.01029965  0.65189454  1
  O2-  O94  1  0.39376088  0.00370105  0.87524060  1
  O2-  O95  1  0.38051620  0.51036075  0.11651085  1
  O2-  O96  1  0.46075729  0.48647227  0.41537013  1
  O2-  O97  1  0.45155415  0.47415934  0.62043238  1
  O2-  O98  1  0.35205361  0.50265812  0.88472181  1
  O2-  O99  1  0.56196230  0.04756852  0.13850217  1
  O2-  O100  1  0.58204529  0.03890957  0.40182426  1
  O2-  O101  1  0.61812411  -0.00725797  0.63579321  1
  O2-  O102  1  0.60952075  0.01128784  0.87059988  1
  O2-  O103  1  0.54534396  0.45651514  0.12204279  1
  O2-  O104  1  0.61804336  0.49441484  0.33026042  1
  O2-  O105  1  0.62828929  0.50863287  0.62596465  1
  O2-  O106  1  0.59721848  0.49516212  0.86893184  1
  O2-  O107  1  0.92693593  0.00665264  0.13697309  1
  O2-  O108  1  0.92124225  0.01398345  0.35882536  1
  O2-  O109  1  0.80864352  0.01649591  0.63342984  1
  O2-  O110  1  0.82394446  0.00081405  0.89824630  1
  O2-  O111  1  0.91444960  0.50562271  0.13716771  1
  O2-  O112  1  0.88064043  0.51332135  0.39140565  1
  O2-  O113  1  0.80871479  0.51641611  0.62821810  1
  O2-  O114  1  0.84448003  0.53361436  0.87396498  1
  O2-  O115  1  0.11734573  0.22568324  0.10447520  1
  O2-  O116  1  0.04548454  0.22468470  0.35157482  1
  O2-  O117  1  0.09808908  0.23685333  0.65277704  1
  O2-  O118  1  0.13000010  0.24589106  0.85518513  1
  O2-  O119  1  0.15514534  0.73751569  0.12961865  1
  O2-  O120  1  0.16632839  0.74374770  0.38850058  1
  O2-  O121  1  0.18675416  0.84291749  0.65774220  1
  O2-  O122  1  0.17053792  0.74099375  0.85967063  1
  O2-  O123  1  0.42532887  0.26391073  0.12998764  1
  O2-  O124  1  0.44667855  0.26803154  0.37875262  1
  O2-  O125  1  0.35060911  0.26739992  0.65930327  1
  O2-  O126  1  0.39942488  0.24029877  0.86918013  1
  O2-  O127  1  0.34478744  0.76229081  0.10463128  1
  O2-  O128  1  0.48516693  0.81611928  0.38323440  1
  O2-  O129  1  0.36262273  0.75191030  0.63679835  1
  O2-  O130  1  0.35030650  0.74724578  0.86815208  1
  O2-  O131  1  0.60913428  0.24262031  0.10647032  1
  O2-  O132  1  0.69035846  0.24607770  0.38179875  1
  O2-  O133  1  0.69797768  0.25329483  0.61446600  1
  O2-  O134  1  0.58258828  0.25379412  0.87598378  1
  O2-  O135  1  0.65126531  0.80753332  0.15247431  1
  O2-  O136  1  0.67100702  0.80419034  0.34689608  1
  O2-  O137  1  0.60894511  0.75215807  0.68990180  1
  O2-  O138  1  0.62016316  0.75318142  0.89330083  1
  O2-  O139  1  0.93877557  0.26651321  0.14642422  1
  O2-  O140  1  0.86785955  0.25593009  0.37339460  1
  O2-  O141  1  0.89563214  0.18805712  0.66966210  1
  O2-  O142  1  0.87574115  0.25110090  0.86278076  1
  O2-  O143  1  0.90316639  0.75471775  0.15825364  1
  O2-  O144  1  0.83997423  0.76149279  0.36845745  1
  O2-  O145  1  0.74303209  0.83186062  0.62290992  1
  O2-  O146  1  0.82802344  0.76492065  0.89176029  1
  O2-  O147  1  0.10074088  0.09126551  -0.01960566  1
  O2-  O148  1  0.14520211  0.10536056  0.24430853  1
  O2-  O149  1  0.13200039  0.13953457  0.48251710  1
  O2-  O150  1  0.09419003  0.10016494  0.74991070  1
  O2-  O151  1  0.11233191  0.63603687  -0.00668025  1
  O2-  O152  1  0.13581444  0.62282220  0.26010508  1
  O2-  O153  1  0.12809881  0.62021340  0.51689231  1
  O2-  O154  1  0.13518218  0.62905196  0.72609053  1
  O2-  O155  1  0.33502838  0.14760386  -0.00049102  1
  O2-  O156  1  0.43625518  0.12957516  0.25790788  1
  O2-  O157  1  0.39573477  0.13446930  0.52509547  1
  O2-  O158  1  0.36818999  0.12655450  0.74303709  1
  O2-  O159  1  0.29872620  0.62654953  0.00192988  1
  O2-  O160  1  0.33727418  0.63788800  0.23437045  1
  O2-  O161  1  0.37230542  0.61726426  0.51273330  1
  O2-  O162  1  0.35425325  0.62336835  0.75137767  1
  O2-  O163  1  0.57207795  0.12367082  -0.01296589  1
  O2-  O164  1  0.67098480  0.14381997  0.24013557  1
  O2-  O165  1  0.71822260  0.11691419  0.49415728  1
  O2-  O166  1  0.58871051  0.14406228  0.75050264  1
  O2-  O167  1  0.62694491  0.61368746  0.01502274  1
  O2-  O168  1  0.65751080  0.64648899  0.23048918  1
  O2-  O169  1  0.61174715  0.67643690  0.52526154  1
  O2-  O170  1  0.67273544  0.62342183  0.77032664  1
  O2-  O171  1  0.90227718  0.14474694  0.01726274  1
  O2-  O172  1  0.87245233  0.13470379  0.25075820  1
  O2-  O173  1  0.92094440  0.14770130  0.48825721  1
  O2-  O174  1  0.96183173  0.10425206  0.85509712  1
  O2-  O175  1  0.90824902  0.64502899  0.00964408  1
  O2-  O176  1  0.84808252  0.62325994  0.25505369  1
  O2-  O177  1  0.85812253  0.66974402  0.52136959  1
  O2-  O178  1  0.85863850  0.66842251  0.74273931  1
  O2-  O179  1  0.08732683  0.36539557  -0.02474864  1
  O2-  O180  1  0.09296273  0.35973593  0.24882132  1
  O2-  O181  1  0.08754816  0.33610091  0.49231098  1
  O2-  O182  1  0.06844272  0.37134493  0.76139253  1
  O2-  O183  1  0.09414643  0.83261650  -0.00700192  1
  O2-  O184  1  0.11975218  0.84774426  0.25740377  1
  O2-  O185  1  0.07283588  0.83090494  0.51772929  1
  O2-  O186  1  0.04538786  0.81403570  0.74885003  1
  O2-  O187  1  0.42760031  0.37864284  -0.01382733  1
  O2-  O188  1  0.44888573  0.38538026  0.25122383  1
  O2-  O189  1  0.35439209  0.36900219  0.50492395  1
  O2-  O190  1  0.41704266  0.38155398  0.76543640  1
  O2-  O191  1  0.31187448  0.88451112  -0.01236148  1
  O2-  O192  1  0.34353303  0.84720040  0.26209556  1
  O2-  O193  1  0.35774350  0.84190858  0.49430051  1
  O2-  O194  1  0.33438728  0.87166322  0.75325074  1
  O2-  O195  1  0.62927827  0.37030346  -0.00922122  1
  O2-  O196  1  0.64394656  0.33847157  0.24158030  1
  O2-  O197  1  0.68748536  0.39672948  0.48915803  1
  O2-  O198  1  0.59369955  0.35274191  0.73789563  1
  O2-  O199  1  0.61938811  0.89807510  0.00841403  1
  O2-  O200  1  0.58768206  0.92183504  0.26537037  1
  O2-  O201  1  0.62486179  0.87297280  0.49918544  1
  O2-  O202  1  0.66196505  0.88404527  0.77219527  1
  O2-  O203  1  0.89725342  0.38874034  -0.00203456  1
  O2-  O204  1  0.86814382  0.38211010  0.25245149  1
  O2-  O205  1  0.87375630  0.37245838  0.51562867  1
  O2-  O206  1  0.88033288  0.37717933  0.73134085  1
  O2-  O207  1  0.89916149  0.87192138  0.00765081  1
  O2-  O208  1  0.84379746  0.88876241  0.25244444  1
  O2-  O209  1  0.80086633  0.88710666  0.47887462  1
  O2-  O210  1  0.84884130  0.87364452  0.75797032  1
  O2-  O211  1  -0.00531346  -0.05718402  -0.12714670  1
  O2-  O212  1  -0.01691821  -0.15499463  0.36791601  1
  O2-  O213  1  -0.06066966  -0.05426696  0.52261213  1
  O2-  O214  1  -0.03065999  -0.05225234  0.67847384  1
  O2-  O215  1  -0.00162847  0.64951351  -0.14805016  1
  O2-  O216  1  -0.00316229  0.65384139  0.38154395  1
  O2-  O217  1  -0.02721554  0.54162192  0.54799474  1
  O2-  O218  1  -0.02297272  0.54021845  0.70462857  1
  O2-  O219  1  0.23217907  0.11005078  -0.14203889  1
  O2-  O220  1  0.31403507  -0.01113762  0.17317436  1
  O2-  O221  1  0.28949939  -0.02664185  0.57834630  1
  O2-  O222  1  0.23140578  0.12497686  0.63076379  1
  O2-  O223  1  0.25435411  0.34297293  -0.05315750  1
  O2-  O224  1  0.30713255  0.45034214  0.33731660  1
  O2-  O225  1  0.29056765  0.48894032  0.64498116  1
  O2-  O226  1  0.25079558  0.36476088  0.78624941  1
  O2-  O227  1  0.47750721  -0.15576154  -0.04967123  1
  O2-  O228  1  0.48904272  -0.14135437  0.14110508  1
  O2-  O229  1  0.49561852  -0.15780168  0.61062033  1
  O2-  O230  1  0.49414448  -0.11896916  0.79767165  1
  O2-  O231  1  0.45481544  0.64995850  -0.00316897  1
  O2-  O232  1  0.50294632  0.65759963  0.15676206  1
  O2-  O233  1  0.49598767  0.63520958  0.64533018  1
  O2-  O234  1  0.49860881  0.63318299  0.84012201  1
  O2-  O235  1  0.72849398  0.14052296  -0.02073858  1
  O2-  O236  1  0.71627180  0.00743744  0.12201189  1
  O2-  O237  1  0.73873831  -0.00315155  0.35445984  1
  O2-  O238  1  0.74971617  0.14078965  0.81462185  1
  O2-  O239  1  0.77527779  0.33407349  0.11467006  1
  O2-  O240  1  0.71146428  0.49287185  0.15797357  1
  O2-  O241  1  0.74290032  0.62331067  0.39012398  1
  O2-  O242  1  0.74434982  0.37027678  0.84087726  1
