# generated using pymatgen
data_Gd19Ta56(WO20)8
_symmetry_space_group_name_H-M   'P 1'
_cell_length_a   15.46325124
_cell_length_b   15.44770684
_cell_length_c   15.34014240
_cell_angle_alpha   90.07061338
_cell_angle_beta   89.97657049
_cell_angle_gamma   90.11987656
_symmetry_Int_Tables_number   1
_chemical_formula_structural   Gd19Ta56(WO20)8
_chemical_formula_sum   'Gd19 Ta56 W8 O160'
_cell_volume   3664.31589094
_cell_formula_units_Z   1
loop_
 _symmetry_equiv_pos_site_id
 _symmetry_equiv_pos_as_xyz
  1  'x, y, z'
loop_
 _atom_type_symbol
 _atom_type_oxidation_number
  Gd3+  3.0
  Ta5+  5.0
  W6+  6.0
  O2-  -2.0
loop_
 _atom_site_type_symbol
 _atom_site_label
 _atom_site_symmetry_multiplicity
 _atom_site_fract_x
 _atom_site_fract_y
 _atom_site_fract_z
 _atom_site_occupancy
  Gd3+  Gd0  1  0.50483503  0.24873814  0.01135769  1
  Gd3+  Gd1  1  -0.01105748  0.23323322  0.26311903  1
  Gd3+  Gd2  1  0.76594386  0.77183692  0.27066055  1
  Gd3+  Gd3  1  0.74101074  0.75641867  0.74918083  1
  Gd3+  Gd4  1  0.23883926  0.25178054  0.26018359  1
  Gd3+  Gd5  1  0.50820635  0.75393785  0.24787197  1
  Gd3+  Gd6  1  0.28695825  0.25506051  0.48928929  1
  Gd3+  Gd7  1  0.67176998  0.24143178  0.48554704  1
  Gd3+  Gd8  1  0.27922060  0.74789486  0.46554967  1
  Gd3+  Gd9  1  0.02387699  0.76329944  0.74820754  1
  Gd3+  Gd10  1  0.75105040  0.25072379  0.02100050  1
  Gd3+  Gd11  1  -0.00811899  0.23951494  0.49721640  1
  Gd3+  Gd12  1  0.01056117  0.75981871  0.24619774  1
  Gd3+  Gd13  1  0.49967063  0.24854574  0.28152177  1
  Gd3+  Gd14  1  0.76113515  0.76088514  0.52062063  1
  Gd3+  Gd15  1  0.46230319  0.24476154  0.77119928  1
  Gd3+  Gd16  1  0.25717984  0.24679612  -0.01757174  1
  Gd3+  Gd17  1  0.50489570  0.75098441  -0.00726141  1
  Gd3+  Gd18  1  0.01372646  0.77356661  -0.00230622  1
  Ta5+  Ta19  1  0.37332590  0.38100087  0.13095113  1
  Ta5+  Ta20  1  0.36735874  0.87140311  0.88064479  1
  Ta5+  Ta21  1  0.89173400  0.60123489  0.62757590  1
  Ta5+  Ta22  1  0.15120209  0.12979877  0.62043107  1
  Ta5+  Ta23  1  0.36360578  0.42119910  0.37289107  1
  Ta5+  Ta24  1  0.36986839  0.11359038  0.11718166  1
  Ta5+  Ta25  1  0.54527544  0.11994858  0.61940944  1
  Ta5+  Ta26  1  0.87377032  0.61951299  0.38335387  1
  Ta5+  Ta27  1  0.12830638  0.38644732  0.61602152  1
  Ta5+  Ta28  1  0.60123634  0.85837001  0.39368844  1
  Ta5+  Ta29  1  0.85328577  0.10972406  0.38553277  1
  Ta5+  Ta30  1  0.89366996  0.36914271  0.64141234  1
  Ta5+  Ta31  1  0.88559467  0.62030522  0.87297632  1
  Ta5+  Ta32  1  0.36973956  0.62082875  0.87697749  1
  Ta5+  Ta33  1  0.60250398  0.06048101  0.37844347  1
  Ta5+  Ta34  1  0.87929889  0.62402554  0.12342150  1
  Ta5+  Ta35  1  0.60262069  0.41734501  0.39170145  1
  Ta5+  Ta36  1  0.13574956  0.62295195  0.87515719  1
  Ta5+  Ta37  1  0.08646682  0.87655107  0.40032301  1
  Ta5+  Ta38  1  0.59896080  0.62539178  0.62942040  1
  Ta5+  Ta39  1  0.35977948  0.87305626  0.13306464  1
  Ta5+  Ta40  1  0.39405913  0.38211988  0.62314242  1
  Ta5+  Ta41  1  0.36927746  0.40641528  0.87775970  1
  Ta5+  Ta42  1  0.87730272  0.38088333  0.13699863  1
  Ta5+  Ta43  1  0.45208973  0.61919966  0.38796122  1
  Ta5+  Ta44  1  0.64221672  0.61932594  0.87437003  1
  Ta5+  Ta45  1  0.12740138  0.62783672  0.61301611  1
  Ta5+  Ta46  1  0.64192335  0.87273054  0.12769501  1
  Ta5+  Ta47  1  0.35658021  0.86911195  0.63482073  1
  Ta5+  Ta48  1  0.34472202  0.05885414  0.86645549  1
  Ta5+  Ta49  1  0.88111758  0.10930459  0.63987258  1
  Ta5+  Ta50  1  0.94177704  0.92976756  0.60806144  1
  Ta5+  Ta51  1  0.62330622  0.11127924  0.13796520  1
  Ta5+  Ta52  1  0.42520479  0.87688110  0.38546710  1
  Ta5+  Ta53  1  0.13746392  0.88480439  0.61297892  1
  Ta5+  Ta54  1  0.89174993  0.37176770  0.88047937  1
  Ta5+  Ta55  1  0.59276905  0.87664213  0.62450567  1
  Ta5+  Ta56  1  0.56134275  0.37747814  0.62469428  1
  Ta5+  Ta57  1  0.37606276  0.11690003  0.62781065  1
  Ta5+  Ta58  1  0.12982179  0.11925758  0.11077770  1
  Ta5+  Ta59  1  0.63659775  0.62281041  0.12735244  1
  Ta5+  Ta60  1  0.62789172  0.37590622  0.14275925  1
  Ta5+  Ta61  1  0.16245996  0.87806456  0.13754713  1
  Ta5+  Ta62  1  0.87717272  0.13440803  0.87431484  1
  Ta5+  Ta63  1  0.37804322  0.62198815  0.13767200  1
  Ta5+  Ta64  1  0.13681068  0.38118981  0.86258530  1
  Ta5+  Ta65  1  0.37713683  0.62700785  0.62961096  1
  Ta5+  Ta66  1  0.11794097  0.62621961  0.37372652  1
  Ta5+  Ta67  1  0.61979227  0.64136191  0.38618614  1
  Ta5+  Ta68  1  0.35997781  0.10244587  0.37044024  1
  Ta5+  Ta69  1  0.13208229  0.61905706  0.12224426  1
  Ta5+  Ta70  1  0.91619905  0.87436218  0.39955813  1
  Ta5+  Ta71  1  0.64170148  0.87637127  0.87614861  1
  Ta5+  Ta72  1  0.14960495  0.89770067  0.87424877  1
  Ta5+  Ta73  1  0.86267096  0.11447276  0.13148187  1
  Ta5+  Ta74  1  0.84804402  0.37349371  0.38462053  1
  W6+  W75  1  0.11045349  0.11032894  0.37742878  1
  W6+  W76  1  0.60822852  0.12110442  0.87111670  1
  W6+  W77  1  0.89264050  0.89084433  0.12895754  1
  W6+  W78  1  0.10770862  0.38305961  0.37144370  1
  W6+  W79  1  0.61935051  0.37129438  0.87198076  1
  W6+  W80  1  0.12631221  0.13203402  0.85414721  1
  W6+  W81  1  0.12881615  0.36712988  0.11540422  1
  W6+  W82  1  0.89682983  0.88624767  0.86228135  1
  O2-  O83  1  0.15385044  0.00058717  0.12147688  1
  O2-  O84  1  0.13420361  -0.01302473  0.37950115  1
  O2-  O85  1  0.16739838  0.00736422  0.62339481  1
  O2-  O86  1  0.09143864  -0.00148827  0.85738976  1
  O2-  O87  1  0.11363714  0.50308094  0.11651005  1
  O2-  O88  1  0.14873109  0.51140930  0.36168946  1
  O2-  O89  1  0.16389640  0.50388374  0.60629772  1
  O2-  O90  1  0.09413766  0.50951628  0.87134404  1
  O2-  O91  1  0.38629840  -0.00738879  0.11682841  1
  O2-  O92  1  0.34778771  -0.01717979  0.37023706  1
  O2-  O93  1  0.35861708  -0.01066332  0.63410536  1
  O2-  O94  1  0.43381612  -0.02249965  0.84840546  1
  O2-  O95  1  0.39654580  0.50188968  0.14141493  1
  O2-  O96  1  0.33622826  0.53626583  0.36762016  1
  O2-  O97  1  0.36511422  0.50632551  0.62267636  1
  O2-  O98  1  0.43616827  0.51361225  0.88133793  1
  O2-  O99  1  0.59584416  -0.01190905  0.12744892  1
  O2-  O100  1  0.67790787  -0.03160066  0.36319448  1
  O2-  O101  1  0.57403150  -0.00409673  0.62295476  1
  O2-  O102  1  0.63722825  -0.00559773  0.88356184  1
  O2-  O103  1  0.61449993  0.50305392  0.13184921  1
  O2-  O104  1  0.66404136  0.51867768  0.36884601  1
  O2-  O105  1  0.57794398  0.50675808  0.63554639  1
  O2-  O106  1  0.65033282  0.50083500  0.87398007  1
  O2-  O107  1  0.93389848  0.01899603  0.13618214  1
  O2-  O108  1  0.86405562  -0.01004460  0.39699957  1
  O2-  O109  1  0.82858249  -0.00069863  0.62753842  1
  O2-  O110  1  0.86717552  0.01646257  0.86327682  1
  O2-  O111  1  0.90538849  0.50573912  0.14187582  1
  O2-  O112  1  0.85780269  0.49612975  0.36858955  1
  O2-  O113  1  0.84140439  0.49302414  0.64406818  1
  O2-  O114  1  0.87434126  0.49585093  0.87116459  1
  O2-  O115  1  0.18358783  0.23858340  0.11616186  1
  O2-  O116  1  0.08317030  0.24757147  0.38057177  1
  O2-  O117  1  0.17303046  0.26580938  0.59213661  1
  O2-  O118  1  0.17497347  0.26096434  0.85987760  1
  O2-  O119  1  0.10627587  0.75624706  0.12503157  1
  O2-  O120  1  0.13045835  0.75484949  0.36431032  1
  O2-  O121  1  0.09940316  0.75201539  0.61705490  1
  O2-  O122  1  0.10941406  0.75543793  0.87332840  1
  O2-  O123  1  0.36363145  0.24745430  0.10117223  1
  O2-  O124  1  0.37375716  0.23983006  0.35639358  1
  O2-  O125  1  0.36452826  0.25335035  0.62525474  1
  O2-  O126  1  0.39070000  0.28000544  0.90076971  1
  O2-  O127  1  0.40827092  0.75098641  0.13528746  1
  O2-  O128  1  0.40122511  0.74582693  0.37009837  1
  O2-  O129  1  0.30911695  0.73694169  0.61440984  1
  O2-  O130  1  0.39409168  0.74264219  0.88677375  1
  O2-  O131  1  0.64513010  0.24551659  0.15132363  1
  O2-  O132  1  0.56792719  0.28716688  0.39836451  1
  O2-  O133  1  0.57022937  0.24853306  0.59835717  1
  O2-  O134  1  0.56411420  0.24745814  0.87801951  1
  O2-  O135  1  0.58757597  0.74690181  0.12023522  1
  O2-  O136  1  0.68618783  0.75751222  0.39265463  1
  O2-  O137  1  0.65206573  0.75293932  0.63074475  1
  O2-  O138  1  0.59370546  0.74613552  0.86480274  1
  O2-  O139  1  0.87455724  0.24792532  0.12863431  1
  O2-  O140  1  0.88882798  0.25098048  0.38642005  1
  O2-  O141  1  0.92316759  0.24741421  0.63100255  1
  O2-  O142  1  0.82725116  0.26171729  0.89434928  1
  O2-  O143  1  0.92508485  0.74359546  0.12237498  1
  O2-  O144  1  0.86061314  0.74885814  0.39505800  1
  O2-  O145  1  0.83008576  0.70728161  0.64862757  1
  O2-  O146  1  0.92779938  0.74489458  0.86790800  1
  O2-  O147  1  0.15236864  0.12911768  -0.01177913  1
  O2-  O148  1  0.11577764  0.14196732  0.23847780  1
  O2-  O149  1  0.08505260  0.12652975  0.51464783  1
  O2-  O150  1  0.10288873  0.15934767  0.72484643  1
  O2-  O151  1  0.09521107  0.63922400  -0.00026977  1
  O2-  O152  1  0.08765516  0.63086585  0.23962408  1
  O2-  O153  1  0.17040819  0.64160901  0.49313526  1
  O2-  O154  1  0.13013609  0.63366048  0.74609341  1
  O2-  O155  1  0.34092388  0.10996942  -0.01150614  1
  O2-  O156  1  0.32790068  0.12205421  0.23442945  1
  O2-  O157  1  0.37107622  0.12118478  0.49524294  1
  O2-  O158  1  0.36108630  0.12760534  0.76547196  1
  O2-  O159  1  0.41014664  0.62858578  0.01604927  1
  O2-  O160  1  0.44024908  0.62210519  0.24885871  1
  O2-  O161  1  0.40838949  0.63693972  0.50755139  1
  O2-  O162  1  0.34294779  0.61984866  0.75969948  1
  O2-  O163  1  0.63192462  0.15113009  0.01162167  1
  O2-  O164  1  0.61950998  0.11934687  0.26296552  1
  O2-  O165  1  0.58813160  0.11573483  0.49074168  1
  O2-  O166  1  0.56367339  0.13282630  0.74252030  1
  O2-  O167  1  0.61297385  0.63074756  -0.00260503  1
  O2-  O168  1  0.64619177  0.65563297  0.25119996  1
  O2-  O169  1  0.64509436  0.63139890  0.51490738  1
  O2-  O170  1  0.66152114  0.62855704  0.74350924  1
  O2-  O171  1  0.84362924  0.13184513  0.00217860  1
  O2-  O172  1  0.85299743  0.13485340  0.25784955  1
  O2-  O173  1  0.87242841  0.13621024  0.51327106  1
  O2-  O174  1  0.84176416  0.14961188  0.75144704  1
  O2-  O175  1  0.91015371  0.62390587  -0.00415067  1
  O2-  O176  1  0.86657687  0.64766469  0.25331059  1
  O2-  O177  1  0.84652866  0.61515113  0.50816147  1
  O2-  O178  1  0.93459797  0.61892740  0.75369079  1
  O2-  O179  1  0.16554788  0.37093384  -0.01438672  1
  O2-  O180  1  0.10110593  0.33841041  0.24314668  1
  O2-  O181  1  0.06843037  0.37487089  0.50203047  1
  O2-  O182  1  0.15094727  0.37951057  0.73767313  1
  O2-  O183  1  0.11509906  0.88087092  -0.00358944  1
  O2-  O184  1  0.09143484  0.87886502  0.24556957  1
  O2-  O185  1  0.18418779  0.85370522  0.49928716  1
  O2-  O186  1  0.13934844  0.86585466  0.74604417  1
  O2-  O187  1  0.35510102  0.39821063  0.00846046  1
  O2-  O188  1  0.25823884  0.38016152  0.17268200  1
  O2-  O189  1  0.37995699  0.37618999  0.48897688  1
  O2-  O190  1  0.39059027  0.38008441  0.75621098  1
  O2-  O191  1  0.41865845  0.87026943  0.00235775  1
  O2-  O192  1  0.43106624  0.87850179  0.24954807  1
  O2-  O193  1  0.37457491  0.85911696  0.50209579  1
  O2-  O194  1  0.33711206  0.85343916  0.75851364  1
  O2-  O195  1  0.63806778  0.35011105  0.01185338  1
  O2-  O196  1  0.59850699  0.38089101  0.26352101  1
  O2-  O197  1  0.63350572  0.39464268  0.51274438  1
  O2-  O198  1  0.57775500  0.35593094  0.74437393  1
  O2-  O199  1  0.62003353  0.85691499  0.00045773  1
  O2-  O200  1  0.62799245  0.85059577  0.25398954  1
  O2-  O201  1  0.65802098  0.87533079  0.51728226  1
  O2-  O202  1  0.64048119  0.87512093  0.74430769  1
  O2-  O203  1  0.87530074  0.37901058  0.00854745  1
  O2-  O204  1  0.90177951  0.36282397  0.26332128  1
  O2-  O205  1  0.87149023  0.37277078  0.51033834  1
  O2-  O206  1  0.85496269  0.35997884  0.75817487  1
  O2-  O207  1  0.91359178  0.87771689  -0.00397461  1
  O2-  O208  1  0.89217578  0.85898219  0.26863412  1
  O2-  O209  1  0.87885400  0.85294809  0.52846150  1
  O2-  O210  1  0.92510219  0.87306089  0.72074764  1
  O2-  O211  1  -0.00866109  0.15923376  -0.12317046  1
  O2-  O212  1  -0.01977453  0.11530769  0.36519229  1
  O2-  O213  1  0.03826243  -0.07914738  0.52385978  1
  O2-  O214  1  -0.01261747  0.05149991  0.65027023  1
  O2-  O215  1  0.01006037  0.35571216  -0.13202391  1
  O2-  O216  1  -0.00384013  0.62691843  0.39262580  1
  O2-  O217  1  0.00915983  0.59682142  0.59152535  1
  O2-  O218  1  0.00546040  0.40922384  0.65603884  1
  O2-  O219  1  0.26157470  -0.16578723  0.06414669  1
  O2-  O220  1  0.26283949  -0.11343870  0.21269444  1
  O2-  O221  1  0.23859920  0.15040706  0.38541231  1
  O2-  O222  1  0.26167816  -0.04646342  0.90409163  1
  O2-  O223  1  0.25099668  0.61661583  -0.08666767  1
  O2-  O224  1  0.25487540  0.63036801  0.13495929  1
  O2-  O225  1  0.25071462  0.35932273  0.37394157  1
  O2-  O226  1  0.25665757  0.44065413  0.85871776  1
  O2-  O227  1  0.49407337  0.14388716  0.12827423  1
  O2-  O228  1  0.48196440  0.10970277  0.34017564  1
  O2-  O229  1  0.52001531  -0.03544952  0.41428982  1
  O2-  O230  1  0.47960506  -0.16129794  0.64114026  1
  O2-  O231  1  0.50105276  0.34705017  0.12157923  1
  O2-  O232  1  0.40676188  0.37420427  0.26405551  1
  O2-  O233  1  0.48984264  0.47403597  0.39063415  1
  O2-  O234  1  0.48883376  0.66171954  0.67213884  1
  O2-  O235  1  0.75839572  -0.16750925  0.13211270  1
  O2-  O236  1  0.74407822  0.08161873  0.13353375  1
  O2-  O237  1  0.72957954  0.13429800  0.39788533  1
  O2-  O238  1  0.75885693  -0.15600786  0.87092008  1
  O2-  O239  1  0.75901670  0.62989106  0.10727472  1
  O2-  O240  1  0.75523093  0.38634803  0.14790035  1
  O2-  O241  1  0.73191553  0.34888599  0.37899498  1
  O2-  O242  1  0.76753352  0.65377155  0.87381421  1
