# generated using pymatgen
data_Gd19Ta56(WO20)8
_symmetry_space_group_name_H-M   'P 1'
_cell_length_a   15.50958375
_cell_length_b   15.49102249
_cell_length_c   15.35199430
_cell_angle_alpha   90.07609461
_cell_angle_beta   89.93368492
_cell_angle_gamma   89.82507220
_symmetry_Int_Tables_number   1
_chemical_formula_structural   Gd19Ta56(WO20)8
_chemical_formula_sum   'Gd19 Ta56 W8 O160'
_cell_volume   3688.43663685
_cell_formula_units_Z   1
loop_
 _symmetry_equiv_pos_site_id
 _symmetry_equiv_pos_as_xyz
  1  'x, y, z'
loop_
 _atom_type_symbol
 _atom_type_oxidation_number
  Gd3+  3.0
  Ta5+  5.0
  W6+  6.0
  O2-  -2.0
loop_
 _atom_site_type_symbol
 _atom_site_label
 _atom_site_symmetry_multiplicity
 _atom_site_fract_x
 _atom_site_fract_y
 _atom_site_fract_z
 _atom_site_occupancy
  Gd3+  Gd0  1  -0.01450964  0.22032152  0.02342477  1
  Gd3+  Gd1  1  0.00358447  0.24060778  0.49475674  1
  Gd3+  Gd2  1  -0.00629544  0.22489727  0.74663519  1
  Gd3+  Gd3  1  0.23721407  0.24657223  0.01079341  1
  Gd3+  Gd4  1  0.27242564  0.74788378  0.26896327  1
  Gd3+  Gd5  1  0.72339050  0.74470058  0.26560782  1
  Gd3+  Gd6  1  0.25645820  0.75446585  0.74860352  1
  Gd3+  Gd7  1  0.74367666  0.74155457  0.00212953  1
  Gd3+  Gd8  1  0.50329565  0.26044923  0.00292802  1
  Gd3+  Gd9  1  0.75045674  0.26055349  -0.01930814  1
  Gd3+  Gd10  1  0.74492828  0.74437513  0.74973301  1
  Gd3+  Gd11  1  0.24901875  0.75555354  0.00494388  1
  Gd3+  Gd12  1  -0.00208533  0.73910844  0.51679862  1
  Gd3+  Gd13  1  0.00441353  0.24447724  0.25786225  1
  Gd3+  Gd14  1  0.49863395  0.75032366  0.71805998  1
  Gd3+  Gd15  1  0.23564685  0.25884162  0.77518448  1
  Gd3+  Gd16  1  0.49532117  0.78155309  0.48417177  1
  Gd3+  Gd17  1  0.50229231  0.26478916  0.73053245  1
  Gd3+  Gd18  1  -0.01841206  0.74856240  -0.00710672  1
  Ta5+  Ta19  1  0.11684672  0.86385652  0.37855201  1
  Ta5+  Ta20  1  0.10177624  0.37193794  0.63158985  1
  Ta5+  Ta21  1  0.87350457  0.86444070  0.37752539  1
  Ta5+  Ta22  1  0.36944288  0.89300833  0.62447363  1
  Ta5+  Ta23  1  0.34205982  0.37697604  0.60155630  1
  Ta5+  Ta24  1  0.38079910  0.12554008  0.87635971  1
  Ta5+  Ta25  1  0.82747621  0.11742703  0.13725948  1
  Ta5+  Ta26  1  0.90454501  0.88122194  0.13733093  1
  Ta5+  Ta27  1  0.35678028  0.13996947  0.61247126  1
  Ta5+  Ta28  1  0.12078341  0.61466955  0.13204244  1
  Ta5+  Ta29  1  0.62610110  0.88850241  0.11847488  1
  Ta5+  Ta30  1  0.10821987  0.87841650  0.13527349  1
  Ta5+  Ta31  1  0.36909698  0.61763101  0.61228173  1
  Ta5+  Ta32  1  0.39409662  0.88099852  0.12177952  1
  Ta5+  Ta33  1  0.66815142  0.40641153  0.85166272  1
  Ta5+  Ta34  1  0.61132777  0.87947422  0.87741347  1
  Ta5+  Ta35  1  0.14213419  0.37151518  0.38192051  1
  Ta5+  Ta36  1  0.12286064  0.62251334  0.37887294  1
  Ta5+  Ta37  1  0.86418910  0.37308706  0.37557131  1
  Ta5+  Ta38  1  0.86898466  0.61606799  0.62874794  1
  Ta5+  Ta39  1  0.12580536  0.61812484  0.64199428  1
  Ta5+  Ta40  1  0.35172692  0.39400063  0.88585075  1
  Ta5+  Ta41  1  0.90441086  0.37897191  0.62908536  1
  Ta5+  Ta42  1  0.12978270  0.11354652  0.62570713  1
  Ta5+  Ta43  1  0.62266553  0.12651933  0.86333160  1
  Ta5+  Ta44  1  0.11953752  0.87155558  0.63554643  1
  Ta5+  Ta45  1  0.30738166  0.37498836  0.34389395  1
  Ta5+  Ta46  1  0.65176275  0.12558255  0.61530648  1
  Ta5+  Ta47  1  0.08857600  0.36629317  0.89546090  1
  Ta5+  Ta48  1  0.37001753  0.38267473  0.14048555  1
  Ta5+  Ta49  1  0.86097626  0.87825157  0.87918906  1
  Ta5+  Ta50  1  0.39992740  0.62417025  0.87609605  1
  Ta5+  Ta51  1  0.88149008  0.36883160  0.13857794  1
  Ta5+  Ta52  1  0.85922607  0.11191143  0.38365566  1
  Ta5+  Ta53  1  0.60087698  0.62580092  0.87337292  1
  Ta5+  Ta54  1  0.85109901  0.11645069  0.61995539  1
  Ta5+  Ta55  1  0.61852350  0.37047988  0.36382216  1
  Ta5+  Ta56  1  0.88595630  0.87455579  0.63112842  1
  Ta5+  Ta57  1  0.91434778  0.61262959  0.13592550  1
  Ta5+  Ta58  1  0.10518468  0.87883912  0.88947569  1
  Ta5+  Ta59  1  0.62432778  0.14367456  0.37689254  1
  Ta5+  Ta60  1  0.11320404  0.61171236  0.89806581  1
  Ta5+  Ta61  1  0.37701429  0.12468944  0.12600624  1
  Ta5+  Ta62  1  0.87500090  0.61986948  0.37326166  1
  Ta5+  Ta63  1  0.13829944  0.11466472  0.37280651  1
  Ta5+  Ta64  1  0.66317658  0.37465790  0.60525896  1
  Ta5+  Ta65  1  0.14211885  0.37064949  0.14739936  1
  Ta5+  Ta66  1  0.87377755  0.60717800  0.88115078  1
  Ta5+  Ta67  1  0.14747683  0.11248723  0.15182680  1
  Ta5+  Ta68  1  0.62259888  0.61738031  0.60646611  1
  Ta5+  Ta69  1  0.12501049  0.10972217  0.89004412  1
  Ta5+  Ta70  1  0.30426273  0.13702330  0.36486976  1
  Ta5+  Ta71  1  0.40437212  0.87736811  0.88300213  1
  Ta5+  Ta72  1  0.71756474  0.37668047  0.18064447  1
  Ta5+  Ta73  1  0.91993326  0.36665327  0.88480208  1
  Ta5+  Ta74  1  0.39959711  0.62530405  0.12162452  1
  W6+  W75  1  0.38575974  0.61048736  0.37128240  1
  W6+  W76  1  0.36515261  0.89363375  0.36758032  1
  W6+  W77  1  0.86964415  0.10739690  0.87573914  1
  W6+  W78  1  0.61993447  0.89423989  0.36397954  1
  W6+  W79  1  0.62945466  0.89039894  0.61981807  1
  W6+  W80  1  0.66392799  0.13874312  0.12777598  1
  W6+  W81  1  0.59256610  0.60688420  0.36444930  1
  W6+  W82  1  0.65197091  0.60010664  0.12297001  1
  O2-  O83  1  0.16460892  -0.01574911  0.14125923  1
  O2-  O84  1  0.13153425  -0.01833967  0.37408743  1
  O2-  O85  1  0.10811317  -0.00621216  0.63776532  1
  O2-  O86  1  0.07379160  -0.00184429  0.88564924  1
  O2-  O87  1  0.15315814  0.49848066  0.12694965  1
  O2-  O88  1  0.13932480  0.50421570  0.37994770  1
  O2-  O89  1  0.11575427  0.49855912  0.64934149  1
  O2-  O90  1  0.09758082  0.49333110  0.89791550  1
  O2-  O91  1  0.40821093  0.00132363  0.12164177  1
  O2-  O92  1  0.32812155  0.01909040  0.36915891  1
  O2-  O93  1  0.36029945  0.01598681  0.63235195  1
  O2-  O94  1  0.39498166  0.00062928  0.87075186  1
  O2-  O95  1  0.36549428  0.50825014  0.11651438  1
  O2-  O96  1  0.34462445  0.49149695  0.34857207  1
  O2-  O97  1  0.36491902  0.49266757  0.63986295  1
  O2-  O98  1  0.33869501  0.51474293  0.86677743  1
  O2-  O99  1  0.62344168  0.00569405  0.11374020  1
  O2-  O100  1  0.59926367  0.02877801  0.36333136  1
  O2-  O101  1  0.61157766  0.01831988  0.65129568  1
  O2-  O102  1  0.61388448  0.00590533  0.87325573  1
  O2-  O103  1  0.68856273  0.47211154  0.11372757  1
  O2-  O104  1  0.56211103  0.47416386  0.38420711  1
  O2-  O105  1  0.62603200  0.49198293  0.62869846  1
  O2-  O106  1  0.67901815  0.52723399  0.84297804  1
  O2-  O107  1  0.85480751  -0.00744472  0.11894542  1
  O2-  O108  1  0.86013177  -0.01424014  0.38784009  1
  O2-  O109  1  0.89555031  -0.00731660  0.62410944  1
  O2-  O110  1  0.81122276  -0.01542644  0.88893021  1
  O2-  O111  1  0.89227534  0.49524768  0.11690081  1
  O2-  O112  1  0.85457704  0.50109389  0.37644308  1
  O2-  O113  1  0.91656429  0.50322621  0.62650626  1
  O2-  O114  1  0.88636603  0.49080644  0.90255395  1
  O2-  O115  1  0.15494069  0.24036627  0.15688561  1
  O2-  O116  1  0.10411385  0.24435900  0.37432661  1
  O2-  O117  1  0.08985079  0.23933485  0.62328868  1
  O2-  O118  1  0.13939507  0.23950421  0.89459811  1
  O2-  O119  1  0.13167107  0.75001387  0.10775743  1
  O2-  O120  1  0.17667035  0.74264198  0.39261025  1
  O2-  O121  1  0.09060321  0.74404281  0.65108260  1
  O2-  O122  1  0.12177731  0.74891361  0.91217719  1
  O2-  O123  1  0.36827323  0.25804026  0.10027866  1
  O2-  O124  1  0.33966698  0.25863595  0.36365867  1
  O2-  O125  1  0.40576129  0.26667516  0.61455183  1
  O2-  O126  1  0.34324281  0.25418172  0.90050918  1
  O2-  O127  1  0.34393542  0.74984927  0.12181090  1
  O2-  O128  1  0.39103641  0.75114839  0.37680475  1
  O2-  O129  1  0.38576838  0.74847917  0.61471031  1
  O2-  O130  1  0.33279573  0.76145535  0.88005169  1
  O2-  O131  1  0.68538176  0.27823541  0.11238757  1
  O2-  O132  1  0.56696147  0.26222900  0.38775178  1
  O2-  O133  1  0.59772059  0.27105508  0.61548280  1
  O2-  O134  1  0.50611333  0.19269250  0.86796533  1
  O2-  O135  1  0.66927605  0.74937658  0.12633118  1
  O2-  O136  1  0.61028388  0.75252879  0.36350342  1
  O2-  O137  1  0.59979881  0.74852662  0.60295581  1
  O2-  O138  1  0.65700004  0.75244171  0.87934279  1
  O2-  O139  1  0.89754753  0.23233470  0.14989035  1
  O2-  O140  1  0.90144380  0.24083938  0.37229117  1
  O2-  O141  1  0.91318453  0.24527214  0.61954075  1
  O2-  O142  1  0.92441207  0.23267484  0.87965399  1
  O2-  O143  1  0.92816346  0.74876874  0.13122248  1
  O2-  O144  1  0.82840337  0.74157522  0.37762384  1
  O2-  O145  1  0.90822045  0.73756159  0.64279295  1
  O2-  O146  1  0.83531844  0.74169482  0.87303382  1
  O2-  O147  1  0.11129124  0.12437045  0.01999834  1
  O2-  O148  1  0.07520149  0.10880331  0.25228367  1
  O2-  O149  1  0.12863332  0.12085741  0.50165682  1
  O2-  O150  1  0.11972557  0.13398977  0.76178583  1
  O2-  O151  1  0.18776846  0.61866684  0.00112169  1
  O2-  O152  1  0.16788845  0.63986915  0.25332386  1
  O2-  O153  1  0.10650931  0.62899604  0.51492762  1
  O2-  O154  1  0.15576247  0.62841199  0.78272930  1
  O2-  O155  1  0.42492462  0.13058176  -0.00295100  1
  O2-  O156  1  0.35164558  0.13816865  0.24152963  1
  O2-  O157  1  0.33464513  0.14394198  0.49620226  1
  O2-  O158  1  0.38841299  0.15538257  0.75175834  1
  O2-  O159  1  0.36789584  0.64229138  -0.00469192  1
  O2-  O160  1  0.37077070  0.63782482  0.24108853  1
  O2-  O161  1  0.34241862  0.60700816  0.49710730  1
  O2-  O162  1  0.37770770  0.65061795  0.75337663  1
  O2-  O163  1  0.62316317  0.16487149  -0.01286945  1
  O2-  O164  1  0.64708692  0.16256365  0.25791251  1
  O2-  O165  1  0.59773676  0.14029781  0.50718383  1
  O2-  O166  1  0.60292811  0.15505349  0.74223953  1
  O2-  O167  1  0.65150726  0.62175308  -0.01487053  1
  O2-  O168  1  0.66089143  0.61121103  0.25725486  1
  O2-  O169  1  0.63865643  0.60791958  0.48841194  1
  O2-  O170  1  0.61448558  0.65262796  0.74574189  1
  O2-  O171  1  0.84797634  0.14575456  0.01002534  1
  O2-  O172  1  0.86338486  0.10933182  0.26029833  1
  O2-  O173  1  0.91284384  0.12255036  0.50326474  1
  O2-  O174  1  0.89635530  0.11417800  0.73890720  1
  O2-  O175  1  0.85954332  0.64128373  0.01051840  1
  O2-  O176  1  0.85020011  0.63289637  0.24240853  1
  O2-  O177  1  0.88686238  0.63121728  0.50301242  1
  O2-  O178  1  0.84492268  0.60856032  0.76093460  1
  O2-  O179  1  0.10487037  0.34311580  0.02691204  1
  O2-  O180  1  0.09009686  0.37438653  0.26027057  1
  O2-  O181  1  0.12149010  0.36828463  0.50762776  1
  O2-  O182  1  0.10961172  0.34267334  0.76484131  1
  O2-  O183  1  0.17075632  0.88509757  -0.00379796  1
  O2-  O184  1  0.14997393  0.84018323  0.25362500  1
  O2-  O185  1  0.09850844  0.85670891  0.51019041  1
  O2-  O186  1  0.15166024  0.86573994  0.77485313  1
  O2-  O187  1  0.41378513  0.38599918  -0.00436529  1
  O2-  O188  1  0.42061605  0.37102587  0.24436461  1
  O2-  O189  1  0.32314995  0.38251136  0.48617187  1
  O2-  O190  1  0.38451904  0.35961278  0.76906873  1
  O2-  O191  1  0.34799429  0.87635973  0.00434125  1
  O2-  O192  1  0.33533018  0.87986412  0.22910890  1
  O2-  O193  1  0.38338471  0.88465960  0.50236345  1
  O2-  O194  1  0.35395766  0.86490085  0.75514425  1
  O2-  O195  1  0.60722391  0.35163485  -0.05815613  1
  O2-  O196  1  0.60478160  0.36665190  0.24296098  1
  O2-  O197  1  0.67729351  0.37434743  0.48525189  1
  O2-  O198  1  0.61360423  0.36639508  0.75189507  1
  O2-  O199  1  0.67082139  0.87418869  -0.00211656  1
  O2-  O200  1  0.66973426  0.88255883  0.23319856  1
  O2-  O201  1  0.58518233  0.88937934  0.49239921  1
  O2-  O202  1  0.66208156  0.86604134  0.75940554  1
  O2-  O203  1  0.87994756  0.33658578  0.01050711  1
  O2-  O204  1  0.92021608  0.37597240  0.26488536  1
  O2-  O205  1  0.90916303  0.36697288  0.49307321  1
  O2-  O206  1  0.91899846  0.36581391  0.75391946  1
  O2-  O207  1  0.85565721  0.84545091  0.00879657  1
  O2-  O208  1  0.84728314  0.85633476  0.24678122  1
  O2-  O209  1  0.88874068  0.84879296  0.50561838  1
  O2-  O210  1  0.84563721  0.86382235  0.75370155  1
  O2-  O211  1  0.01377219  -0.11791295  0.04721229  1
  O2-  O212  1  0.00663445  -0.08918750  0.20309645  1
  O2-  O213  1  -0.00401447  -0.16400527  0.36964399  1
  O2-  O214  1  -0.01406734  -0.15240606  0.87282276  1
  O2-  O215  1  0.02680379  0.61658456  0.04196801  1
  O2-  O216  1  0.01871672  0.59703086  0.20228012  1
  O2-  O217  1  0.00143325  0.64509709  0.37284329  1
  O2-  O218  1  -0.00750863  0.64492057  0.87280621  1
  O2-  O219  1  0.25656869  0.11397465  -0.11490638  1
  O2-  O220  1  0.26350513  0.11741323  0.07891305  1
  O2-  O221  1  0.24355928  -0.14576268  0.62556231  1
  O2-  O222  1  0.24472599  0.16982806  0.65323894  1
  O2-  O223  1  0.23300362  0.37757988  -0.10211381  1
  O2-  O224  1  0.26269913  0.37443212  0.20730208  1
  O2-  O225  1  0.24593516  0.64668793  0.64059746  1
  O2-  O226  1  0.23668212  0.35107062  0.65518359  1
  O2-  O227  1  0.50656292  -0.12231473  -0.03870506  1
  O2-  O228  1  0.50996125  -0.15173369  0.13876539  1
  O2-  O229  1  0.49032600  -0.12121169  0.63837326  1
  O2-  O230  1  0.50651974  -0.13402778  0.80742447  1
  O2-  O231  1  0.50292015  0.54702008  -0.12019065  1
  O2-  O232  1  0.51524669  0.62903069  0.11715780  1
  O2-  O233  1  0.49439685  0.61379198  0.61282014  1
  O2-  O234  1  0.49743123  0.70703750  0.87087381  1
  O2-  O235  1  0.73700553  0.16536805  -0.13830765  1
  O2-  O236  1  0.74594838  0.15009308  0.40403799  1
  O2-  O237  1  0.75258866  0.06131290  0.56653365  1
  O2-  O238  1  0.75430998  0.19116183  0.65465594  1
  O2-  O239  1  0.77513521  0.35421457  -0.13787472  1
  O2-  O240  1  0.74624160  0.35902873  0.32279935  1
  O2-  O241  1  0.74619681  0.64311742  0.62857033  1
  O2-  O242  1  0.77755974  0.37759246  0.64181885  1
