# generated using pymatgen
data_Gd19Ta56(WO20)8
_symmetry_space_group_name_H-M   'P 1'
_cell_length_a   15.49824342
_cell_length_b   15.51545337
_cell_length_c   15.35979527
_cell_angle_alpha   89.83064205
_cell_angle_beta   90.06066170
_cell_angle_gamma   89.99779628
_symmetry_Int_Tables_number   1
_chemical_formula_structural   Gd19Ta56(WO20)8
_chemical_formula_sum   'Gd19 Ta56 W8 O160'
_cell_volume   3693.43307482
_cell_formula_units_Z   1
loop_
 _symmetry_equiv_pos_site_id
 _symmetry_equiv_pos_as_xyz
  1  'x, y, z'
loop_
 _atom_type_symbol
 _atom_type_oxidation_number
  Gd3+  3.0
  Ta5+  5.0
  W6+  6.0
  O2-  -2.0
loop_
 _atom_site_type_symbol
 _atom_site_label
 _atom_site_symmetry_multiplicity
 _atom_site_fract_x
 _atom_site_fract_y
 _atom_site_fract_z
 _atom_site_occupancy
  Gd3+  Gd0  1  0.25385297  0.73826329  -0.01447034  1
  Gd3+  Gd1  1  0.25307007  0.74675403  0.26380793  1
  Gd3+  Gd2  1  0.54102446  0.77275073  0.75744862  1
  Gd3+  Gd3  1  0.23587623  0.26313144  0.50887413  1
  Gd3+  Gd4  1  -0.01251384  0.73405370  0.50819407  1
  Gd3+  Gd5  1  0.49262252  0.24836792  0.25473305  1
  Gd3+  Gd6  1  0.76516266  0.25019352  0.50469210  1
  Gd3+  Gd7  1  0.72743948  0.74400105  -0.02156915  1
  Gd3+  Gd8  1  0.00491057  0.80609801  -0.01711331  1
  Gd3+  Gd9  1  -0.00113358  0.24021693  0.24168639  1
  Gd3+  Gd10  1  0.00471373  0.75015286  0.22956638  1
  Gd3+  Gd11  1  0.23711531  0.25400262  -0.03927222  1
  Gd3+  Gd12  1  -0.00666745  0.24834446  -0.01521089  1
  Gd3+  Gd13  1  0.76891282  0.23585632  0.76296709  1
  Gd3+  Gd14  1  0.48895642  0.25000791  0.00464864  1
  Gd3+  Gd15  1  0.76552482  0.24655451  0.26775464  1
  Gd3+  Gd16  1  0.74623933  0.74315432  0.49743799  1
  Gd3+  Gd17  1  0.02172328  0.25273360  0.74383548  1
  Gd3+  Gd18  1  0.24062426  0.72668165  0.51494367  1
  Ta5+  Ta19  1  0.38189296  0.12322166  0.38552121  1
  Ta5+  Ta20  1  0.14766558  0.37994628  0.14498998  1
  Ta5+  Ta21  1  0.85239689  0.86428439  0.63260450  1
  Ta5+  Ta22  1  0.08211449  0.63609812  0.87529017  1
  Ta5+  Ta23  1  0.11620679  0.12095966  0.37744586  1
  Ta5+  Ta24  1  0.67093035  0.62652617  0.64296545  1
  Ta5+  Ta25  1  0.87304596  0.62350670  0.11733310  1
  Ta5+  Ta26  1  0.62512216  0.12332235  0.63143164  1
  Ta5+  Ta27  1  0.87421248  0.86044649  0.36506144  1
  Ta5+  Ta28  1  0.11978176  0.10823352  0.87882716  1
  Ta5+  Ta29  1  0.11000266  0.40625859  0.62318412  1
  Ta5+  Ta30  1  0.35369473  0.37876370  0.13300260  1
  Ta5+  Ta31  1  0.87701903  0.38933547  0.62884684  1
  Ta5+  Ta32  1  0.62682124  0.11715780  0.38489403  1
  Ta5+  Ta33  1  0.34748560  0.87558667  0.63576318  1
  Ta5+  Ta34  1  0.86518349  0.37605182  0.12173515  1
  Ta5+  Ta35  1  0.85831163  0.61470162  0.36187857  1
  Ta5+  Ta36  1  0.10927848  0.60210113  0.63097088  1
  Ta5+  Ta37  1  0.85627194  0.39632038  0.87662898  1
  Ta5+  Ta38  1  0.11093788  0.88068813  0.37783665  1
  Ta5+  Ta39  1  0.38472167  0.87587579  0.38603844  1
  Ta5+  Ta40  1  0.12243474  0.39590572  0.88067230  1
  Ta5+  Ta41  1  0.87012679  0.88350908  0.12195569  1
  Ta5+  Ta42  1  0.86927334  0.05244988  0.87743655  1
  Ta5+  Ta43  1  0.13139084  0.88359387  0.11861344  1
  Ta5+  Ta44  1  0.37129381  0.11105102  0.88262530  1
  Ta5+  Ta45  1  0.06927406  0.37703287  0.38072097  1
  Ta5+  Ta46  1  0.34062254  0.87147186  0.85677493  1
  Ta5+  Ta47  1  0.61944318  0.62542162  0.13309377  1
  Ta5+  Ta48  1  0.62525914  0.87127223  0.37420346  1
  Ta5+  Ta49  1  0.10174327  0.61955890  0.09595160  1
  Ta5+  Ta50  1  0.37963223  0.12512426  0.63660932  1
  Ta5+  Ta51  1  0.87638130  0.10693056  0.37816436  1
  Ta5+  Ta52  1  0.11670204  0.87424821  0.61903987  1
  Ta5+  Ta53  1  0.37738951  0.62316732  0.12379018  1
  Ta5+  Ta54  1  0.88218757  0.10729596  0.62840332  1
  Ta5+  Ta55  1  0.60863344  0.37733009  0.39201674  1
  Ta5+  Ta56  1  0.12332584  0.12281310  0.62323411  1
  Ta5+  Ta57  1  0.17202960  0.87557579  0.85895394  1
  Ta5+  Ta58  1  0.37587612  0.61982140  0.38433964  1
  Ta5+  Ta59  1  0.61770142  0.62149936  0.38586852  1
  Ta5+  Ta60  1  0.64106067  0.36431408  0.88326886  1
  Ta5+  Ta61  1  0.62719338  0.37832018  0.13175124  1
  Ta5+  Ta62  1  0.35591771  0.11636284  0.13775070  1
  Ta5+  Ta63  1  0.39347245  0.37505353  0.62648786  1
  Ta5+  Ta64  1  0.37043162  0.37517182  0.37524171  1
  Ta5+  Ta65  1  0.63127823  0.12371790  0.13375155  1
  Ta5+  Ta66  1  0.66433698  0.90613208  0.86717187  1
  Ta5+  Ta67  1  0.63685445  0.12630099  0.88636556  1
  Ta5+  Ta68  1  0.12059841  0.61309245  0.36606468  1
  Ta5+  Ta69  1  0.84250685  0.88089377  0.86788550  1
  Ta5+  Ta70  1  0.65005403  0.56054007  0.87919249  1
  Ta5+  Ta71  1  0.68330759  0.88377378  0.63337686  1
  Ta5+  Ta72  1  0.62627591  0.37979693  0.63527777  1
  Ta5+  Ta73  1  0.15437009  0.12716376  0.13538374  1
  Ta5+  Ta74  1  0.91094776  0.63249807  0.88093303  1
  W6+  W75  1  0.38650402  0.38415337  0.87856613  1
  W6+  W76  1  0.61908098  0.87512220  0.12024314  1
  W6+  W77  1  0.83984813  0.63358910  0.63889602  1
  W6+  W78  1  0.87890989  0.11723666  0.11021446  1
  W6+  W79  1  0.90676948  0.37729240  0.38135567  1
  W6+  W80  1  0.37406741  0.86797378  0.11854967  1
  W6+  W81  1  0.39532925  0.62607365  0.63102238  1
  W6+  W82  1  0.39500593  0.63158417  0.86245378  1
  O2-  O83  1  0.14099129  0.00568183  0.12710646  1
  O2-  O84  1  0.14813641  -0.00210153  0.37642265  1
  O2-  O85  1  0.11978240  0.00090507  0.61909022  1
  O2-  O86  1  0.12597779  -0.00911114  0.87064185  1
  O2-  O87  1  0.13055053  0.49790617  0.12144355  1
  O2-  O88  1  0.10745904  0.49423486  0.35745275  1
  O2-  O89  1  0.19120160  0.50395909  0.62736189  1
  O2-  O90  1  0.09439443  0.50925507  0.88460172  1
  O2-  O91  1  0.36839234  0.00021739  0.12641920  1
  O2-  O92  1  0.36871839  0.00057412  0.37496740  1
  O2-  O93  1  0.34543155  0.00848394  0.64076994  1
  O2-  O94  1  0.38162050  -0.00586200  0.86368817  1
  O2-  O95  1  0.35092714  0.50491619  0.13421097  1
  O2-  O96  1  0.37899288  0.49749354  0.37277819  1
  O2-  O97  1  0.41328352  0.49142257  0.61834932  1
  O2-  O98  1  0.39559711  0.51397257  0.86926473  1
  O2-  O99  1  0.59867264  0.01165353  0.13533455  1
  O2-  O100  1  0.60919324  -0.00019507  0.38761042  1
  O2-  O101  1  0.67677495  0.01598884  0.62338235  1
  O2-  O102  1  0.58626884  0.01868555  0.87998483  1
  O2-  O103  1  0.63476993  0.49918192  0.12811011  1
  O2-  O104  1  0.59149091  0.49651986  0.39057789  1
  O2-  O105  1  0.63610062  0.49780522  0.64230575  1
  O2-  O106  1  0.56972701  0.46872543  0.86582622  1
  O2-  O107  1  0.82836129  -0.00507054  0.12389348  1
  O2-  O108  1  0.86736673  -0.01395582  0.37503846  1
  O2-  O109  1  0.88117957  -0.01144594  0.61892364  1
  O2-  O110  1  0.94333067  -0.04139479  0.91687799  1
  O2-  O111  1  0.85334825  0.49546289  0.12474909  1
  O2-  O112  1  0.91724903  0.51322242  0.36069360  1
  O2-  O113  1  0.83932646  0.50058944  0.62142196  1
  O2-  O114  1  0.91309957  0.50128505  0.88795239  1
  O2-  O115  1  0.11426176  0.25080074  0.13532120  1
  O2-  O116  1  0.11650580  0.25130842  0.37342045  1
  O2-  O117  1  0.14658758  0.25767348  0.62677564  1
  O2-  O118  1  0.11276120  0.25071787  0.87374066  1
  O2-  O119  1  0.09715335  0.75208925  0.09978796  1
  O2-  O120  1  0.14119544  0.75443679  0.39075973  1
  O2-  O121  1  0.11184241  0.73758854  0.60193228  1
  O2-  O122  1  0.12238621  0.75644700  0.88979960  1
  O2-  O123  1  0.39272153  0.24833039  0.13389939  1
  O2-  O124  1  0.33965943  0.24536307  0.36871214  1
  O2-  O125  1  0.34025911  0.24535748  0.61597049  1
  O2-  O126  1  0.37143912  0.24726974  0.90514676  1
  O2-  O127  1  0.30980437  0.73477220  0.12563841  1
  O2-  O128  1  0.33418267  0.75635687  0.39657788  1
  O2-  O129  1  0.33706311  0.75029757  0.62776915  1
  O2-  O130  1  0.32802366  0.74137018  0.84992522  1
  O2-  O131  1  0.57352188  0.25103020  0.13386340  1
  O2-  O132  1  0.66680148  0.25981355  0.38208913  1
  O2-  O133  1  0.67491429  0.24507264  0.63022388  1
  O2-  O134  1  0.58187141  0.24536990  0.87849347  1
  O2-  O135  1  0.66681783  0.73871608  0.11263752  1
  O2-  O136  1  0.65232367  0.74606177  0.38211124  1
  O2-  O137  1  0.65095096  0.75407172  0.65205732  1
  O2-  O138  1  0.64122049  0.77952702  0.86230050  1
  O2-  O139  1  0.92394084  0.25082075  0.11502755  1
  O2-  O140  1  0.86599705  0.24141838  0.38499891  1
  O2-  O141  1  0.85169816  0.24338840  0.63784995  1
  O2-  O142  1  0.93743908  0.29789167  0.85466498  1
  O2-  O143  1  0.90773823  0.74906804  0.11344419  1
  O2-  O144  1  0.92459105  0.73033428  0.35785326  1
  O2-  O145  1  0.91076967  0.74967618  0.62930410  1
  O2-  O146  1  0.90251157  0.76054388  0.89187291  1
  O2-  O147  1  0.09989461  0.13512722  0.00539562  1
  O2-  O148  1  0.08842381  0.12257543  0.25021666  1
  O2-  O149  1  0.16159734  0.13280654  0.49854298  1
  O2-  O150  1  0.11369607  0.12869540  0.75139500  1
  O2-  O151  1  0.16960388  0.61892974  -0.00905725  1
  O2-  O152  1  0.12684087  0.65190573  0.23818558  1
  O2-  O153  1  0.09542531  0.61582696  0.49188150  1
  O2-  O154  1  0.10097342  0.62991153  0.74868930  1
  O2-  O155  1  0.41822990  0.11823634  0.00417524  1
  O2-  O156  1  0.41621635  0.12603816  0.25302545  1
  O2-  O157  1  0.34803482  0.12588228  0.50356888  1
  O2-  O158  1  0.39181172  0.14145659  0.76061120  1
  O2-  O159  1  0.35903801  0.63380910  0.00078226  1
  O2-  O160  1  0.36778666  0.64339028  0.25456460  1
  O2-  O161  1  0.34482710  0.61983726  0.50590975  1
  O2-  O162  1  0.45311805  0.65617092  0.74551024  1
  O2-  O163  1  0.61096884  0.14494736  0.01114312  1
  O2-  O164  1  0.60451605  0.14765791  0.26001404  1
  O2-  O165  1  0.64809008  0.14232966  0.50566575  1
  O2-  O166  1  0.64823420  0.13790512  0.75504412  1
  O2-  O167  1  0.63915316  0.61737219  -0.01032248  1
  O2-  O168  1  0.61610820  0.62562696  0.25485149  1
  O2-  O169  1  0.64242958  0.63117268  0.51638757  1
  O2-  O170  1  0.64651411  0.62128841  0.77476275  1
  O2-  O171  1  0.90673752  0.12263723  -0.02262564  1
  O2-  O172  1  0.88939433  0.13575944  0.25382993  1
  O2-  O173  1  0.84347745  0.12064775  0.50652627  1
  O2-  O174  1  0.86937597  0.11522621  0.75849771  1
  O2-  O175  1  0.83153309  0.63274476  -0.00200326  1
  O2-  O176  1  0.83266315  0.63759162  0.23655447  1
  O2-  O177  1  0.86469685  0.64540747  0.49064324  1
  O2-  O178  1  0.86383884  0.63212008  0.77237846  1
  O2-  O179  1  0.09106119  0.36417929  0.00249120  1
  O2-  O180  1  0.06828958  0.37277904  0.24474697  1
  O2-  O181  1  0.12682400  0.37842925  0.50013173  1
  O2-  O182  1  0.10174097  0.37975555  0.75547038  1
  O2-  O183  1  0.15506497  0.87836419  -0.00290201  1
  O2-  O184  1  0.14081148  0.85217531  0.24676107  1
  O2-  O185  1  0.05932030  0.87131317  0.49616363  1
  O2-  O186  1  0.13501433  0.85898460  0.73791435  1
  O2-  O187  1  0.41625511  0.38028500  0.02356085  1
  O2-  O188  1  0.41281650  0.37252867  0.24917937  1
  O2-  O189  1  0.34042260  0.37190718  0.50042844  1
  O2-  O190  1  0.36902361  0.36609185  0.74247178  1
  O2-  O191  1  0.34964104  0.85940277  -0.01753168  1
  O2-  O192  1  0.34857970  0.86025224  0.26429637  1
  O2-  O193  1  0.38852453  0.88175060  0.51180663  1
  O2-  O194  1  0.41455824  0.86335999  0.73928527  1
  O2-  O195  1  0.61042730  0.36260364  0.00724405  1
  O2-  O196  1  0.61422887  0.36703877  0.26266948  1
  O2-  O197  1  0.66147708  0.37255689  0.50943917  1
  O2-  O198  1  0.65590734  0.35411520  0.75353186  1
  O2-  O199  1  0.65626023  0.88797131  -0.00846978  1
  O2-  O200  1  0.64726808  0.87607511  0.25773651  1
  O2-  O201  1  0.66690327  0.87059013  0.50164909  1
  O2-  O202  1  0.61851269  0.90201345  0.74336069  1
  O2-  O203  1  0.88894855  0.36796983  -0.00041842  1
  O2-  O204  1  0.88101735  0.34925369  0.24541359  1
  O2-  O205  1  0.85456481  0.36740958  0.50922309  1
  O2-  O206  1  0.83457686  0.37735592  0.74920108  1
  O2-  O207  1  0.83075494  0.85741865  0.00653088  1
  O2-  O208  1  0.84418295  0.84946017  0.24197605  1
  O2-  O209  1  0.86587339  0.84181634  0.49105228  1
  O2-  O210  1  0.87968416  0.86728874  0.75201663  1
  O2-  O211  1  -0.00107813  -0.10922533  0.12283888  1
  O2-  O212  1  -0.00221646  -0.12412929  0.33016492  1
  O2-  O213  1  -0.00090243  0.11089427  0.40716272  1
  O2-  O214  1  0.00030864  0.14600745  0.61610195  1
  O2-  O215  1  0.00722774  0.64998627  -0.00847817  1
  O2-  O216  1  -0.01060423  0.60635587  0.15755156  1
  O2-  O217  1  -0.00648069  0.34420488  0.62944642  1
  O2-  O218  1  0.02978042  0.50578772  0.62269566  1
  O2-  O219  1  0.25789755  0.15016502  0.06044493  1
  O2-  O220  1  0.25353468  0.12399230  0.21559912  1
  O2-  O221  1  0.23045293  -0.13059567  0.56507015  1
  O2-  O222  1  0.24895651  0.11892243  0.88241364  1
  O2-  O223  1  0.25038156  0.35054325  0.06605285  1
  O2-  O224  1  0.24489187  0.38200117  0.22038329  1
  O2-  O225  1  0.24314840  0.61913221  0.36920677  1
  O2-  O226  1  0.24176331  0.38784976  0.88742266  1
  O2-  O227  1  0.49680708  -0.17031468  0.12181091  1
  O2-  O228  1  0.50273858  -0.14446285  0.37441239  1
  O2-  O229  1  0.49982540  0.14968572  0.40306802  1
  O2-  O230  1  0.50277692  0.12337822  0.61903268  1
  O2-  O231  1  0.49762514  0.62885951  0.11934225  1
  O2-  O232  1  0.49430442  0.64827129  0.39440341  1
  O2-  O233  1  0.49247921  0.33975671  0.40202861  1
  O2-  O234  1  0.51102750  0.33550475  0.61365975  1
  O2-  O235  1  0.75693944  0.13616170  -0.10681788  1
  O2-  O236  1  0.74685485  0.15604957  0.14964284  1
  O2-  O237  1  0.74770968  0.11704939  0.35349268  1
  O2-  O238  1  0.76086140  -0.01401339  0.83464813  1
  O2-  O239  1  0.75563877  0.30955813  -0.10591719  1
  O2-  O240  1  0.74556251  0.33763777  0.13344933  1
  O2-  O241  1  0.74132445  0.58785600  0.37988987  1
  O2-  O242  1  0.73661293  0.46967359  0.88850377  1
