# generated using pymatgen
data_Gd19Ta56(WO20)8
_symmetry_space_group_name_H-M   'P 1'
_cell_length_a   15.52466330
_cell_length_b   15.48623025
_cell_length_c   15.25909235
_cell_angle_alpha   90.05235285
_cell_angle_beta   90.10295193
_cell_angle_gamma   89.96215723
_symmetry_Int_Tables_number   1
_chemical_formula_structural   Gd19Ta56(WO20)8
_chemical_formula_sum   'Gd19 Ta56 W8 O160'
_cell_volume   3668.56000322
_cell_formula_units_Z   1
loop_
 _symmetry_equiv_pos_site_id
 _symmetry_equiv_pos_as_xyz
  1  'x, y, z'
loop_
 _atom_type_symbol
 _atom_type_oxidation_number
  Gd3+  3.0
  Ta5+  5.0
  W6+  6.0
  O2-  -2.0
loop_
 _atom_site_type_symbol
 _atom_site_label
 _atom_site_symmetry_multiplicity
 _atom_site_fract_x
 _atom_site_fract_y
 _atom_site_fract_z
 _atom_site_occupancy
  Gd3+  Gd0  1  0.52740927  0.75244128  0.24680392  1
  Gd3+  Gd1  1  0.27396633  0.75331665  0.25752639  1
  Gd3+  Gd2  1  0.49290560  0.74710666  0.71121175  1
  Gd3+  Gd3  1  0.01165088  0.24840281  0.00362428  1
  Gd3+  Gd4  1  0.74595749  0.75622341  0.46561049  1
  Gd3+  Gd5  1  0.26037826  0.22463957  -0.01246880  1
  Gd3+  Gd6  1  0.49282672  0.26549946  0.50040013  1
  Gd3+  Gd7  1  0.50824006  0.23992553  -0.00736328  1
  Gd3+  Gd8  1  -0.00540212  0.76420756  -0.00312861  1
  Gd3+  Gd9  1  -0.00323726  0.77121433  0.25460621  1
  Gd3+  Gd10  1  0.26158114  0.26853647  0.52037992  1
  Gd3+  Gd11  1  -0.00587728  0.73893150  0.74472567  1
  Gd3+  Gd12  1  -0.01002060  0.24724202  0.49695540  1
  Gd3+  Gd13  1  -0.01675032  0.72935013  0.49810739  1
  Gd3+  Gd14  1  0.73606917  0.73711049  0.01631769  1
  Gd3+  Gd15  1  0.49428406  0.24315694  0.75326011  1
  Gd3+  Gd16  1  0.00309444  0.25235151  0.74860009  1
  Gd3+  Gd17  1  -0.01272089  0.23566733  0.25773079  1
  Gd3+  Gd18  1  0.52234603  0.24678486  0.24394420  1
  Ta5+  Ta19  1  0.10111675  0.62427947  0.12517264  1
  Ta5+  Ta20  1  0.11534963  0.38206253  0.36771929  1
  Ta5+  Ta21  1  0.59662316  0.88910655  0.39246499  1
  Ta5+  Ta22  1  0.58847175  0.60800966  0.11270453  1
  Ta5+  Ta23  1  0.38353328  0.61455458  0.37159185  1
  Ta5+  Ta24  1  0.62800213  0.38822018  0.62355414  1
  Ta5+  Ta25  1  0.38599260  0.11536603  0.13742675  1
  Ta5+  Ta26  1  0.83230188  0.86413529  0.63501655  1
  Ta5+  Ta27  1  0.86815019  0.36700162  0.12592107  1
  Ta5+  Ta28  1  0.16582675  0.38387574  0.83418259  1
  Ta5+  Ta29  1  0.37038757  0.86816916  0.11212254  1
  Ta5+  Ta30  1  0.88117484  0.90162324  0.38388006  1
  Ta5+  Ta31  1  0.62382002  0.60541410  0.37326116  1
  Ta5+  Ta32  1  0.39536768  0.89927389  0.37173602  1
  Ta5+  Ta33  1  0.63209679  0.12157636  0.61724223  1
  Ta5+  Ta34  1  0.36354087  0.38909617  0.87604899  1
  Ta5+  Ta35  1  0.87216414  0.61111759  0.87834220  1
  Ta5+  Ta36  1  0.84114378  0.87195444  0.86962881  1
  Ta5+  Ta37  1  0.37897672  0.85515181  0.85614233  1
  Ta5+  Ta38  1  0.31189011  0.12752995  0.36636058  1
  Ta5+  Ta39  1  0.38399216  0.10334692  0.87169144  1
  Ta5+  Ta40  1  0.67349080  0.63277419  0.62527047  1
  Ta5+  Ta41  1  0.14191672  0.11757217  0.37551996  1
  Ta5+  Ta42  1  0.09764446  0.88778396  0.87035064  1
  Ta5+  Ta43  1  0.86229882  0.11878936  0.87287778  1
  Ta5+  Ta44  1  0.86816079  0.11026721  0.62847148  1
  Ta5+  Ta45  1  0.86995975  0.37246595  0.87898104  1
  Ta5+  Ta46  1  0.83324733  0.35436250  0.37525377  1
  Ta5+  Ta47  1  0.09433012  0.88144959  0.61125218  1
  Ta5+  Ta48  1  0.86973184  0.09523217  0.38000170  1
  Ta5+  Ta49  1  0.88874898  0.61457764  0.13152285  1
  Ta5+  Ta50  1  0.38407124  0.39314615  0.64466138  1
  Ta5+  Ta51  1  0.64131515  0.61628986  0.86285844  1
  Ta5+  Ta52  1  0.12828102  0.88524469  0.12794028  1
  Ta5+  Ta53  1  0.83546273  0.12679144  0.12737547  1
  Ta5+  Ta54  1  0.33041385  0.63181614  0.61774779  1
  Ta5+  Ta55  1  0.36013850  0.10787482  0.62019205  1
  Ta5+  Ta56  1  0.62726349  0.38897484  0.87293168  1
  Ta5+  Ta57  1  0.86078116  0.37674601  0.62449710  1
  Ta5+  Ta58  1  0.12686078  0.62590061  0.87782968  1
  Ta5+  Ta59  1  0.66516561  0.87317619  0.63303143  1
  Ta5+  Ta60  1  0.16063717  0.63635588  0.61973856  1
  Ta5+  Ta61  1  0.12964959  0.38118482  0.15789547  1
  Ta5+  Ta62  1  0.61803432  0.89381522  0.12349816  1
  Ta5+  Ta63  1  0.63992570  0.12154176  0.86833738  1
  Ta5+  Ta64  1  0.38489651  0.61140714  0.11413393  1
  Ta5+  Ta65  1  0.11820942  0.12613678  0.62417210  1
  Ta5+  Ta66  1  0.32031131  0.37807943  0.33483468  1
  Ta5+  Ta67  1  0.64478241  0.37762467  0.12218000  1
  Ta5+  Ta68  1  0.87005419  0.60006101  0.36588595  1
  Ta5+  Ta69  1  0.64305430  0.12853209  0.38268028  1
  Ta5+  Ta70  1  0.11498406  0.62563121  0.36881208  1
  Ta5+  Ta71  1  0.15051473  0.12698659  0.16057301  1
  Ta5+  Ta72  1  0.66816817  0.36391865  0.37555028  1
  Ta5+  Ta73  1  0.84088171  0.62564078  0.62628004  1
  Ta5+  Ta74  1  0.87437433  0.88989831  0.12536141  1
  W6+  W75  1  0.67388486  0.13551528  0.12502490  1
  W6+  W76  1  0.32667120  0.85427231  0.59399217  1
  W6+  W77  1  0.39525684  0.37425200  0.12337483  1
  W6+  W78  1  0.37235154  0.64216921  0.87385268  1
  W6+  W79  1  0.09300883  0.39695573  0.60813422  1
  W6+  W80  1  0.12120579  0.12253697  0.88204151  1
  W6+  W81  1  0.13665940  0.87468849  0.40516268  1
  W6+  W82  1  0.66872591  0.87166016  0.86077520  1
  O2-  O83  1  0.15587487  0.00363704  0.13134641  1
  O2-  O84  1  0.16873593  0.00348315  0.40167545  1
  O2-  O85  1  0.09776199  0.00613632  0.61789739  1
  O2-  O86  1  0.15144382  -0.00702749  0.86612100  1
  O2-  O87  1  0.13435249  0.50868793  0.14588706  1
  O2-  O88  1  0.13363797  0.50722359  0.35184644  1
  O2-  O89  1  0.13443707  0.52135354  0.61308034  1
  O2-  O90  1  0.14346246  0.49793417  0.87377253  1
  O2-  O91  1  0.37483457  -0.00623519  0.12516446  1
  O2-  O92  1  0.36850888  0.01644627  0.38498623  1
  O2-  O93  1  0.34487288  -0.00646970  0.60194002  1
  O2-  O94  1  0.38568102  -0.01762267  0.86777439  1
  O2-  O95  1  0.34498527  0.49982254  0.12157120  1
  O2-  O96  1  0.36175758  0.48588933  0.36901312  1
  O2-  O97  1  0.33503407  0.50275303  0.63536418  1
  O2-  O98  1  0.35183303  0.50646672  0.87662583  1
  O2-  O99  1  0.62677384  0.01126934  0.12807975  1
  O2-  O100  1  0.62330519  0.00858919  0.36842968  1
  O2-  O101  1  0.63573388  0.00224332  0.62715519  1
  O2-  O102  1  0.65676161  0.00694729  0.86093954  1
  O2-  O103  1  0.64508846  0.50059454  0.13811315  1
  O2-  O104  1  0.65467417  0.48927225  0.36900375  1
  O2-  O105  1  0.65876234  0.50365181  0.62804520  1
  O2-  O106  1  0.58152774  0.50274536  0.85886694  1
  O2-  O107  1  0.82571116  0.00129922  0.12695741  1
  O2-  O108  1  0.95702220  -0.00179143  0.37967091  1
  O2-  O109  1  0.84907355  -0.00837733  0.64106055  1
  O2-  O110  1  0.84673517  -0.00134130  0.86585448  1
  O2-  O111  1  0.88228948  0.48928970  0.13455337  1
  O2-  O112  1  0.84962144  0.48326262  0.36777633  1
  O2-  O113  1  0.85754936  0.49770612  0.62632828  1
  O2-  O114  1  0.90389956  0.48872947  0.88376058  1
  O2-  O115  1  0.12359097  0.25080481  0.17282615  1
  O2-  O116  1  0.10135318  0.25235585  0.36359518  1
  O2-  O117  1  0.09370857  0.25679118  0.61838790  1
  O2-  O118  1  0.11018243  0.27349539  0.87689257  1
  O2-  O119  1  0.07954142  0.75579689  0.12319537  1
  O2-  O120  1  0.07344852  0.75259588  0.37933942  1
  O2-  O121  1  0.08237433  0.74629646  0.61960286  1
  O2-  O122  1  0.10145563  0.75546192  0.87704564  1
  O2-  O123  1  0.43223339  0.23764263  0.12216309  1
  O2-  O124  1  0.32342447  0.25515298  0.37691702  1
  O2-  O125  1  0.38205251  0.25897061  0.64857656  1
  O2-  O126  1  0.39028960  0.24739928  0.87290003  1
  O2-  O127  1  0.38535106  0.74508177  0.15485181  1
  O2-  O128  1  0.40841931  0.73721258  0.34363029  1
  O2-  O129  1  0.39490491  0.74267814  0.59644976  1
  O2-  O130  1  0.45460481  0.75789681  0.85980857  1
  O2-  O131  1  0.60233398  0.25563272  0.11428934  1
  O2-  O132  1  0.58437390  0.25016369  0.38412113  1
  O2-  O133  1  0.57281209  0.24786498  0.61972923  1
  O2-  O134  1  0.59103928  0.26728513  0.87182266  1
  O2-  O135  1  0.61601376  0.73131275  0.11275933  1
  O2-  O136  1  0.61446082  0.75865162  0.38193320  1
  O2-  O137  1  0.63657980  0.75251863  0.59961726  1
  O2-  O138  1  0.67169602  0.73582192  0.88101863  1
  O2-  O139  1  0.91530442  0.24043785  0.12293389  1
  O2-  O140  1  0.89941844  0.23207020  0.37983309  1
  O2-  O141  1  0.90954022  0.24491818  0.62632051  1
  O2-  O142  1  0.91981346  0.24806538  0.87789663  1
  O2-  O143  1  0.88735315  0.75040055  0.12172385  1
  O2-  O144  1  0.88752946  0.75980840  0.37739661  1
  O2-  O145  1  0.89828889  0.74619345  0.62139792  1
  O2-  O146  1  0.86993479  0.73832519  0.90102116  1
  O2-  O147  1  0.13039662  0.15461817  0.02474454  1
  O2-  O148  1  0.06759146  0.10878670  0.25560229  1
  O2-  O149  1  0.09991073  0.13984460  0.49641885  1
  O2-  O150  1  0.09475972  0.13314675  0.74682236  1
  O2-  O151  1  0.14924854  0.63481144  0.00610415  1
  O2-  O152  1  0.15206335  0.66357316  0.24823087  1
  O2-  O153  1  0.15083203  0.64535587  0.48504685  1
  O2-  O154  1  0.14484552  0.64137877  0.75382574  1
  O2-  O155  1  0.39390636  0.12582000  0.00133689  1
  O2-  O156  1  0.40873203  0.13513838  0.26044424  1
  O2-  O157  1  0.38029746  0.15668706  0.50179922  1
  O2-  O158  1  0.40321350  0.11410359  0.74048584  1
  O2-  O159  1  0.33978314  0.65254088  0.00861479  1
  O2-  O160  1  0.32518471  0.61623548  0.25737610  1
  O2-  O161  1  0.33279868  0.62441170  0.48207482  1
  O2-  O162  1  0.37891394  0.64555471  0.73502881  1
  O2-  O163  1  0.64700799  0.14522152  -0.01071373  1
  O2-  O164  1  0.64332411  0.15104401  0.26067729  1
  O2-  O165  1  0.57734638  0.12750869  0.49996258  1
  O2-  O166  1  0.60636659  0.14055967  0.73942168  1
  O2-  O167  1  0.64714885  0.61312485  -0.00591413  1
  O2-  O168  1  0.63791317  0.63737976  0.25540378  1
  O2-  O169  1  0.67271542  0.62645289  0.48846998  1
  O2-  O170  1  0.60579635  0.64452087  0.74188241  1
  O2-  O171  1  0.86508374  0.13004322  -0.00266712  1
  O2-  O172  1  0.86532312  0.12295793  0.25558733  1
  O2-  O173  1  0.90973465  0.11028143  0.50944607  1
  O2-  O174  1  0.91023358  0.12520040  0.74917937  1
  O2-  O175  1  0.83246603  0.61655235  0.01396656  1
  O2-  O176  1  0.83159609  0.62840639  0.24743891  1
  O2-  O177  1  0.84773679  0.63450061  0.49068347  1
  O2-  O178  1  0.88090097  0.63508285  0.75428257  1
  O2-  O179  1  0.08708619  0.36424450  0.04547323  1
  O2-  O180  1  0.04367493  0.38190452  0.25360002  1
  O2-  O181  1  0.05249743  0.38631083  0.47323543  1
  O2-  O182  1  0.07852138  0.38383158  0.74664436  1
  O2-  O183  1  0.11757745  0.87328525  0.00008831  1
  O2-  O184  1  0.24404126  0.83866444  0.12765076  1
  O2-  O185  1  0.19690326  0.87233955  0.54607949  1
  O2-  O186  1  0.07148889  0.87054747  0.74079553  1
  O2-  O187  1  0.42490102  0.37296790  -0.01715151  1
  O2-  O188  1  0.41811705  0.35174240  0.26401321  1
  O2-  O189  1  0.37397150  0.35944529  0.51782050  1
  O2-  O190  1  0.43367120  0.38172647  0.76706613  1
  O2-  O191  1  0.36469174  0.85558013  -0.00908298  1
  O2-  O192  1  0.34268979  0.88313652  0.25744526  1
  O2-  O193  1  0.32584250  0.84664418  0.45488075  1
  O2-  O194  1  0.36957403  0.85203848  0.73334222  1
  O2-  O195  1  0.60258585  0.38480335  -0.00269090  1
  O2-  O196  1  0.63801497  0.35407163  0.24715479  1
  O2-  O197  1  0.62505036  0.36238332  0.49873500  1
  O2-  O198  1  0.60969340  0.36633054  0.74765224  1
  O2-  O199  1  0.66761948  0.86953039  0.01151972  1
  O2-  O200  1  0.65665921  0.85928471  0.23405903  1
  O2-  O201  1  0.67331396  0.88360233  0.49552906  1
  O2-  O202  1  0.60253726  0.85063398  0.73948682  1
  O2-  O203  1  0.90934610  0.36019459  -0.00059271  1
  O2-  O204  1  0.85176641  0.34150785  0.24647935  1
  O2-  O205  1  0.87041377  0.35951818  0.50132726  1
  O2-  O206  1  0.89236983  0.36234319  0.75460719  1
  O2-  O207  1  0.84317969  0.86767357  0.00450858  1
  O2-  O208  1  0.88813993  0.87662748  0.25314225  1
  O2-  O209  1  0.85101387  0.86826327  0.50364943  1
  O2-  O210  1  0.88143781  0.84111148  0.75416015  1
  O2-  O211  1  -0.00587416  -0.09770111  0.11358264  1
  O2-  O212  1  0.11480324  -0.13257326  0.25694835  1
  O2-  O213  1  0.03155808  -0.13026709  0.50129195  1
  O2-  O214  1  -0.02247869  -0.11785167  0.89438614  1
  O2-  O215  1  -0.00584254  0.61985961  0.05279256  1
  O2-  O216  1  -0.00415363  0.62555567  0.21202305  1
  O2-  O217  1  -0.00738337  0.60398964  0.39404065  1
  O2-  O218  1  0.00383516  0.62473628  0.87533066  1
  O2-  O219  1  0.27182985  0.15525745  0.11874827  1
  O2-  O220  1  0.22883509  0.11989541  0.26802754  1
  O2-  O221  1  0.24323395  0.14860065  0.62830749  1
  O2-  O222  1  0.26360418  0.13049532  0.87643144  1
  O2-  O223  1  0.25142996  0.35936623  -0.06666809  1
  O2-  O224  1  0.22221804  0.37940457  0.25705377  1
  O2-  O225  1  0.22422252  0.37754465  0.43095233  1
  O2-  O226  1  0.26696507  0.37806222  0.76516623  1
  O2-  O227  1  0.49851330  -0.13430605  0.12180930  1
  O2-  O228  1  0.50453899  -0.11329273  0.30052802  1
  O2-  O229  1  0.49894808  -0.09918740  0.46195870  1
  O2-  O230  1  0.51033480  0.12312800  0.87762076  1
  O2-  O231  1  0.48975447  0.58536057  0.04227662  1
  O2-  O232  1  0.48874198  0.61630596  0.19782084  1
  O2-  O233  1  0.50408965  0.59342683  0.39277910  1
  O2-  O234  1  0.50028498  0.41139749  0.61290651  1
  O2-  O235  1  0.75500669  0.17026522  -0.16013394  1
  O2-  O236  1  0.79564925  -0.01338150  0.37138481  1
  O2-  O237  1  0.75472560  0.14405738  0.41896510  1
  O2-  O238  1  0.74977390  0.14933101  0.61439715  1
  O2-  O239  1  0.74916645  0.37977900  -0.12105845  1
  O2-  O240  1  0.75616935  0.34680800  0.08148925  1
  O2-  O241  1  0.74470270  0.34195116  0.63750897  1
  O2-  O242  1  0.75391409  0.57610219  0.85106994  1
