# generated using pymatgen
data_Gd19Ta56(WO20)8
_symmetry_space_group_name_H-M   'P 1'
_cell_length_a   15.69709535
_cell_length_b   15.32869156
_cell_length_c   15.14496813
_cell_angle_alpha   89.86598104
_cell_angle_beta   89.53442560
_cell_angle_gamma   90.46125850
_symmetry_Int_Tables_number   1
_chemical_formula_structural   Gd19Ta56(WO20)8
_chemical_formula_sum   'Gd19 Ta56 W8 O160'
_cell_volume   3643.87170951
_cell_formula_units_Z   1
loop_
 _symmetry_equiv_pos_site_id
 _symmetry_equiv_pos_as_xyz
  1  'x, y, z'
loop_
 _atom_type_symbol
 _atom_type_oxidation_number
  Gd3+  3.0
  Ta5+  5.0
  W6+  6.0
  O2-  -2.0
loop_
 _atom_site_type_symbol
 _atom_site_label
 _atom_site_symmetry_multiplicity
 _atom_site_fract_x
 _atom_site_fract_y
 _atom_site_fract_z
 _atom_site_occupancy
  Gd3+  Gd0  1  0.25734479  0.25623679  0.50646383  1
  Gd3+  Gd1  1  0.26820188  0.77112101  0.00607941  1
  Gd3+  Gd2  1  0.49031460  0.73424328  0.52832858  1
  Gd3+  Gd3  1  0.46764510  0.24919610  0.03408350  1
  Gd3+  Gd4  1  0.00601494  0.28476350  0.76332462  1
  Gd3+  Gd5  1  0.23961064  0.25608731  0.24696747  1
  Gd3+  Gd6  1  0.00462723  0.75056559  0.75166019  1
  Gd3+  Gd7  1  -0.02220292  0.74778015  -0.00192624  1
  Gd3+  Gd8  1  0.75229208  0.24260067  0.76284403  1
  Gd3+  Gd9  1  0.77985524  0.71449204  0.26635117  1
  Gd3+  Gd10  1  0.52569231  0.21696834  0.45046641  1
  Gd3+  Gd11  1  0.70556765  0.73927144  0.48459688  1
  Gd3+  Gd12  1  0.74227753  0.72705737  0.04023386  1
  Gd3+  Gd13  1  0.02514882  0.29450309  0.50176826  1
  Gd3+  Gd14  1  0.53987887  0.74291455  0.24820476  1
  Gd3+  Gd15  1  0.74221868  0.23164031  0.51859432  1
  Gd3+  Gd16  1  0.24406276  0.26597890  0.73866936  1
  Gd3+  Gd17  1  -0.01424103  0.26493346  0.03091077  1
  Gd3+  Gd18  1  -0.00068556  0.75307928  0.47809105  1
  Ta5+  Ta19  1  0.11536749  0.63035472  0.12169269  1
  Ta5+  Ta20  1  0.10813999  0.12318608  0.61999249  1
  Ta5+  Ta21  1  0.13813902  0.88908431  0.86999031  1
  Ta5+  Ta22  1  0.12807435  0.88030317  0.61025605  1
  Ta5+  Ta23  1  0.31043434  0.11494421  0.10900612  1
  Ta5+  Ta24  1  0.36493076  0.63073963  0.87236879  1
  Ta5+  Ta25  1  0.86746580  0.87783161  0.62175600  1
  Ta5+  Ta26  1  0.60851130  0.93807977  0.11537628  1
  Ta5+  Ta27  1  0.64647987  0.54807564  0.36287726  1
  Ta5+  Ta28  1  0.87767051  0.12222291  0.89331949  1
  Ta5+  Ta29  1  0.39916806  0.13482290  0.63003212  1
  Ta5+  Ta30  1  0.82709669  0.37379453  0.15173521  1
  Ta5+  Ta31  1  0.37409478  0.89152577  0.85856269  1
  Ta5+  Ta32  1  0.15667877  0.87156489  0.35035030  1
  Ta5+  Ta33  1  0.15284399  0.39378885  0.89308642  1
  Ta5+  Ta34  1  0.63671762  0.10973220  0.91605094  1
  Ta5+  Ta35  1  0.89813734  0.12573552  0.62487689  1
  Ta5+  Ta36  1  0.11695184  0.44931914  0.63056037  1
  Ta5+  Ta37  1  0.63435033  0.56364619  0.15854217  1
  Ta5+  Ta38  1  0.67278741  0.62355535  0.68849066  1
  Ta5+  Ta39  1  0.90224543  0.90659594  0.13196089  1
  Ta5+  Ta40  1  0.38109098  0.13049877  0.86329792  1
  Ta5+  Ta41  1  0.39045608  0.87100973  0.37047637  1
  Ta5+  Ta42  1  0.83387014  0.14683667  0.14582848  1
  Ta5+  Ta43  1  0.62997922  0.86005836  0.68474458  1
  Ta5+  Ta44  1  0.59837957  0.38836718  0.62746535  1
  Ta5+  Ta45  1  0.40590156  0.39789320  0.62113803  1
  Ta5+  Ta46  1  0.40774059  0.89977178  0.11330053  1
  Ta5+  Ta47  1  0.66049529  0.10554991  0.32567741  1
  Ta5+  Ta48  1  0.37935827  0.38161986  0.86840382  1
  Ta5+  Ta49  1  0.64295456  0.90127251  0.36717213  1
  Ta5+  Ta50  1  0.84337431  0.92329114  0.37403558  1
  Ta5+  Ta51  1  0.32288000  0.39040999  0.10980865  1
  Ta5+  Ta52  1  0.31968435  0.62755081  0.63158233  1
  Ta5+  Ta53  1  0.87445311  0.38699968  0.61535725  1
  Ta5+  Ta54  1  0.87719566  0.62189969  0.62788704  1
  Ta5+  Ta55  1  0.15312070  0.64733227  0.61193981  1
  Ta5+  Ta56  1  0.15726075  0.38910155  0.10199920  1
  Ta5+  Ta57  1  0.09898578  0.88806735  0.12183718  1
  Ta5+  Ta58  1  0.87561665  0.56770453  0.40654508  1
  Ta5+  Ta59  1  0.91514450  0.14190935  0.39274273  1
  Ta5+  Ta60  1  0.58988099  0.09223093  0.68444221  1
  Ta5+  Ta61  1  0.65963297  0.34539047  0.08326570  1
  Ta5+  Ta62  1  0.14545548  0.13446591  0.10830686  1
  Ta5+  Ta63  1  0.36879388  0.88256132  0.62617920  1
  Ta5+  Ta64  1  0.59896288  0.85928696  0.93885138  1
  Ta5+  Ta65  1  0.13818371  0.12681752  0.87696579  1
  Ta5+  Ta66  1  0.86934526  0.39664087  0.88883483  1
  Ta5+  Ta67  1  0.59268270  0.61211793  0.91089751  1
  Ta5+  Ta68  1  0.38266997  0.62535769  0.37321342  1
  Ta5+  Ta69  1  0.14473624  0.64289280  0.34931308  1
  Ta5+  Ta70  1  0.85723492  0.59430057  0.85644709  1
  Ta5+  Ta71  1  0.66896114  0.16781203  0.11107069  1
  Ta5+  Ta72  1  0.92317817  0.58835837  0.15655246  1
  Ta5+  Ta73  1  0.37455443  0.38447814  0.36391082  1
  Ta5+  Ta74  1  0.13760024  0.40542858  0.36274729  1
  W6+  W75  1  0.14893013  0.64325195  0.87022215  1
  W6+  W76  1  0.62482590  0.36427576  0.87073139  1
  W6+  W77  1  0.58992231  0.33739121  0.26544976  1
  W6+  W78  1  0.84572459  0.39885141  0.40201023  1
  W6+  W79  1  0.34557979  0.12038377  0.36779543  1
  W6+  W80  1  0.13860164  0.12767063  0.37070767  1
  W6+  W81  1  0.87236237  0.87078958  0.88242366  1
  W6+  W82  1  0.37365258  0.63619821  0.12162381  1
  O2-  O83  1  0.12695594  0.00881441  0.11151544  1
  O2-  O84  1  0.15002369  -0.01097303  0.35805407  1
  O2-  O85  1  0.08706104  -0.00414334  0.61017572  1
  O2-  O86  1  0.09951145  0.00407401  0.87597706  1
  O2-  O87  1  0.15639565  0.51774826  0.09899895  1
  O2-  O88  1  0.10314446  0.52791388  0.36083701  1
  O2-  O89  1  0.05160542  0.54723464  0.62311180  1
  O2-  O90  1  0.17204523  0.51195747  0.88364115  1
  O2-  O91  1  0.32258229  -0.01757375  0.12875985  1
  O2-  O92  1  0.38234117  -0.01181225  0.37517959  1
  O2-  O93  1  0.38145908  0.00933812  0.62707494  1
  O2-  O94  1  0.41493434  0.01264300  0.85103545  1
  O2-  O95  1  0.35033546  0.50720115  0.12204958  1
  O2-  O96  1  0.41206797  0.50617178  0.36630842  1
  O2-  O97  1  0.37286678  0.51245831  0.64113077  1
  O2-  O98  1  0.38456426  0.50329049  0.86656010  1
  O2-  O99  1  0.67928799  0.03499583  0.11204714  1
  O2-  O100  1  0.57881342  0.00711696  0.35189372  1
  O2-  O101  1  0.59150821  -0.03010099  0.64164370  1
  O2-  O102  1  0.60178874  -0.01576285  0.95054817  1
  O2-  O103  1  0.59177002  0.44555668  0.16421273  1
  O2-  O104  1  0.61582730  0.43362298  0.36518811  1
  O2-  O105  1  0.64690514  0.51330123  0.64823029  1
  O2-  O106  1  0.59483565  0.49652858  0.87926135  1
  O2-  O107  1  0.85785310  0.01587525  0.13890222  1
  O2-  O108  1  0.92550506  0.01022515  0.39081847  1
  O2-  O109  1  0.88743989  0.00151249  0.62406883  1
  O2-  O110  1  0.90281093  0.00609687  0.89042795  1
  O2-  O111  1  0.85101802  0.49876098  0.12064882  1
  O2-  O112  1  0.76205135  0.52117153  0.42136909  1
  O2-  O113  1  0.84374116  0.50231642  0.64403809  1
  O2-  O114  1  0.94129760  0.50241103  0.87749268  1
  O2-  O115  1  0.12336973  0.26416903  0.10018962  1
  O2-  O116  1  0.13201582  0.27572473  0.39201910  1
  O2-  O117  1  0.14481284  0.25190704  0.61984859  1
  O2-  O118  1  0.12083922  0.25482315  0.84998209  1
  O2-  O119  1  0.06644524  0.75873327  0.11866059  1
  O2-  O120  1  0.08285238  0.75644179  0.34648737  1
  O2-  O121  1  0.06861545  0.76473876  0.61006093  1
  O2-  O122  1  0.07722179  0.77420249  0.88328366  1
  O2-  O123  1  0.32693729  0.24989098  0.10688637  1
  O2-  O124  1  0.31943421  0.25932494  0.37149912  1
  O2-  O125  1  0.34983843  0.25878189  0.62503592  1
  O2-  O126  1  0.42383342  0.25124072  0.87343095  1
  O2-  O127  1  0.36069579  0.77983114  0.11651905  1
  O2-  O128  1  0.44953414  0.74495338  0.38541470  1
  O2-  O129  1  0.37331938  0.74769509  0.62558720  1
  O2-  O130  1  0.35166932  0.76493169  0.87444663  1
  O2-  O131  1  0.57051990  0.26152299  0.14772794  1
  O2-  O132  1  0.58716096  0.20577077  0.31634314  1
  O2-  O133  1  0.68230244  0.16948474  0.65182535  1
  O2-  O134  1  0.63952868  0.22583554  0.85884785  1
  O2-  O135  1  0.66254691  0.70113824  0.16508050  1
  O2-  O136  1  0.66101429  0.77089885  0.33684243  1
  O2-  O137  1  0.61835640  0.73928227  0.63070528  1
  O2-  O138  1  0.64222732  0.73533852  0.93148080  1
  O2-  O139  1  0.89078885  0.26259926  0.14919946  1
  O2-  O140  1  0.90909141  0.26816151  0.41672796  1
  O2-  O141  1  0.86193000  0.25212970  0.62069769  1
  O2-  O142  1  0.92164628  0.25564830  0.88576482  1
  O2-  O143  1  0.85993394  0.69320229  0.14157449  1
  O2-  O144  1  0.82217321  0.69481817  0.41015586  1
  O2-  O145  1  0.90124900  0.75118374  0.61679548  1
  O2-  O146  1  0.90224768  0.72448095  0.86488198  1
  O2-  O147  1  0.07955563  0.14471629  -0.01319623  1
  O2-  O148  1  0.13111280  0.15017425  0.23380167  1
  O2-  O149  1  0.17646521  0.12396572  0.51363897  1
  O2-  O150  1  0.15602648  0.11756962  0.73682389  1
  O2-  O151  1  0.15882782  0.67119514  0.00686813  1
  O2-  O152  1  0.18231172  0.65993175  0.22559658  1
  O2-  O153  1  0.12810611  0.66006864  0.48129146  1
  O2-  O154  1  0.12875245  0.66271955  0.73558012  1
  O2-  O155  1  0.38409105  0.12420205  -0.00518355  1
  O2-  O156  1  0.32692835  0.12996604  0.23207548  1
  O2-  O157  1  0.36419609  0.14468724  0.50674297  1
  O2-  O158  1  0.32895807  0.14353625  0.74257031  1
  O2-  O159  1  0.32434764  0.63268321  -0.00909659  1
  O2-  O160  1  0.40857131  0.65657956  0.25299739  1
  O2-  O161  1  0.38860892  0.63016187  0.50277900  1
  O2-  O162  1  0.31144731  0.63413838  0.75877309  1
  O2-  O163  1  0.57086151  0.14755698  0.01445385  1
  O2-  O164  1  0.72953296  0.15509567  0.23111053  1
  O2-  O165  1  0.65856947  0.13691262  0.44776086  1
  O2-  O166  1  0.63810025  0.05860757  0.79209288  1
  O2-  O167  1  0.63499328  0.58934806  0.03352758  1
  O2-  O168  1  0.56690569  0.59528285  0.27416839  1
  O2-  O169  1  0.60895644  0.62817248  0.45395840  1
  O2-  O170  1  0.59874723  0.64769171  0.78231410  1
  O2-  O171  1  0.89138883  0.14501961  0.02055871  1
  O2-  O172  1  0.88277564  0.14555111  0.27833028  1
  O2-  O173  1  0.83888124  0.12214419  0.50570612  1
  O2-  O174  1  0.85490362  0.13481728  0.75586140  1
  O2-  O175  1  0.81576338  0.62432071  -0.03340013  1
  O2-  O176  1  0.88793713  0.59536569  0.28663062  1
  O2-  O177  1  0.93592847  0.61257398  0.51519783  1
  O2-  O178  1  0.93476723  0.61810697  0.73832563  1
  O2-  O179  1  0.07316639  0.38555927  -0.01259088  1
  O2-  O180  1  0.14367078  0.38549255  0.23800147  1
  O2-  O181  1  0.12851782  0.40629297  0.51067090  1
  O2-  O182  1  0.13894119  0.39411772  0.74665436  1
  O2-  O183  1  0.16155485  0.87375205  0.00026842  1
  O2-  O184  1  0.16996973  0.86454514  0.22447037  1
  O2-  O185  1  0.11284883  0.86154066  0.48112800  1
  O2-  O186  1  0.11100272  0.87138146  0.74047300  1
  O2-  O187  1  0.38654913  0.37424127  -0.00310910  1
  O2-  O188  1  0.34560298  0.37045890  0.24088042  1
  O2-  O189  1  0.36561476  0.37301423  0.50166865  1
  O2-  O190  1  0.34688971  0.37435596  0.74135145  1
  O2-  O191  1  0.37495015  0.89813539  -0.01432728  1
  O2-  O192  1  0.43303523  0.86208202  0.25087492  1
  O2-  O193  1  0.41200744  0.86448858  0.50626238  1
  O2-  O194  1  0.42322405  0.87176119  0.73742259  1
  O2-  O195  1  0.57083077  0.34825706  -0.00459042  1
  O2-  O196  1  0.71727382  0.34500655  0.20428289  1
  O2-  O197  1  0.61254401  0.30538501  0.53469926  1
  O2-  O198  1  0.66994000  0.35840222  0.72834483  1
  O2-  O199  1  0.68273848  0.86426266  0.03993510  1
  O2-  O200  1  0.61918275  0.88787992  0.23033672  1
  O2-  O201  1  0.58650872  0.84675534  0.46687686  1
  O2-  O202  1  0.61137590  0.86029607  0.80307513  1
  O2-  O203  1  0.87483613  0.37046463  0.01236138  1
  O2-  O204  1  0.86525006  0.39799980  0.26861172  1
  O2-  O205  1  0.78143724  0.37412721  0.53371614  1
  O2-  O206  1  0.86864237  0.35631402  0.75528471  1
  O2-  O207  1  0.85323075  0.83274058  0.03374579  1
  O2-  O208  1  0.84449499  0.86339341  0.26106644  1
  O2-  O209  1  0.90307215  0.87080991  0.49319966  1
  O2-  O210  1  0.91212602  0.87030111  0.73793474  1
  O2-  O211  1  -0.00478563  -0.09896783  0.04080992  1
  O2-  O212  1  0.00108173  -0.09423217  0.20642964  1
  O2-  O213  1  -0.00332219  0.14492773  0.53121121  1
  O2-  O214  1  0.00282855  0.15717550  0.69174981  1
  O2-  O215  1  -0.00451448  0.61074389  0.05240955  1
  O2-  O216  1  0.03267908  0.58439235  0.21270882  1
  O2-  O217  1  -0.06401916  0.41898416  0.50438770  1
  O2-  O218  1  0.00367974  0.36759203  0.63983874  1
  O2-  O219  1  0.25584004  0.13028186  -0.11035498  1
  O2-  O220  1  0.27313559  -0.16202870  0.37315458  1
  O2-  O221  1  0.24799048  -0.11598846  0.61617938  1
  O2-  O222  1  0.25521839  -0.08741599  0.84030963  1
  O2-  O223  1  0.26288914  0.33314047  -0.11903183  1
  O2-  O224  1  0.26438800  0.63350749  0.37221666  1
  O2-  O225  1  0.25243520  0.42301264  0.38323288  1
  O2-  O226  1  0.21560261  0.52905133  0.61723235  1
  O2-  O227  1  0.52544395  -0.15452593  0.04953822  1
  O2-  O228  1  0.49695330  -0.01097513  0.12885678  1
  O2-  O229  1  0.51581951  0.13452906  0.57908777  1
  O2-  O230  1  0.48709349  0.13376981  0.73925104  1
  O2-  O231  1  0.48068259  0.64743456  -0.08194731  1
  O2-  O232  1  0.48160887  0.32765361  0.35643746  1
  O2-  O233  1  0.50966334  0.45191835  0.56811801  1
  O2-  O234  1  0.50188536  0.33570092  0.68283987  1
  O2-  O235  1  0.75905412  0.11533601  -0.09208312  1
  O2-  O236  1  0.74415410  -0.00568816  0.33405907  1
  O2-  O237  1  0.74736120  -0.11906112  0.44688496  1
  O2-  O238  1  0.74848033  -0.13591793  0.64228023  1
  O2-  O239  1  0.78369540  0.47963135  -0.13160217  1
  O2-  O240  1  0.72169885  0.57008618  0.25832334  1
  O2-  O241  1  0.76110608  0.65415123  0.59353360  1
  O2-  O242  1  0.77200006  0.62201217  0.76129548  1
