# generated using pymatgen
data_Gd19Ta56(WO20)8
_symmetry_space_group_name_H-M   'P 1'
_cell_length_a   15.44564618
_cell_length_b   15.45460114
_cell_length_c   15.16571873
_cell_angle_alpha   90.01801084
_cell_angle_beta   89.83372934
_cell_angle_gamma   89.96869172
_symmetry_Int_Tables_number   1
_chemical_formula_structural   Gd19Ta56(WO20)8
_chemical_formula_sum   'Gd19 Ta56 W8 O160'
_cell_volume   3620.13665762
_cell_formula_units_Z   1
loop_
 _symmetry_equiv_pos_site_id
 _symmetry_equiv_pos_as_xyz
  1  'x, y, z'
loop_
 _atom_type_symbol
 _atom_type_oxidation_number
  Gd3+  3.0
  Ta5+  5.0
  W6+  6.0
  O2-  -2.0
loop_
 _atom_site_type_symbol
 _atom_site_label
 _atom_site_symmetry_multiplicity
 _atom_site_fract_x
 _atom_site_fract_y
 _atom_site_fract_z
 _atom_site_occupancy
  Gd3+  Gd0  1  0.26471566  0.75018079  0.48275926  1
  Gd3+  Gd1  1  0.76550993  0.23919553  0.01027291  1
  Gd3+  Gd2  1  0.74621706  0.74062493  0.75456182  1
  Gd3+  Gd3  1  0.03612934  0.24982985  0.55512861  1
  Gd3+  Gd4  1  0.74891339  0.76110337  0.00265753  1
  Gd3+  Gd5  1  0.27773070  0.24022617  0.27091613  1
  Gd3+  Gd6  1  0.45673097  0.26801515  -0.01239284  1
  Gd3+  Gd7  1  0.49949372  0.25660394  0.75484100  1
  Gd3+  Gd8  1  0.00808735  0.25702752  0.26089600  1
  Gd3+  Gd9  1  0.47501179  0.24692803  0.51589360  1
  Gd3+  Gd10  1  -0.00116230  0.75285315  0.24958780  1
  Gd3+  Gd11  1  -0.01095558  0.74206430  0.51136981  1
  Gd3+  Gd12  1  0.23468236  0.74594930  0.77471062  1
  Gd3+  Gd13  1  0.77144292  0.22857200  0.76709404  1
  Gd3+  Gd14  1  0.25681671  0.75082473  0.23963034  1
  Gd3+  Gd15  1  0.00098315  0.76738271  -0.01065425  1
  Gd3+  Gd16  1  0.73973744  0.74912890  0.47968412  1
  Gd3+  Gd17  1  0.76237392  0.25860740  0.24433141  1
  Gd3+  Gd18  1  0.03354200  0.24226176  -0.01272954  1
  Ta5+  Ta19  1  0.39176735  0.63140955  0.88683778  1
  Ta5+  Ta20  1  0.87855087  0.89298460  0.85541278  1
  Ta5+  Ta21  1  0.17233057  0.12437812  0.86233565  1
  Ta5+  Ta22  1  0.11508046  0.37000061  0.81691138  1
  Ta5+  Ta23  1  0.64710556  0.36796338  0.60057139  1
  Ta5+  Ta24  1  0.88552151  0.38760581  0.89576068  1
  Ta5+  Ta25  1  0.89875192  0.08831587  0.88210490  1
  Ta5+  Ta26  1  0.36123864  0.38663331  0.63894758  1
  Ta5+  Ta27  1  0.37659199  0.12553625  0.12219628  1
  Ta5+  Ta28  1  0.14287901  0.36684033  0.39485913  1
  Ta5+  Ta29  1  0.59565161  0.62646072  0.88752864  1
  Ta5+  Ta30  1  0.83851366  0.37389346  0.42129117  1
  Ta5+  Ta31  1  0.09705602  0.89864394  0.11759163  1
  Ta5+  Ta32  1  0.11186485  0.87444557  0.37635225  1
  Ta5+  Ta33  1  0.13144795  0.61113128  0.60460167  1
  Ta5+  Ta34  1  0.89200751  0.61581900  0.11956220  1
  Ta5+  Ta35  1  0.88903531  0.60920250  0.37852342  1
  Ta5+  Ta36  1  0.86555171  0.11827147  0.38899593  1
  Ta5+  Ta37  1  0.13193435  0.11818318  0.39330572  1
  Ta5+  Ta38  1  0.93912454  0.41494420  0.12432024  1
  Ta5+  Ta39  1  0.60369040  0.88080720  0.87513458  1
  Ta5+  Ta40  1  0.62313887  0.61407616  0.62509845  1
  Ta5+  Ta41  1  0.09549036  0.61918978  0.10471848  1
  Ta5+  Ta42  1  0.35140480  0.12070060  0.65019676  1
  Ta5+  Ta43  1  0.41375162  0.63281797  0.36997074  1
  Ta5+  Ta44  1  0.61183202  0.87198595  0.62377133  1
  Ta5+  Ta45  1  0.61853164  0.11436158  0.13172784  1
  Ta5+  Ta46  1  0.88847767  0.61268998  0.63998876  1
  Ta5+  Ta47  1  0.33815229  0.39006666  0.13217344  1
  Ta5+  Ta48  1  0.18064850  0.12322540  0.64742459  1
  Ta5+  Ta49  1  0.19538799  0.37349996  0.63614170  1
  Ta5+  Ta50  1  0.07886496  0.90234672  0.84412853  1
  Ta5+  Ta51  1  0.89445329  0.87360769  0.64492350  1
  Ta5+  Ta52  1  0.13556510  0.88290395  0.60535480  1
  Ta5+  Ta53  1  0.58575501  0.87978201  0.38641794  1
  Ta5+  Ta54  1  0.38735140  0.61971282  0.11763969  1
  Ta5+  Ta55  1  0.60509207  0.86999386  0.18015790  1
  Ta5+  Ta56  1  0.87712649  0.36723258  0.64354638  1
  Ta5+  Ta57  1  0.87517715  0.11725422  0.62219710  1
  Ta5+  Ta58  1  0.65908961  0.12061911  0.38075585  1
  Ta5+  Ta59  1  0.38040154  0.63304136  0.63176068  1
  Ta5+  Ta60  1  0.34229686  0.39314753  0.85803852  1
  Ta5+  Ta61  1  0.14457093  0.41484073  0.15771074  1
  Ta5+  Ta62  1  0.41499142  0.86813007  0.36851092  1
  Ta5+  Ta63  1  0.13719919  0.10044893  0.12754883  1
  Ta5+  Ta64  1  0.37814132  0.87646340  0.11784805  1
  Ta5+  Ta65  1  0.62879846  0.12111991  0.62103416  1
  Ta5+  Ta66  1  0.63597445  0.38329836  0.37369349  1
  Ta5+  Ta67  1  0.91904505  0.09707879  0.13817593  1
  Ta5+  Ta68  1  0.13544802  0.61193919  0.36621947  1
  Ta5+  Ta69  1  0.61699794  0.62732239  0.13215773  1
  Ta5+  Ta70  1  0.36569395  0.87880354  0.88593374  1
  Ta5+  Ta71  1  0.58224886  0.63010060  0.37722168  1
  Ta5+  Ta72  1  0.64358949  0.38495355  0.87637230  1
  Ta5+  Ta73  1  0.90804387  0.63229302  0.86408424  1
  Ta5+  Ta74  1  0.34198736  0.12609975  0.86420602  1
  W6+  W75  1  0.39113503  0.38608933  0.38262804  1
  W6+  W76  1  0.90793390  0.87345428  0.39061798  1
  W6+  W77  1  0.07295586  0.62645512  0.84678784  1
  W6+  W78  1  0.63100529  0.12203202  0.88312686  1
  W6+  W79  1  0.60012569  0.37402537  0.12751911  1
  W6+  W80  1  0.36254997  0.87432513  0.62631443  1
  W6+  W81  1  0.88731333  0.88121066  0.12328999  1
  W6+  W82  1  0.38910828  0.11425417  0.38785351  1
  O2-  O83  1  0.03127596  0.01647327  0.13833070  1
  O2-  O84  1  0.09813243  0.00318804  0.38225721  1
  O2-  O85  1  0.16719224  -0.00330427  0.62829609  1
  O2-  O86  1  0.15812515  -0.00482605  0.85786768  1
  O2-  O87  1  0.15394320  0.51485886  0.07999305  1
  O2-  O88  1  0.13149899  0.48452271  0.36854788  1
  O2-  O89  1  0.16626839  0.49973622  0.63338292  1
  O2-  O90  1  0.10767522  0.48581977  0.84379626  1
  O2-  O91  1  0.38059719  0.00512943  0.11687695  1
  O2-  O92  1  0.41016652  -0.01226525  0.37206480  1
  O2-  O93  1  0.36137081  0.00130685  0.64984274  1
  O2-  O94  1  0.36014217  0.00028345  0.87474285  1
  O2-  O95  1  0.40547129  0.49592863  0.11937820  1
  O2-  O96  1  0.41301998  0.51302448  0.37357925  1
  O2-  O97  1  0.35554874  0.51642997  0.63131366  1
  O2-  O98  1  0.34790638  0.51621528  0.86314372  1
  O2-  O99  1  0.62487895  -0.01234235  0.14222063  1
  O2-  O100  1  0.61498832  0.00511686  0.38292262  1
  O2-  O101  1  0.61817506  -0.00075587  0.63024329  1
  O2-  O102  1  0.58704135  -0.00419700  0.86227336  1
  O2-  O103  1  0.60635532  0.51018663  0.13002317  1
  O2-  O104  1  0.60883174  0.50163641  0.38050021  1
  O2-  O105  1  0.63368083  0.48924132  0.62000653  1
  O2-  O106  1  0.62770140  0.50750069  0.87084058  1
  O2-  O107  1  0.83981879  0.00991326  0.13508547  1
  O2-  O108  1  0.89868780  0.00774170  0.39942894  1
  O2-  O109  1  0.88089097  -0.00283683  0.61295726  1
  O2-  O110  1  0.81259177  0.00235469  0.89044328  1
  O2-  O111  1  0.84269967  0.49291173  0.11186042  1
  O2-  O112  1  0.89123626  0.48030233  0.39610421  1
  O2-  O113  1  0.86567557  0.48649178  0.62519734  1
  O2-  O114  1  0.90551273  0.50438115  0.89410307  1
  O2-  O115  1  0.05161273  0.36409379  0.06985159  1
  O2-  O116  1  0.07367766  0.24438276  0.40099839  1
  O2-  O117  1  0.18294764  0.24848829  0.62132234  1
  O2-  O118  1  0.14955539  0.26157861  0.88342654  1
  O2-  O119  1  0.09385965  0.76054168  0.11765150  1
  O2-  O120  1  0.15654417  0.74624162  0.36669900  1
  O2-  O121  1  0.12602930  0.74577769  0.57426681  1
  O2-  O122  1  0.08965840  0.77477546  0.86596411  1
  O2-  O123  1  0.38810726  0.26676453  0.11427180  1
  O2-  O124  1  0.40339390  0.24821211  0.38548500  1
  O2-  O125  1  0.39075227  0.25711754  0.65143700  1
  O2-  O126  1  0.37627663  0.26312179  0.85729903  1
  O2-  O127  1  0.34542766  0.75107072  0.12050656  1
  O2-  O128  1  0.34976290  0.75089620  0.35446203  1
  O2-  O129  1  0.30841464  0.74294900  0.62760597  1
  O2-  O130  1  0.33339497  0.74465988  0.89320821  1
  O2-  O131  1  0.66153643  0.24156230  0.12865161  1
  O2-  O132  1  0.67060499  0.24899686  0.37585433  1
  O2-  O133  1  0.58574994  0.25521474  0.62367641  1
  O2-  O134  1  0.67836147  0.25356306  0.88264859  1
  O2-  O135  1  0.65577545  0.76899645  0.12527486  1
  O2-  O136  1  0.60446826  0.75391912  0.40032198  1
  O2-  O137  1  0.67069984  0.74598328  0.61955405  1
  O2-  O138  1  0.66046671  0.74068539  0.87914290  1
  O2-  O139  1  0.83671993  0.18862927  0.12940371  1
  O2-  O140  1  0.87020474  0.26165107  0.36804573  1
  O2-  O141  1  0.91515276  0.24001171  0.65589666  1
  O2-  O142  1  0.85918090  0.21787260  0.89065703  1
  O2-  O143  1  0.90434413  0.74198341  0.13296353  1
  O2-  O144  1  0.89345922  0.73696054  0.37306503  1
  O2-  O145  1  0.89901008  0.74145016  0.65215807  1
  O2-  O146  1  0.86491968  0.75532286  0.85051863  1
  O2-  O147  1  0.13598058  0.12557187  0.00056261  1
  O2-  O148  1  0.12702203  0.13622312  0.26023665  1
  O2-  O149  1  0.11951331  0.12616098  0.52146740  1
  O2-  O150  1  0.10627047  0.13537428  0.75119953  1
  O2-  O151  1  0.08570183  0.64649770  -0.01697822  1
  O2-  O152  1  0.11966067  0.62923022  0.23667772  1
  O2-  O153  1  0.19150575  0.61145073  0.48460194  1
  O2-  O154  1  0.13402265  0.65044869  0.72291156  1
  O2-  O155  1  0.36282510  0.14511482  -0.01060826  1
  O2-  O156  1  0.38544637  0.13558644  0.24663569  1
  O2-  O157  1  0.38395747  0.12861943  0.52801145  1
  O2-  O158  1  0.42973780  0.12706968  0.76008507  1
  O2-  O159  1  0.33333259  0.61786783  0.00632840  1
  O2-  O160  1  0.35105445  0.62890918  0.24043126  1
  O2-  O161  1  0.38432740  0.65074126  0.49991617  1
  O2-  O162  1  0.34810008  0.64502491  0.75605249  1
  O2-  O163  1  0.50589115  0.13727765  0.09465683  1
  O2-  O164  1  0.61067593  0.13164313  0.25616926  1
  O2-  O165  1  0.59083346  0.14034156  0.49825145  1
  O2-  O166  1  0.61789317  0.14847117  0.74551925  1
  O2-  O167  1  0.66137631  0.63674175  0.00734851  1
  O2-  O168  1  0.62018257  0.64399804  0.25659009  1
  O2-  O169  1  0.64983352  0.62640103  0.50079280  1
  O2-  O170  1  0.64900739  0.62532263  0.74890822  1
  O2-  O171  1  0.93699341  0.11190790  0.00525266  1
  O2-  O172  1  0.93476672  0.12763794  0.26767550  1
  O2-  O173  1  0.92516599  0.15110029  0.50568518  1
  O2-  O174  1  0.87743376  0.10848862  0.75484861  1
  O2-  O175  1  0.87706861  0.65268754  -0.00939489  1
  O2-  O176  1  0.90239603  0.60767280  0.25208809  1
  O2-  O177  1  0.85201832  0.63600009  0.50824740  1
  O2-  O178  1  0.83524060  0.60837343  0.75389003  1
  O2-  O179  1  0.00070211  0.34401818  -0.12327443  1
  O2-  O180  1  0.14564686  0.32170224  0.26497558  1
  O2-  O181  1  0.11696350  0.37114146  0.51764920  1
  O2-  O182  1  0.07045108  0.35139548  0.70399934  1
  O2-  O183  1  0.08055770  0.89571021  -0.00971026  1
  O2-  O184  1  0.11535137  0.86891628  0.24615814  1
  O2-  O185  1  0.18564797  0.88287200  0.48408621  1
  O2-  O186  1  0.14129895  0.85861726  0.73205187  1
  O2-  O187  1  0.36145607  0.38210028  -0.01495967  1
  O2-  O188  1  0.37037060  0.35671173  0.24765779  1
  O2-  O189  1  0.39854061  0.38009429  0.52103144  1
  O2-  O190  1  0.42674088  0.39503819  0.76109818  1
  O2-  O191  1  0.32052338  0.88229947  0.00429880  1
  O2-  O192  1  0.33621883  0.87618985  0.23913735  1
  O2-  O193  1  0.37906816  0.85325778  0.48997579  1
  O2-  O194  1  0.33194090  0.85986432  0.76599175  1
  O2-  O195  1  0.57306650  0.36546599  -0.02184610  1
  O2-  O196  1  0.58431368  0.35907031  0.26604041  1
  O2-  O197  1  0.57776138  0.35685156  0.49043190  1
  O2-  O198  1  0.62455972  0.36345719  0.75223508  1
  O2-  O199  1  0.67485774  0.88077971  -0.02690696  1
  O2-  O200  1  0.67373142  0.87022588  0.28188508  1
  O2-  O201  1  0.65913912  0.87565420  0.50557216  1
  O2-  O202  1  0.63543849  0.85424002  0.75222260  1
  O2-  O203  1  0.89486627  0.34017156  0.01927592  1
  O2-  O204  1  0.89099095  0.33447812  0.20368522  1
  O2-  O205  1  0.91782239  0.34682452  0.51969338  1
  O2-  O206  1  0.85343178  0.36214917  0.77493532  1
  O2-  O207  1  0.87313719  0.85852385  -0.01930206  1
  O2-  O208  1  0.92653644  0.87627608  0.25486265  1
  O2-  O209  1  0.85217711  0.84166751  0.52518646  1
  O2-  O210  1  0.80682839  0.88017010  0.73948201  1
  O2-  O211  1  -0.02171349  -0.01366530  -0.12328419  1
  O2-  O212  1  0.03312692  0.18732619  0.12953188  1
  O2-  O213  1  0.01257682  -0.12358933  0.59009350  1
  O2-  O214  1  -0.02989158  -0.12302381  0.76049737  1
  O2-  O215  1  -0.00748800  0.54023905  0.08985599  1
  O2-  O216  1  0.02919854  0.43099156  0.21817769  1
  O2-  O217  1  0.01624195  0.62187933  0.40139189  1
  O2-  O218  1  0.00815766  0.60630687  0.58885255  1
  O2-  O219  1  0.25110365  0.15071702  0.14052371  1
  O2-  O220  1  0.18775486  -0.01472845  0.12214241  1
  O2-  O221  1  0.24980946  0.14416690  0.38746511  1
  O2-  O222  1  0.26482846  0.15291918  0.75599427  1
  O2-  O223  1  0.22506794  0.33321410  0.10252244  1
  O2-  O224  1  0.25180898  0.46018894  0.20206171  1
  O2-  O225  1  0.25941987  0.34455158  0.39605401  1
  O2-  O226  1  0.24506726  0.37346609  0.77157517  1
  O2-  O227  1  0.49682980  -0.13879489  0.10164635  1
  O2-  O228  1  0.51224785  -0.14639906  0.27159455  1
  O2-  O229  1  0.49858958  -0.15556522  0.62423313  1
  O2-  O230  1  0.48575067  -0.15031092  0.89934773  1
  O2-  O231  1  0.49489533  0.59518421  -0.03969205  1
  O2-  O232  1  0.50091028  0.66528079  0.12058626  1
  O2-  O233  1  0.50411812  0.63281691  0.63252516  1
  O2-  O234  1  0.49868566  0.67346137  0.82376546  1
  O2-  O235  1  0.68131088  0.11476874  0.01892692  1
  O2-  O236  1  0.76803344  0.12085307  0.30157947  1
  O2-  O237  1  0.76007594  0.10924059  0.46283375  1
  O2-  O238  1  0.75204034  0.14198617  0.63218404  1
  O2-  O239  1  0.75861510  0.39192319  -0.07393748  1
  O2-  O240  1  0.75468878  0.39030759  0.32090531  1
  O2-  O241  1  0.73491209  0.39035033  0.49016529  1
  O2-  O242  1  0.75613988  0.32255914  0.64159526  1
