# generated using pymatgen
data_Gd19Ta56(WO20)8
_symmetry_space_group_name_H-M   'P 1'
_cell_length_a   15.45098188
_cell_length_b   15.41322983
_cell_length_c   15.27035174
_cell_angle_alpha   90.06361730
_cell_angle_beta   90.07143376
_cell_angle_gamma   90.04954245
_symmetry_Int_Tables_number   1
_chemical_formula_structural   Gd19Ta56(WO20)8
_chemical_formula_sum   'Gd19 Ta56 W8 O160'
_cell_volume   3636.62073087
_cell_formula_units_Z   1
loop_
 _symmetry_equiv_pos_site_id
 _symmetry_equiv_pos_as_xyz
  1  'x, y, z'
loop_
 _atom_type_symbol
 _atom_type_oxidation_number
  Gd3+  3.0
  Ta5+  5.0
  W6+  6.0
  O2-  -2.0
loop_
 _atom_site_type_symbol
 _atom_site_label
 _atom_site_symmetry_multiplicity
 _atom_site_fract_x
 _atom_site_fract_y
 _atom_site_fract_z
 _atom_site_occupancy
  Gd3+  Gd0  1  0.01245047  0.24086226  0.48911529  1
  Gd3+  Gd1  1  0.46672530  0.74628109  0.50038650  1
  Gd3+  Gd2  1  0.01141948  0.75194795  -0.03016036  1
  Gd3+  Gd3  1  0.74477882  0.22214555  0.74985045  1
  Gd3+  Gd4  1  0.48934836  0.74515935  0.74437713  1
  Gd3+  Gd5  1  0.75477007  0.76704886  0.00831856  1
  Gd3+  Gd6  1  0.74654002  0.28020133  0.23403974  1
  Gd3+  Gd7  1  0.50447866  0.24085078  0.75017639  1
  Gd3+  Gd8  1  0.47874902  0.23741025  0.49198618  1
  Gd3+  Gd9  1  0.50705346  0.24588408  0.25120271  1
  Gd3+  Gd10  1  0.27470447  0.76949930  0.00141311  1
  Gd3+  Gd11  1  0.71073425  0.23552832  0.01019607  1
  Gd3+  Gd12  1  -0.00853876  0.24171385  0.25419010  1
  Gd3+  Gd13  1  -0.00966022  0.25555237  0.75521637  1
  Gd3+  Gd14  1  0.50323488  0.74209707  0.24847103  1
  Gd3+  Gd15  1  0.47998095  0.24328027  0.00923132  1
  Gd3+  Gd16  1  0.76887177  0.75940601  0.48344946  1
  Gd3+  Gd17  1  0.22168742  0.24589143  0.25696172  1
  Gd3+  Gd18  1  0.04311425  0.73366037  0.50720069  1
  Ta5+  Ta19  1  0.10580678  0.63598077  0.11811558  1
  Ta5+  Ta20  1  0.86429579  0.38874186  0.38019742  1
  Ta5+  Ta21  1  0.61289521  0.07626911  0.88099592  1
  Ta5+  Ta22  1  0.11877017  0.41877264  0.42071492  1
  Ta5+  Ta23  1  0.12045842  0.87536322  0.36918220  1
  Ta5+  Ta24  1  0.62793345  0.62408404  0.12099107  1
  Ta5+  Ta25  1  0.64192071  0.11852127  0.38674753  1
  Ta5+  Ta26  1  0.89290517  0.40464182  0.11496382  1
  Ta5+  Ta27  1  0.14370402  0.14443195  0.87912332  1
  Ta5+  Ta28  1  0.63042750  0.63483799  0.88134130  1
  Ta5+  Ta29  1  0.85483469  0.38593598  0.87720681  1
  Ta5+  Ta30  1  0.35402324  0.11012387  0.12879894  1
  Ta5+  Ta31  1  0.59902648  0.08197699  0.14100803  1
  Ta5+  Ta32  1  0.57405653  0.43599270  0.13544924  1
  Ta5+  Ta33  1  0.33258916  0.11413370  0.38368353  1
  Ta5+  Ta34  1  0.82315495  0.89860337  0.62964666  1
  Ta5+  Ta35  1  0.61258971  0.38443548  0.88354244  1
  Ta5+  Ta36  1  0.18967814  0.62544425  0.62405707  1
  Ta5+  Ta37  1  0.43573475  0.88014201  0.11249559  1
  Ta5+  Ta38  1  0.15776111  0.09955117  0.64259289  1
  Ta5+  Ta39  1  0.13560755  0.38421297  0.86739028  1
  Ta5+  Ta40  1  0.59405670  0.87582025  0.88632790  1
  Ta5+  Ta41  1  0.40221474  0.61558893  0.10556110  1
  Ta5+  Ta42  1  0.36550638  0.10200234  0.86954720  1
  Ta5+  Ta43  1  0.42564006  0.88643768  0.87942632  1
  Ta5+  Ta44  1  0.63213831  0.62476463  0.37693253  1
  Ta5+  Ta45  1  0.61837943  0.37957971  0.39227473  1
  Ta5+  Ta46  1  0.16026509  0.63045553  0.35542470  1
  Ta5+  Ta47  1  0.33867981  0.37375366  0.12834453  1
  Ta5+  Ta48  1  0.60736662  0.87766348  0.12202312  1
  Ta5+  Ta49  1  0.37265940  0.61557976  0.36122262  1
  Ta5+  Ta50  1  0.63148817  0.08603600  0.62058525  1
  Ta5+  Ta51  1  0.38894590  0.62387823  0.88351768  1
  Ta5+  Ta52  1  0.61210650  0.62156218  0.62228750  1
  Ta5+  Ta53  1  0.89003678  0.62101048  0.85805860  1
  Ta5+  Ta54  1  0.10083556  0.88147944  0.11844154  1
  Ta5+  Ta55  1  0.65645726  0.37364348  0.63076778  1
  Ta5+  Ta56  1  0.36996078  0.37191629  0.87120881  1
  Ta5+  Ta57  1  0.93168250  0.87253815  0.12804804  1
  Ta5+  Ta58  1  0.89613738  0.63594184  0.37211731  1
  Ta5+  Ta59  1  0.35280476  0.10981354  0.63695852  1
  Ta5+  Ta60  1  0.90467350  0.07815934  0.09695919  1
  Ta5+  Ta61  1  0.85371526  0.11620023  0.88881163  1
  Ta5+  Ta62  1  0.34026376  0.42723360  0.38136964  1
  Ta5+  Ta63  1  0.84327112  0.13240400  0.40061917  1
  Ta5+  Ta64  1  0.10589354  0.42593212  0.10779363  1
  Ta5+  Ta65  1  0.18256329  0.86224414  0.62665588  1
  Ta5+  Ta66  1  0.10468915  0.09178855  0.09276782  1
  Ta5+  Ta67  1  0.93290562  0.62122209  0.12271599  1
  Ta5+  Ta68  1  0.35034558  0.87403505  0.62738037  1
  Ta5+  Ta69  1  0.61885186  0.88079119  0.63044140  1
  Ta5+  Ta70  1  0.89314869  0.88088613  0.86033926  1
  Ta5+  Ta71  1  0.11826823  0.39268578  0.61998792  1
  Ta5+  Ta72  1  0.60876661  0.87690603  0.38186970  1
  Ta5+  Ta73  1  0.13395407  0.62695710  0.85847538  1
  Ta5+  Ta74  1  0.86523112  0.37316143  0.62504179  1
  W6+  W75  1  0.10976300  0.06082530  0.41368412  1
  W6+  W76  1  0.85320261  0.62914984  0.62626757  1
  W6+  W77  1  0.35941956  0.36544428  0.61776233  1
  W6+  W78  1  0.89061490  0.89403049  0.37610381  1
  W6+  W79  1  0.88621198  0.09894475  0.63858312  1
  W6+  W80  1  0.36212278  0.87285430  0.36503047  1
  W6+  W81  1  0.13752080  0.89082258  0.86742707  1
  W6+  W82  1  0.35335460  0.61664948  0.62368010  1
  O2-  O83  1  0.17409371  -0.00563653  0.10329707  1
  O2-  O84  1  0.19713871  -0.02911344  0.36204753  1
  O2-  O85  1  0.14017338  -0.01849284  0.61639010  1
  O2-  O86  1  0.12232558  0.02809139  0.87097419  1
  O2-  O87  1  0.17392657  0.52576257  0.11546112  1
  O2-  O88  1  0.09804289  0.52250999  0.35063470  1
  O2-  O89  1  0.14791829  0.51236982  0.64258014  1
  O2-  O90  1  0.16349821  0.50434135  0.86012106  1
  O2-  O91  1  0.36222221  -0.00739305  0.13103974  1
  O2-  O92  1  0.37276322  0.00472333  0.36289922  1
  O2-  O93  1  0.37990969  -0.00600586  0.60898827  1
  O2-  O94  1  0.33117072  -0.01013401  0.87403114  1
  O2-  O95  1  0.34906373  0.49357192  0.12154625  1
  O2-  O96  1  0.43666095  0.50000306  0.36988326  1
  O2-  O97  1  0.34086450  0.49263957  0.61098353  1
  O2-  O98  1  0.38136738  0.49176419  0.88441002  1
  O2-  O99  1  0.68088473  -0.00180751  0.15548323  1
  O2-  O100  1  0.64890286  -0.00243728  0.38205932  1
  O2-  O101  1  0.55490229  -0.00725800  0.62092145  1
  O2-  O102  1  0.68142439  -0.01868999  0.87187466  1
  O2-  O103  1  0.67491651  0.50091021  0.14139153  1
  O2-  O104  1  0.62240586  0.50028206  0.38557698  1
  O2-  O105  1  0.63895466  0.49510683  0.62929608  1
  O2-  O106  1  0.63072878  0.50279591  0.88059444  1
  O2-  O107  1  0.84819903  -0.02773778  0.10150594  1
  O2-  O108  1  0.86520708  0.02686109  0.35185437  1
  O2-  O109  1  0.92049352  -0.03342495  0.63623030  1
  O2-  O110  1  0.89165713  0.00186337  0.90671768  1
  O2-  O111  1  0.84566428  0.51420108  0.11701633  1
  O2-  O112  1  0.89459780  0.50372928  0.38003500  1
  O2-  O113  1  0.87282452  0.49163755  0.62554300  1
  O2-  O114  1  0.83592534  0.50463042  0.88103834  1
  O2-  O115  1  0.20346425  0.35672954  0.14755839  1
  O2-  O116  1  0.02184754  0.15172216  0.36561394  1
  O2-  O117  1  -0.00149606  0.32951118  0.62457185  1
  O2-  O118  1  0.08219971  0.25788566  0.88129903  1
  O2-  O119  1  0.13148278  0.75905864  0.09011264  1
  O2-  O120  1  0.09992332  0.74070609  0.37073254  1
  O2-  O121  1  0.13065416  0.74104210  0.62869671  1
  O2-  O122  1  0.15577909  0.75218510  0.89592210  1
  O2-  O123  1  0.32336092  0.24263642  0.13435718  1
  O2-  O124  1  0.41527865  0.20401591  0.35450264  1
  O2-  O125  1  0.42055222  0.23018954  0.62879981  1
  O2-  O126  1  0.41700073  0.24631373  0.87504771  1
  O2-  O127  1  0.40893100  0.74257432  0.09981418  1
  O2-  O128  1  0.40218085  0.74012534  0.35884200  1
  O2-  O129  1  0.39337582  0.74846903  0.63315578  1
  O2-  O130  1  0.37667066  0.75477255  0.88793057  1
  O2-  O131  1  0.65053043  0.20616456  0.14406876  1
  O2-  O132  1  0.59388255  0.24638827  0.37930759  1
  O2-  O133  1  0.63760103  0.23651709  0.64349682  1
  O2-  O134  1  0.58610217  0.25125795  0.89959353  1
  O2-  O135  1  0.64540083  0.74993284  0.11740064  1
  O2-  O136  1  0.58259840  0.74313681  0.38567479  1
  O2-  O137  1  0.57927645  0.75738719  0.61877476  1
  O2-  O138  1  0.66183315  0.75841997  0.88844865  1
  O2-  O139  1  0.79735714  0.32394028  0.10161827  1
  O2-  O140  1  0.87807282  0.24946749  0.35809948  1
  O2-  O141  1  0.86245279  0.24113527  0.66318583  1
  O2-  O142  1  0.87948948  0.24305292  0.86503076  1
  O2-  O143  1  0.92600939  0.74714818  0.11357182  1
  O2-  O144  1  0.91768120  0.76022790  0.40095347  1
  O2-  O145  1  0.82850109  0.77174918  0.62114992  1
  O2-  O146  1  0.89684213  0.74710459  0.85860169  1
  O2-  O147  1  0.17088849  0.15034257  0.00427606  1
  O2-  O148  1  0.11238861  0.17275303  0.18632332  1
  O2-  O149  1  0.08584890  0.12957427  0.54275617  1
  O2-  O150  1  0.10515287  0.15593042  0.74298814  1
  O2-  O151  1  0.09839801  0.62167465  -0.01393686  1
  O2-  O152  1  0.15686741  0.65203450  0.23370832  1
  O2-  O153  1  0.16156297  0.63328335  0.49279101  1
  O2-  O154  1  0.19730019  0.64450555  0.75429219  1
  O2-  O155  1  0.38173403  0.12639920  -0.00422105  1
  O2-  O156  1  0.30555009  0.12178342  0.24582686  1
  O2-  O157  1  0.37834708  0.12596686  0.50035046  1
  O2-  O158  1  0.42127002  0.11501334  0.75467349  1
  O2-  O159  1  0.32314686  0.62604614  -0.00090827  1
  O2-  O160  1  0.41568366  0.61842245  0.23182862  1
  O2-  O161  1  0.36118530  0.63137236  0.48488287  1
  O2-  O162  1  0.39214997  0.62736467  0.75907842  1
  O2-  O163  1  0.60079234  0.11287667  0.00773851  1
  O2-  O164  1  0.57575119  0.11006535  0.26820934  1
  O2-  O165  1  0.58061376  0.12536927  0.50792131  1
  O2-  O166  1  0.61316566  0.11100798  0.75132961  1
  O2-  O167  1  0.68465427  0.62797455  0.00056361  1
  O2-  O168  1  0.61656490  0.63036332  0.24912507  1
  O2-  O169  1  0.66245744  0.64117294  0.50622180  1
  O2-  O170  1  0.60950297  0.64103162  0.75107269  1
  O2-  O171  1  0.82422195  0.13915112  0.01822283  1
  O2-  O172  1  0.88921436  0.15765022  0.18775278  1
  O2-  O173  1  0.90649383  0.13846919  0.50591520  1
  O2-  O174  1  0.83380886  0.09933058  0.76660106  1
  O2-  O175  1  0.91260121  0.62938822  -0.01231712  1
  O2-  O176  1  0.91213075  0.63435661  0.25092595  1
  O2-  O177  1  0.84569452  0.63126595  0.49379904  1
  O2-  O178  1  0.82387800  0.62452029  0.75524060  1
  O2-  O179  1  0.10222423  0.40003111  -0.01186462  1
  O2-  O180  1  0.09144133  0.32878892  0.33397231  1
  O2-  O181  1  0.13363878  0.31953577  0.51144941  1
  O2-  O182  1  0.09030053  0.37336487  0.75241442  1
  O2-  O183  1  0.06962291  0.88918774  -0.00992603  1
  O2-  O184  1  0.11339386  0.86565326  0.24255364  1
  O2-  O185  1  0.13918701  0.84702634  0.49600681  1
  O2-  O186  1  0.19574475  0.86886662  0.74847805  1
  O2-  O187  1  0.37309356  0.35261265  0.00464117  1
  O2-  O188  1  0.32577412  0.36583173  0.27178519  1
  O2-  O189  1  0.38314062  0.35179769  0.47180748  1
  O2-  O190  1  0.40282793  0.36196863  0.75217297  1
  O2-  O191  1  0.37372298  0.88181711  -0.00058309  1
  O2-  O192  1  0.41460708  0.86234177  0.23587609  1
  O2-  O193  1  0.34786379  0.84770240  0.50014638  1
  O2-  O194  1  0.40569676  0.87400777  0.75187599  1
  O2-  O195  1  0.59098591  0.37412370  0.02088486  1
  O2-  O196  1  0.61286411  0.36290835  0.24914740  1
  O2-  O197  1  0.58429668  0.36012902  0.51367833  1
  O2-  O198  1  0.59474237  0.36596029  0.75893752  1
  O2-  O199  1  0.66033214  0.88217124  0.00594990  1
  O2-  O200  1  0.60576131  0.86357524  0.25553003  1
  O2-  O201  1  0.65294212  0.85876675  0.50279531  1
  O2-  O202  1  0.60205385  0.86888430  0.75499897  1
  O2-  O203  1  0.91302971  0.38442427  -0.01323363  1
  O2-  O204  1  0.87876897  0.37223218  0.24811609  1
  O2-  O205  1  0.90271639  0.35327709  0.49352532  1
  O2-  O206  1  0.91544506  0.38410791  0.76920150  1
  O2-  O207  1  0.88267272  0.84787745  -0.01130232  1
  O2-  O208  1  0.92220569  0.87543283  0.24725671  1
  O2-  O209  1  0.82941712  0.89617757  0.49966507  1
  O2-  O210  1  0.81901099  0.89028422  0.76388188  1
  O2-  O211  1  0.00035902  0.11703165  0.01987609  1
  O2-  O212  1  0.01157510  0.00511417  0.14135617  1
  O2-  O213  1  0.02296821  -0.05365077  0.39978970  1
  O2-  O214  1  0.00670344  -0.12065293  0.82425874  1
  O2-  O215  1  0.00597699  0.50517587  0.12929832  1
  O2-  O216  1  0.00819756  0.34156915  0.14002714  1
  O2-  O217  1  0.05461535  0.45872912  0.51592094  1
  O2-  O218  1  0.01234187  0.61006351  0.82811574  1
  O2-  O219  1  0.26127809  0.16483578  -0.14714345  1
  O2-  O220  1  0.21576521  0.15780725  0.38791022  1
  O2-  O221  1  0.24849873  0.16877539  0.59173495  1
  O2-  O222  1  0.26255216  0.06741505  0.71382904  1
  O2-  O223  1  0.24984884  0.34464113  -0.13442464  1
  O2-  O224  1  0.27127576  0.54836183  0.33006827  1
  O2-  O225  1  0.23648928  0.44074761  0.44798266  1
  O2-  O226  1  0.22761939  0.35208725  0.65362939  1
  O2-  O227  1  0.52337546  -0.01566668  0.10408576  1
  O2-  O228  1  0.47441584  0.15358244  0.13809680  1
  O2-  O229  1  0.49348118  -0.11603766  0.41443853  1
  O2-  O230  1  0.50529669  0.00402067  0.88381758  1
  O2-  O231  1  0.51408043  0.54011091  0.09149590  1
  O2-  O232  1  0.46564442  0.35308280  0.15139218  1
  O2-  O233  1  0.49699568  0.61241703  0.59348557  1
  O2-  O234  1  0.50999026  0.63370736  0.90601191  1
  O2-  O235  1  0.72673431  0.15155507  -0.11477006  1
  O2-  O236  1  0.73915321  0.15774907  0.31321327  1
  O2-  O237  1  0.74002017  0.12798658  0.47320010  1
  O2-  O238  1  0.71621435  -0.01323597  0.62926987  1
  O2-  O239  1  0.73656935  0.34443529  -0.10096799  1
  O2-  O240  1  0.74203200  0.36393651  0.36972957  1
  O2-  O241  1  0.75478467  0.36254243  0.55532839  1
  O2-  O242  1  0.75820592  0.36839304  0.71600236  1
