# generated using pymatgen
data_Gd19Ta56(WO20)8
_symmetry_space_group_name_H-M   'P 1'
_cell_length_a   15.55822934
_cell_length_b   15.53729882
_cell_length_c   15.39783416
_cell_angle_alpha   90.00378777
_cell_angle_beta   90.11475352
_cell_angle_gamma   89.86802411
_symmetry_Int_Tables_number   1
_chemical_formula_structural   Gd19Ta56(WO20)8
_chemical_formula_sum   'Gd19 Ta56 W8 O160'
_cell_volume   3722.14511756
_cell_formula_units_Z   1
loop_
 _symmetry_equiv_pos_site_id
 _symmetry_equiv_pos_as_xyz
  1  'x, y, z'
loop_
 _atom_type_symbol
 _atom_type_oxidation_number
  Gd3+  3.0
  Ta5+  5.0
  W6+  6.0
  O2-  -2.0
loop_
 _atom_site_type_symbol
 _atom_site_label
 _atom_site_symmetry_multiplicity
 _atom_site_fract_x
 _atom_site_fract_y
 _atom_site_fract_z
 _atom_site_occupancy
  Gd3+  Gd0  1  0.01025000  0.25251942  -0.01598393  1
  Gd3+  Gd1  1  0.00718252  0.25272394  0.75062304  1
  Gd3+  Gd2  1  0.51195458  0.74600852  0.75016289  1
  Gd3+  Gd3  1  0.23027659  0.24185253  0.50095872  1
  Gd3+  Gd4  1  0.24089712  0.27010524  0.00234541  1
  Gd3+  Gd5  1  0.27177711  0.75490489  0.48929563  1
  Gd3+  Gd6  1  -0.01558074  0.75559376  0.25755621  1
  Gd3+  Gd7  1  0.48949114  0.25069059  -0.01504639  1
  Gd3+  Gd8  1  0.74252239  0.75702775  0.50478748  1
  Gd3+  Gd9  1  0.50697565  0.24006899  0.74453128  1
  Gd3+  Gd10  1  0.72138359  0.24003147  0.26830449  1
  Gd3+  Gd11  1  0.28374422  0.75685321  0.77212141  1
  Gd3+  Gd12  1  0.25327497  0.25459802  0.25464224  1
  Gd3+  Gd13  1  -0.02796712  0.76036213  -0.01558350  1
  Gd3+  Gd14  1  0.71416816  0.25004686  0.01753775  1
  Gd3+  Gd15  1  0.75660695  0.25992226  0.50539989  1
  Gd3+  Gd16  1  0.73289335  0.73890087  0.24479711  1
  Gd3+  Gd17  1  0.72967879  0.73987502  -0.00967269  1
  Gd3+  Gd18  1  0.52688940  0.26153994  0.48180092  1
  Ta5+  Ta19  1  0.12274564  0.39296085  0.12506888  1
  Ta5+  Ta20  1  0.12035531  0.84278153  0.86980024  1
  Ta5+  Ta21  1  0.38615918  0.62823303  0.62309080  1
  Ta5+  Ta22  1  0.64087141  0.37722805  0.87293836  1
  Ta5+  Ta23  1  0.15920353  0.38394154  0.65257534  1
  Ta5+  Ta24  1  0.60281551  0.62365980  0.13426757  1
  Ta5+  Ta25  1  0.11596441  0.65441529  0.86696215  1
  Ta5+  Ta26  1  0.85253826  0.88534382  0.13217590  1
  Ta5+  Ta27  1  0.84428570  0.88252554  0.86951021  1
  Ta5+  Ta28  1  0.11398877  0.87645540  0.38160563  1
  Ta5+  Ta29  1  0.43138045  0.63065137  0.12398288  1
  Ta5+  Ta30  1  0.88462596  0.36987550  0.12101749  1
  Ta5+  Ta31  1  0.90156867  0.62592998  0.61880149  1
  Ta5+  Ta32  1  0.58864571  0.61806902  0.88633262  1
  Ta5+  Ta33  1  0.60534336  0.08560048  0.38514277  1
  Ta5+  Ta34  1  0.39000336  0.39231588  0.36639676  1
  Ta5+  Ta35  1  0.13790971  0.87666813  0.62658325  1
  Ta5+  Ta36  1  0.39238362  0.07582590  0.37234549  1
  Ta5+  Ta37  1  0.60126279  0.11052445  0.13289028  1
  Ta5+  Ta38  1  0.84644535  0.12394108  0.86085133  1
  Ta5+  Ta39  1  0.14517650  0.62997249  0.62462630  1
  Ta5+  Ta40  1  0.58525265  0.87448989  0.37874626  1
  Ta5+  Ta41  1  0.36926706  0.86864460  0.12741856  1
  Ta5+  Ta42  1  0.88271566  0.12441628  0.62166158  1
  Ta5+  Ta43  1  0.12718709  0.86567284  0.12166995  1
  Ta5+  Ta44  1  0.64266352  0.10975875  0.63653109  1
  Ta5+  Ta45  1  0.88540690  0.38190649  0.62716368  1
  Ta5+  Ta46  1  0.35810453  0.10798395  0.86266276  1
  Ta5+  Ta47  1  0.41735330  0.61990612  0.88217325  1
  Ta5+  Ta48  1  0.37371740  0.11254377  0.12379758  1
  Ta5+  Ta49  1  0.58659843  0.65981366  0.38032014  1
  Ta5+  Ta50  1  0.89367219  0.87660226  0.62451372  1
  Ta5+  Ta51  1  0.36725111  0.12143660  0.61682078  1
  Ta5+  Ta52  1  0.60188366  0.87688424  0.88501532  1
  Ta5+  Ta53  1  0.10762801  0.62671770  0.38538315  1
  Ta5+  Ta54  1  0.84769260  0.37610822  0.87212549  1
  Ta5+  Ta55  1  0.62532516  0.88351344  0.62935991  1
  Ta5+  Ta56  1  0.87579559  0.62173126  0.39071050  1
  Ta5+  Ta57  1  0.87776034  0.12698077  0.11596352  1
  Ta5+  Ta58  1  0.87637226  0.88688103  0.38888792  1
  Ta5+  Ta59  1  0.15578791  0.08148049  0.87025343  1
  Ta5+  Ta60  1  0.41407327  0.62396723  0.37094341  1
  Ta5+  Ta61  1  0.43114322  0.87796762  0.88919284  1
  Ta5+  Ta62  1  0.37907995  0.38622485  0.11882339  1
  Ta5+  Ta63  1  0.13291279  0.40567066  0.85888701  1
  Ta5+  Ta64  1  0.11887527  0.38028923  0.37762511  1
  Ta5+  Ta65  1  0.11067254  0.11513616  0.11950683  1
  Ta5+  Ta66  1  0.39589303  0.88153416  0.62290717  1
  Ta5+  Ta67  1  0.60947373  0.87088326  0.12779533  1
  Ta5+  Ta68  1  0.11757820  0.11804000  0.36620722  1
  Ta5+  Ta69  1  0.64021635  0.38432484  0.63705520  1
  Ta5+  Ta70  1  0.87812942  0.37782712  0.36770036  1
  Ta5+  Ta71  1  0.35391340  0.37805923  0.85330864  1
  Ta5+  Ta72  1  0.87875611  0.12757161  0.36708712  1
  Ta5+  Ta73  1  0.38848247  0.38048815  0.61482343  1
  Ta5+  Ta74  1  0.41921959  0.86393810  0.36899136  1
  W6+  W75  1  0.09356619  0.64140252  0.12358990  1
  W6+  W76  1  0.60772435  0.37495260  0.13920066  1
  W6+  W77  1  0.64240596  0.11377130  0.86950542  1
  W6+  W78  1  0.63416815  0.63300372  0.63030386  1
  W6+  W79  1  0.12140343  0.12436083  0.63161356  1
  W6+  W80  1  0.86264700  0.62045089  0.12883491  1
  W6+  W81  1  0.60145908  0.46608618  0.32723419  1
  W6+  W82  1  0.86295988  0.62550760  0.86497086  1
  O2-  O83  1  0.11863100  -0.00760382  0.11994246  1
  O2-  O84  1  0.14158767  0.00073821  0.36349426  1
  O2-  O85  1  0.14870420  -0.00617491  0.63198612  1
  O2-  O86  1  0.11115155  -0.02747451  0.87907510  1
  O2-  O87  1  0.11372027  0.50766150  0.13205776  1
  O2-  O88  1  0.13140608  0.49880862  0.37525039  1
  O2-  O89  1  0.15818157  0.50253148  0.62295753  1
  O2-  O90  1  0.11325892  0.52301238  0.87251959  1
  O2-  O91  1  0.32852665  0.00234155  0.12544481  1
  O2-  O92  1  0.33441288  -0.02828885  0.37280413  1
  O2-  O93  1  0.35256134  0.00073541  0.61935190  1
  O2-  O94  1  0.42389187  0.00992768  0.87654673  1
  O2-  O95  1  0.40988105  0.49770938  0.12042238  1
  O2-  O96  1  0.34840904  0.50292480  0.37857493  1
  O2-  O97  1  0.38170704  0.49903120  0.62316301  1
  O2-  O98  1  0.39515221  0.48805544  0.86038149  1
  O2-  O99  1  0.58551733  -0.00715520  0.11467490  1
  O2-  O100  1  0.66826174  -0.01471086  0.39536350  1
  O2-  O101  1  0.68601721  -0.00794991  0.63750731  1
  O2-  O102  1  0.65204382  -0.01515497  0.87182224  1
  O2-  O103  1  0.59332952  0.50476272  0.15550166  1
  O2-  O104  1  0.67458321  0.56463941  0.35616042  1
  O2-  O105  1  0.61678343  0.49756808  0.62184413  1
  O2-  O106  1  0.61379795  0.49278728  0.88029040  1
  O2-  O107  1  0.88267364  0.00666312  0.12180510  1
  O2-  O108  1  0.85237006  0.01192939  0.37775832  1
  O2-  O109  1  0.89852973  0.00697561  0.60945270  1
  O2-  O110  1  0.87526474  0.00737912  0.87655591  1
  O2-  O111  1  0.86596521  0.48472437  0.11501676  1
  O2-  O112  1  0.85829548  0.49518158  0.37479008  1
  O2-  O113  1  0.92045535  0.49562210  0.60553213  1
  O2-  O114  1  0.87327881  0.49031908  0.87781011  1
  O2-  O115  1  0.13861418  0.24270451  0.10536531  1
  O2-  O116  1  0.14867751  0.24517978  0.36769823  1
  O2-  O117  1  0.11341389  0.26647102  0.64150796  1
  O2-  O118  1  0.09308859  0.28307626  0.86877686  1
  O2-  O119  1  0.03792993  0.77349542  0.12160529  1
  O2-  O120  1  0.09083760  0.75275235  0.39475911  1
  O2-  O121  1  0.17490973  0.75192744  0.61248872  1
  O2-  O122  1  0.04164838  0.75298154  0.82874915  1
  O2-  O123  1  0.31556782  0.22406029  0.12275135  1
  O2-  O124  1  0.30566378  0.30389441  0.39036459  1
  O2-  O125  1  0.43082686  0.23808561  0.60163874  1
  O2-  O126  1  0.39168188  0.24413847  0.86635400  1
  O2-  O127  1  0.40427738  0.74878515  0.12670836  1
  O2-  O128  1  0.38146608  0.74813884  0.36553749  1
  O2-  O129  1  0.34400544  0.75838145  0.62892947  1
  O2-  O130  1  0.41171883  0.75059402  0.87891851  1
  O2-  O131  1  0.64202042  0.23657884  0.14321746  1
  O2-  O132  1  0.66844041  0.19615786  0.40634358  1
  O2-  O133  1  0.61666112  0.24215864  0.63592195  1
  O2-  O134  1  0.59825714  0.25022527  0.86570825  1
  O2-  O135  1  0.65455146  0.75003043  0.11836430  1
  O2-  O136  1  0.67346785  0.76955131  0.37408942  1
  O2-  O137  1  0.67876993  0.76814310  0.63871779  1
  O2-  O138  1  0.62518872  0.74546978  0.88275441  1
  O2-  O139  1  0.82510442  0.25152815  0.11415172  1
  O2-  O140  1  0.82911533  0.25302868  0.37420605  1
  O2-  O141  1  0.91553695  0.25674783  0.62384280  1
  O2-  O142  1  0.89722728  0.24728149  0.86444066  1
  O2-  O143  1  0.85716850  0.75781306  0.14846565  1
  O2-  O144  1  0.87288905  0.75457643  0.39438185  1
  O2-  O145  1  0.87654588  0.75219962  0.60996304  1
  O2-  O146  1  0.85731225  0.76138979  0.86481673  1
  O2-  O147  1  0.10179756  0.12098208  -0.01171340  1
  O2-  O148  1  0.15732953  0.13112669  0.24009648  1
  O2-  O149  1  0.13401686  0.12956857  0.48875581  1
  O2-  O150  1  0.10073622  0.13055871  0.77466915  1
  O2-  O151  1  0.08217556  0.65974229  -0.01346453  1
  O2-  O152  1  0.08707695  0.64206203  0.26463853  1
  O2-  O153  1  0.17499555  0.63198117  0.49435053  1
  O2-  O154  1  0.16948481  0.64409936  0.74743380  1
  O2-  O155  1  0.39891063  0.12830982  0.00277747  1
  O2-  O156  1  0.34505683  0.12907032  0.27041511  1
  O2-  O157  1  0.34919101  0.12516742  0.47998742  1
  O2-  O158  1  0.39572413  0.13240746  0.74148546  1
  O2-  O159  1  0.40248291  0.61852522  0.00139367  1
  O2-  O160  1  0.40935169  0.61499401  0.25067136  1
  O2-  O161  1  0.36604896  0.63730755  0.49795590  1
  O2-  O162  1  0.37281344  0.63566099  0.75208704  1
  O2-  O163  1  0.59178117  0.14119430  0.00897742  1
  O2-  O164  1  0.63277687  0.10795639  0.26191805  1
  O2-  O165  1  0.58793858  0.10286354  0.52647112  1
  O2-  O166  1  0.57594553  0.10611024  0.73907699  1
  O2-  O167  1  0.63571767  0.62331690  0.00616889  1
  O2-  O168  1  0.59009140  0.67527573  0.25368877  1
  O2-  O169  1  0.63037054  0.66194193  0.49979178  1
  O2-  O170  1  0.59875896  0.62666259  0.76059661  1
  O2-  O171  1  0.91173569  0.14151876  -0.00370975  1
  O2-  O172  1  0.83981075  0.14110474  0.24618555  1
  O2-  O173  1  0.88146754  0.14863980  0.49188449  1
  O2-  O174  1  0.91643335  0.12992340  0.74257096  1
  O2-  O175  1  0.86410623  0.65569664  -0.00105607  1
  O2-  O176  1  0.88734000  0.63652763  0.26819557  1
  O2-  O177  1  0.82780071  0.62204552  0.51233042  1
  O2-  O178  1  0.85858721  0.61412332  0.72685223  1
  O2-  O179  1  0.10375341  0.37945238  -0.00102450  1
  O2-  O180  1  0.15166470  0.36523808  0.25251719  1
  O2-  O181  1  0.14109598  0.36377388  0.49909891  1
  O2-  O182  1  0.07109137  0.39836749  0.74388486  1
  O2-  O183  1  0.11562756  0.84829618  -0.00315799  1
  O2-  O184  1  0.10114798  0.86156735  0.25430953  1
  O2-  O185  1  0.17175607  0.87503876  0.49626824  1
  O2-  O186  1  0.16962225  0.85773460  0.74723806  1
  O2-  O187  1  0.37985211  0.35335480  -0.00895646  1
  O2-  O188  1  0.35686585  0.36523499  0.24485935  1
  O2-  O189  1  0.42610571  0.37292394  0.49574560  1
  O2-  O190  1  0.40116046  0.35082800  0.73721096  1
  O2-  O191  1  0.41475162  0.88484956  0.01404562  1
  O2-  O192  1  0.41342860  0.88630860  0.23935685  1
  O2-  O193  1  0.38678595  0.86042622  0.49809208  1
  O2-  O194  1  0.39284467  0.86768078  0.75457767  1
  O2-  O195  1  0.59371866  0.35251067  -0.00485132  1
  O2-  O196  1  0.66471577  0.37003563  0.26530155  1
  O2-  O197  1  0.63734105  0.35150928  0.51318621  1
  O2-  O198  1  0.58125719  0.37196728  0.74841306  1
  O2-  O199  1  0.64838699  0.86522947  0.00313258  1
  O2-  O200  1  0.59807014  0.86806218  0.25171742  1
  O2-  O201  1  0.62339535  0.86425248  0.50644385  1
  O2-  O202  1  0.59743240  0.86436043  0.75343519  1
  O2-  O203  1  0.90680468  0.35315975  -0.00656505  1
  O2-  O204  1  0.85209209  0.35688172  0.24665972  1
  O2-  O205  1  0.86418278  0.36111068  0.49423454  1
  O2-  O206  1  0.90380054  0.37210557  0.74949134  1
  O2-  O207  1  0.84800535  0.86949568  0.00251005  1
  O2-  O208  1  0.89318619  0.87964813  0.26190314  1
  O2-  O209  1  0.82948580  0.88412335  0.51118879  1
  O2-  O210  1  0.85127917  0.88749621  0.73643574  1
  O2-  O211  1  -0.00234009  0.14390915  0.15090202  1
  O2-  O212  1  -0.00150204  0.13082527  0.34754831  1
  O2-  O213  1  -0.00395126  -0.10017329  0.41203434  1
  O2-  O214  1  0.01515927  -0.13645132  0.62634156  1
  O2-  O215  1  0.00279645  0.34964133  0.14384562  1
  O2-  O216  1  -0.00125152  0.36339180  0.36445174  1
  O2-  O217  1  -0.00830985  0.60673690  0.42824253  1
  O2-  O218  1  0.02315086  0.64131201  0.62281322  1
  O2-  O219  1  0.25141321  0.14821416  -0.07122341  1
  O2-  O220  1  0.24408397  -0.15383437  0.13063320  1
  O2-  O221  1  0.25779250  0.16460452  0.62959991  1
  O2-  O222  1  0.26144447  0.04715654  0.81071023  1
  O2-  O223  1  0.24469502  0.38851519  -0.08305683  1
  O2-  O224  1  0.24985983  0.38247354  0.10919587  1
  O2-  O225  1  0.27342728  0.34582205  0.60114917  1
  O2-  O226  1  0.22977960  0.38558434  0.76214436  1
  O2-  O227  1  0.48372961  0.13108578  0.16896060  1
  O2-  O228  1  0.49376619  0.15976691  0.38273927  1
  O2-  O229  1  0.49937784  -0.00186909  0.37464408  1
  O2-  O230  1  0.50866513  -0.07387663  0.62039154  1
  O2-  O231  1  0.47935758  0.31509583  0.12363451  1
  O2-  O232  1  0.50736632  0.36041756  0.35344386  1
  O2-  O233  1  0.51399894  0.54691006  0.40117507  1
  O2-  O234  1  0.49974178  0.66592584  0.62357367  1
  O2-  O235  1  0.75497697  0.13368828  -0.05270276  1
  O2-  O236  1  0.73666837  -0.10491081  0.15710832  1
  O2-  O237  1  0.76071507  0.15157015  0.60903750  1
  O2-  O238  1  0.75208344  0.12231038  0.78134478  1
  O2-  O239  1  0.74814358  0.37673813  -0.04551389  1
  O2-  O240  1  0.73647129  0.61459665  0.16939229  1
  O2-  O241  1  0.76352578  0.37474530  0.63048454  1
  O2-  O242  1  0.74338535  0.36005046  0.79854233  1
