# generated using pymatgen
data_Gd19Ta56(WO20)8
_symmetry_space_group_name_H-M   'P 1'
_cell_length_a   15.48678405
_cell_length_b   15.44456376
_cell_length_c   15.38298943
_cell_angle_alpha   90.08142750
_cell_angle_beta   90.02186648
_cell_angle_gamma   90.12298912
_symmetry_Int_Tables_number   1
_chemical_formula_structural   Gd19Ta56(WO20)8
_chemical_formula_sum   'Gd19 Ta56 W8 O160'
_cell_volume   3679.39283881
_cell_formula_units_Z   1
loop_
 _symmetry_equiv_pos_site_id
 _symmetry_equiv_pos_as_xyz
  1  'x, y, z'
loop_
 _atom_type_symbol
 _atom_type_oxidation_number
  Gd3+  3.0
  Ta5+  5.0
  W6+  6.0
  O2-  -2.0
loop_
 _atom_site_type_symbol
 _atom_site_label
 _atom_site_symmetry_multiplicity
 _atom_site_fract_x
 _atom_site_fract_y
 _atom_site_fract_z
 _atom_site_occupancy
  Gd3+  Gd0  1  0.46947010  0.27838074  0.01505260  1
  Gd3+  Gd1  1  0.76047112  0.73619504  0.21601961  1
  Gd3+  Gd2  1  0.47691499  0.26220342  0.76871808  1
  Gd3+  Gd3  1  0.76752797  0.24822697  0.76445045  1
  Gd3+  Gd4  1  0.00942338  0.24742745  0.52025975  1
  Gd3+  Gd5  1  0.72888809  0.72888869  0.52397501  1
  Gd3+  Gd6  1  0.23472974  0.26535505  0.74489832  1
  Gd3+  Gd7  1  0.77725816  0.25689094  0.51297250  1
  Gd3+  Gd8  1  0.51010445  0.77576552  0.28180232  1
  Gd3+  Gd9  1  0.23839355  0.74747783  0.00647493  1
  Gd3+  Gd10  1  0.23708111  0.75800035  0.74157067  1
  Gd3+  Gd11  1  0.24121800  0.24712651  -0.00745357  1
  Gd3+  Gd12  1  -0.01147789  0.23532886  0.76670091  1
  Gd3+  Gd13  1  0.75715672  0.75744148  0.79305920  1
  Gd3+  Gd14  1  0.02393892  0.23691261  0.24943894  1
  Gd3+  Gd15  1  0.73521017  0.24722013  0.24248783  1
  Gd3+  Gd16  1  0.78118838  0.24160035  0.00807732  1
  Gd3+  Gd17  1  0.27917882  0.25501621  0.22958624  1
  Gd3+  Gd18  1  -0.00842023  0.74665369  0.47422326  1
  Ta5+  Ta19  1  0.38412508  0.88474761  0.62844487  1
  Ta5+  Ta20  1  0.60971682  0.38913603  0.13953528  1
  Ta5+  Ta21  1  0.59711139  0.61891169  0.64353057  1
  Ta5+  Ta22  1  0.36901954  0.13524254  0.62931061  1
  Ta5+  Ta23  1  0.68068330  0.86809549  0.38266607  1
  Ta5+  Ta24  1  0.59992465  0.08409736  0.11769855  1
  Ta5+  Ta25  1  0.92815858  0.85552798  0.13262171  1
  Ta5+  Ta26  1  0.08561984  0.85719718  0.62751660  1
  Ta5+  Ta27  1  0.09882858  0.39155226  0.64212016  1
  Ta5+  Ta28  1  0.88604893  0.40148014  0.65334134  1
  Ta5+  Ta29  1  0.12709208  0.38170503  0.13227080  1
  Ta5+  Ta30  1  0.38329110  0.64254540  0.61972819  1
  Ta5+  Ta31  1  0.56805971  0.62127387  0.12831741  1
  Ta5+  Ta32  1  0.11449538  0.88088893  0.37161222  1
  Ta5+  Ta33  1  0.08902096  0.63828927  0.88306564  1
  Ta5+  Ta34  1  0.90261190  0.83714657  0.63735450  1
  Ta5+  Ta35  1  0.92610688  0.86785176  0.88389256  1
  Ta5+  Ta36  1  0.40295051  0.86806231  0.87751805  1
  Ta5+  Ta37  1  0.12283974  0.10073682  0.63115867  1
  Ta5+  Ta38  1  0.62035490  0.39661066  0.88506806  1
  Ta5+  Ta39  1  0.36577565  0.63756387  0.37646664  1
  Ta5+  Ta40  1  0.86790294  0.40824074  0.35432134  1
  Ta5+  Ta41  1  0.38442475  0.39010451  0.37893510  1
  Ta5+  Ta42  1  0.86783796  0.39885540  0.89413903  1
  Ta5+  Ta43  1  0.36779841  0.85843911  0.12848933  1
  Ta5+  Ta44  1  0.91511846  0.02866755  0.69117668  1
  Ta5+  Ta45  1  0.84799648  0.85926513  0.37768715  1
  Ta5+  Ta46  1  0.12034747  0.61859042  0.37823783  1
  Ta5+  Ta47  1  0.06900308  0.63742537  0.63512492  1
  Ta5+  Ta48  1  0.40091626  0.14024965  0.38026024  1
  Ta5+  Ta49  1  0.37328661  0.64284516  0.87107106  1
  Ta5+  Ta50  1  0.39542762  0.07589153  0.12588729  1
  Ta5+  Ta51  1  0.09411791  0.86012396  0.88230345  1
  Ta5+  Ta52  1  0.64403164  0.11237684  0.39264942  1
  Ta5+  Ta53  1  0.35799318  0.89326255  0.37850956  1
  Ta5+  Ta54  1  0.11151477  0.39075733  0.88450836  1
  Ta5+  Ta55  1  0.93537601  0.63634548  0.13594093  1
  Ta5+  Ta56  1  0.60944615  0.61443417  0.38560853  1
  Ta5+  Ta57  1  0.09528285  0.85226384  0.13374004  1
  Ta5+  Ta58  1  0.63199431  0.37969219  0.39017950  1
  Ta5+  Ta59  1  0.62840944  0.11679459  0.88635654  1
  Ta5+  Ta60  1  0.89487915  0.38808735  0.14793867  1
  Ta5+  Ta61  1  0.10163424  0.63392259  0.13668815  1
  Ta5+  Ta62  1  0.87226083  0.07420315  0.89116949  1
  Ta5+  Ta63  1  0.89488813  0.10355847  0.14157042  1
  Ta5+  Ta64  1  0.36225221  0.40536662  0.87627725  1
  Ta5+  Ta65  1  0.85225735  0.08898699  0.37928787  1
  Ta5+  Ta66  1  0.84696387  0.63496835  0.37817316  1
  Ta5+  Ta67  1  0.13362013  0.10121692  0.12850057  1
  Ta5+  Ta68  1  0.40425445  0.65928347  0.12516863  1
  Ta5+  Ta69  1  0.61706025  0.12847293  0.63288302  1
  Ta5+  Ta70  1  0.11454738  0.10714676  0.88179507  1
  Ta5+  Ta71  1  0.92077186  0.64241391  0.88981894  1
  Ta5+  Ta72  1  0.60662614  0.63166631  0.88364423  1
  Ta5+  Ta73  1  0.89831768  0.65058568  0.64461525  1
  Ta5+  Ta74  1  0.14510761  0.37096177  0.39184836  1
  W6+  W75  1  0.57175322  0.86722368  0.87997903  1
  W6+  W76  1  0.36583187  0.11644935  0.89029244  1
  W6+  W77  1  0.63814566  0.86565019  0.11856699  1
  W6+  W78  1  0.15684640  0.12168843  0.38532783  1
  W6+  W79  1  0.35341442  0.39548772  0.61440009  1
  W6+  W80  1  0.63306448  0.87666228  0.63765416  1
  W6+  W81  1  0.37555847  0.42664641  0.12768567  1
  W6+  W82  1  0.63998012  0.37499576  0.63684521  1
  O2-  O83  1  0.12002262  -0.01603292  0.13232421  1
  O2-  O84  1  0.10843896  0.00260447  0.37351755  1
  O2-  O85  1  0.14405941  -0.01591170  0.62150664  1
  O2-  O86  1  0.12229324  -0.01363974  0.88635226  1
  O2-  O87  1  0.12292704  0.50066027  0.13833287  1
  O2-  O88  1  0.11530579  0.48621853  0.37809009  1
  O2-  O89  1  0.09639428  0.51226104  0.63650821  1
  O2-  O90  1  0.11609877  0.51415226  0.88579939  1
  O2-  O91  1  0.32190265  -0.02416087  0.13283963  1
  O2-  O92  1  0.37787217  0.01677942  0.36355500  1
  O2-  O93  1  0.36909475  0.00948374  0.64112935  1
  O2-  O94  1  0.38805727  -0.01384425  0.88106619  1
  O2-  O95  1  0.45217978  0.54160407  0.13887999  1
  O2-  O96  1  0.39462719  0.51867251  0.36026595  1
  O2-  O97  1  0.35351339  0.52598621  0.62364484  1
  O2-  O98  1  0.33463596  0.52249002  0.85986312  1
  O2-  O99  1  0.67940588  -0.00679654  0.12967639  1
  O2-  O100  1  0.64388719  -0.00968779  0.37983130  1
  O2-  O101  1  0.63661186  0.01291582  0.64200376  1
  O2-  O102  1  0.58323728  0.00910501  0.87910120  1
  O2-  O103  1  0.63183090  0.50672359  0.14832883  1
  O2-  O104  1  0.72583677  0.59770372  0.35291200  1
  O2-  O105  1  0.59130509  0.49810825  0.65757944  1
  O2-  O106  1  0.65247003  0.51107769  0.87486503  1
  O2-  O107  1  0.90276627  -0.01496274  0.15057432  1
  O2-  O108  1  0.89670312  -0.02154506  0.38656046  1
  O2-  O109  1  0.82714454  -0.03385760  0.64170383  1
  O2-  O110  1  0.82891114  -0.03468060  0.91749208  1
  O2-  O111  1  0.91694406  0.50541616  0.15032160  1
  O2-  O112  1  0.90682362  0.51815972  0.38381223  1
  O2-  O113  1  0.89217836  0.52343188  0.64444952  1
  O2-  O114  1  0.86922391  0.52050849  0.89523256  1
  O2-  O115  1  0.16600228  0.24579961  0.12542131  1
  O2-  O116  1  0.08368812  0.25504406  0.38168853  1
  O2-  O117  1  0.09327614  0.25207075  0.65657617  1
  O2-  O118  1  0.10251148  0.25555787  0.86795886  1
  O2-  O119  1  0.15909026  0.74364162  0.15825059  1
  O2-  O120  1  0.11031050  0.74564912  0.38193131  1
  O2-  O121  1  0.13953536  0.74368735  0.60873812  1
  O2-  O122  1  0.15955084  0.74724745  0.87819813  1
  O2-  O123  1  0.33533674  0.29699373  0.09664517  1
  O2-  O124  1  0.42542736  0.27386573  0.36657489  1
  O2-  O125  1  0.36376293  0.26020515  0.62014813  1
  O2-  O126  1  0.37529379  0.25961711  0.90345891  1
  O2-  O127  1  0.46453469  0.77436612  0.13144476  1
  O2-  O128  1  0.39937206  0.76868124  0.38453790  1
  O2-  O129  1  0.33094557  0.76400908  0.61289754  1
  O2-  O130  1  0.32177421  0.75810015  0.87814836  1
  O2-  O131  1  0.69957653  0.31058219  0.11121103  1
  O2-  O132  1  0.68266283  0.24845779  0.38731241  1
  O2-  O133  1  0.69073640  0.23650904  0.62925287  1
  O2-  O134  1  0.54214003  0.20479968  0.89292193  1
  O2-  O135  1  0.63667515  0.72688705  0.12694325  1
  O2-  O136  1  0.60535714  0.74449373  0.39703261  1
  O2-  O137  1  0.61740020  0.74337702  0.62097826  1
  O2-  O138  1  0.65095697  0.74323203  0.90130054  1
  O2-  O139  1  0.85758303  0.23821408  0.14640267  1
  O2-  O140  1  0.92385564  0.15905009  0.44523078  1
  O2-  O141  1  0.87768889  0.26491228  0.65163036  1
  O2-  O142  1  0.87767686  0.26639750  0.87571384  1
  O2-  O143  1  0.86534083  0.74520699  0.11078305  1
  O2-  O144  1  0.77128248  0.75052216  0.37423652  1
  O2-  O145  1  0.79996405  0.74707597  0.64802027  1
  O2-  O146  1  0.86887880  0.75531156  0.91032981  1
  O2-  O147  1  0.14583405  0.12496696  0.00552896  1
  O2-  O148  1  0.15257261  0.13685544  0.24810375  1
  O2-  O149  1  0.12050137  0.14305678  0.51482617  1
  O2-  O150  1  0.09080735  0.11294815  0.75656906  1
  O2-  O151  1  0.12577185  0.64477090  0.01088419  1
  O2-  O152  1  0.07279327  0.61827274  0.26615046  1
  O2-  O153  1  0.06832950  0.61907951  0.49366523  1
  O2-  O154  1  0.10296696  0.65026391  0.75456058  1
  O2-  O155  1  0.33048219  0.11897035  0.02710105  1
  O2-  O156  1  0.38008111  0.14169816  0.22706312  1
  O2-  O157  1  0.39429384  0.13128617  0.50150016  1
  O2-  O158  1  0.37568214  0.15577891  0.75866927  1
  O2-  O159  1  0.37752447  0.65098602  -0.00025785  1
  O2-  O160  1  0.38146760  0.66619308  0.25417569  1
  O2-  O161  1  0.40780526  0.64082378  0.49555529  1
  O2-  O162  1  0.34957594  0.65685482  0.74449251  1
  O2-  O163  1  0.65622200  0.13764658  0.01444013  1
  O2-  O164  1  0.62267887  0.16536983  0.20064502  1
  O2-  O165  1  0.60513817  0.13492061  0.50912506  1
  O2-  O166  1  0.49999278  0.15179479  0.65304002  1
  O2-  O167  1  0.57438106  0.60894610  0.00326590  1
  O2-  O168  1  0.56691930  0.63468610  0.26518409  1
  O2-  O169  1  0.62718737  0.60829754  0.51423057  1
  O2-  O170  1  0.65252487  0.64001361  0.75683161  1
  O2-  O171  1  0.85895893  0.11293167  0.02029320  1
  O2-  O172  1  0.91496776  0.13122416  0.26947930  1
  O2-  O173  1  0.98636895  0.10860364  0.62394409  1
  O2-  O174  1  0.86718289  0.12562801  0.76608706  1
  O2-  O175  1  0.94553235  0.62551709  0.01428542  1
  O2-  O176  1  0.87954091  0.65094153  0.25905802  1
  O2-  O177  1  0.86582572  0.65068230  0.50574924  1
  O2-  O178  1  0.87960375  0.65194505  0.76880454  1
  O2-  O179  1  0.14626851  0.37199159  0.00955693  1
  O2-  O180  1  0.15166096  0.34943208  0.25688028  1
  O2-  O181  1  0.12075594  0.35785411  0.51028587  1
  O2-  O182  1  0.14761472  0.38747042  0.76446132  1
  O2-  O183  1  0.12519968  0.84695626  0.00922107  1
  O2-  O184  1  0.06532222  0.86585080  0.26129189  1
  O2-  O185  1  0.07444942  0.87159482  0.49307328  1
  O2-  O186  1  0.11358416  0.85368646  0.75316770  1
  O2-  O187  1  0.39915859  0.42037298  -0.00712605  1
  O2-  O188  1  0.34452428  0.38596898  0.25378760  1
  O2-  O189  1  0.41151786  0.40383481  0.49824368  1
  O2-  O190  1  0.35946170  0.36004591  0.75318654  1
  O2-  O191  1  0.37090736  0.85369960  0.00338717  1
  O2-  O192  1  0.40079557  0.87597043  0.25614197  1
  O2-  O193  1  0.36997106  0.89872321  0.50114050  1
  O2-  O194  1  0.35442981  0.86082105  0.75318328  1
  O2-  O195  1  0.58750730  0.37680033  0.00500908  1
  O2-  O196  1  0.62368571  0.35392397  0.26262598  1
  O2-  O197  1  0.60794310  0.35506711  0.50509097  1
  O2-  O198  1  0.63630643  0.33580229  0.77416520  1
  O2-  O199  1  0.58114319  0.87279786  0.01060358  1
  O2-  O200  1  0.64966510  0.84261770  0.25314639  1
  O2-  O201  1  0.67855873  0.86857772  0.51058557  1
  O2-  O202  1  0.64858928  0.85837671  0.76703566  1
  O2-  O203  1  0.85665144  0.37760681  0.02916016  1
  O2-  O204  1  0.95729982  0.36500606  0.27499115  1
  O2-  O205  1  0.88902004  0.32577394  0.43993378  1
  O2-  O206  1  0.82801485  0.39380203  0.77230922  1
  O2-  O207  1  0.94381350  0.87284587  0.01266514  1
  O2-  O208  1  0.86511118  0.84146714  0.25259207  1
  O2-  O209  1  0.87306342  0.83770021  0.50726559  1
  O2-  O210  1  0.88027046  0.84053084  0.76457407  1
  O2-  O211  1  -0.00997943  0.12100375  -0.09357983  1
  O2-  O212  1  0.01277500  0.14153730  0.12508430  1
  O2-  O213  1  -0.00990480  -0.06245582  0.64989981  1
  O2-  O214  1  -0.05480974  -0.00845533  0.80970737  1
  O2-  O215  1  -0.00929013  0.39212913  -0.08951475  1
  O2-  O216  1  0.01019003  0.33746072  0.12395939  1
  O2-  O217  1  -0.01761055  0.38682102  0.57253387  1
  O2-  O218  1  -0.00672287  0.37838602  0.73056191  1
  O2-  O219  1  0.23397553  0.15033446  -0.13827383  1
  O2-  O220  1  0.23962550  -0.12256925  0.36566489  1
  O2-  O221  1  0.28000091  0.17929747  0.36429920  1
  O2-  O222  1  0.24118766  0.14014266  0.64971204  1
  O2-  O223  1  0.24668887  0.36223848  -0.11126867  1
  O2-  O224  1  0.24500962  0.62625395  0.38380026  1
  O2-  O225  1  0.26537068  0.36928058  0.40578301  1
  O2-  O226  1  0.22826873  0.36762968  0.63240382  1
  O2-  O227  1  0.49173345  0.14575232  0.06950376  1
  O2-  O228  1  0.50078200  0.00938989  0.15356221  1
  O2-  O229  1  0.52641795  0.12837947  0.35543323  1
  O2-  O230  1  0.49926162  -0.12770669  0.63448563  1
  O2-  O231  1  0.49534987  0.38800643  -0.14568009  1
  O2-  O232  1  0.49477950  0.35084942  0.14601980  1
  O2-  O233  1  0.57947783  0.49042828  0.38036973  1
  O2-  O234  1  0.49206052  0.62762535  0.84440127  1
  O2-  O235  1  0.75747204  0.14099950  -0.11357775  1
  O2-  O236  1  0.74809001  0.11176360  0.30467560  1
  O2-  O237  1  0.76234676  0.11082289  0.46796654  1
  O2-  O238  1  0.64529684  0.14761250  0.76362455  1
  O2-  O239  1  0.73649662  0.35081765  -0.08760761  1
  O2-  O240  1  0.80333952  0.38865750  0.23840857  1
  O2-  O241  1  0.74733740  0.41492389  0.39729284  1
  O2-  O242  1  0.77395766  0.38816508  0.59481295  1
