# generated using pymatgen
data_Gd19Ta56(WO20)8
_symmetry_space_group_name_H-M   'P 1'
_cell_length_a   15.53204464
_cell_length_b   15.32974042
_cell_length_c   15.21821193
_cell_angle_alpha   90.03864286
_cell_angle_beta   90.44046748
_cell_angle_gamma   88.90067424
_symmetry_Int_Tables_number   1
_chemical_formula_structural   Gd19Ta56(WO20)8
_chemical_formula_sum   'Gd19 Ta56 W8 O160'
_cell_volume   3622.71542887
_cell_formula_units_Z   1
loop_
 _symmetry_equiv_pos_site_id
 _symmetry_equiv_pos_as_xyz
  1  'x, y, z'
loop_
 _atom_type_symbol
 _atom_type_oxidation_number
  Gd3+  3.0
  Ta5+  5.0
  W6+  6.0
  O2-  -2.0
loop_
 _atom_site_type_symbol
 _atom_site_label
 _atom_site_symmetry_multiplicity
 _atom_site_fract_x
 _atom_site_fract_y
 _atom_site_fract_z
 _atom_site_occupancy
  Gd3+  Gd0  1  0.53283532  0.74081398  0.74488102  1
  Gd3+  Gd1  1  0.75124183  0.72267129  0.24422799  1
  Gd3+  Gd2  1  0.25178671  0.75312286  0.73347233  1
  Gd3+  Gd3  1  -0.04826108  0.27374588  -0.04075869  1
  Gd3+  Gd4  1  0.74197849  0.24751933  0.01052852  1
  Gd3+  Gd5  1  0.01637213  0.74319736  0.00397787  1
  Gd3+  Gd6  1  0.75596459  0.25158732  0.27324880  1
  Gd3+  Gd7  1  0.74178052  0.22623346  0.52488250  1
  Gd3+  Gd8  1  0.24082672  0.24159794  0.49473745  1
  Gd3+  Gd9  1  -0.09953533  0.25516099  0.73053616  1
  Gd3+  Gd10  1  -0.00049933  0.76160524  0.78747697  1
  Gd3+  Gd11  1  0.26771702  0.23787051  0.77291681  1
  Gd3+  Gd12  1  -0.02852165  0.27806172  0.51108683  1
  Gd3+  Gd13  1  0.22290040  0.24353421  0.25763461  1
  Gd3+  Gd14  1  0.51438550  0.25232530  0.01309664  1
  Gd3+  Gd15  1  0.74606230  0.73915193  -0.00546204  1
  Gd3+  Gd16  1  0.49968663  0.75154245  -0.00860080  1
  Gd3+  Gd17  1  0.24323614  0.75933074  0.01226435  1
  Gd3+  Gd18  1  0.24748477  0.74586287  0.50063607  1
  Ta5+  Ta19  1  0.88251839  0.59528205  0.86545447  1
  Ta5+  Ta20  1  0.09494230  0.88958380  0.37081179  1
  Ta5+  Ta21  1  0.13201437  0.62399293  0.13787112  1
  Ta5+  Ta22  1  0.66519639  0.60602113  0.39709861  1
  Ta5+  Ta23  1  0.62485219  0.36773936  0.39660494  1
  Ta5+  Ta24  1  0.36663949  0.61136808  0.87218489  1
  Ta5+  Ta25  1  0.42582032  0.62152533  0.37031840  1
  Ta5+  Ta26  1  0.06533882  0.62076181  0.62905417  1
  Ta5+  Ta27  1  0.60389435  0.11135575  0.38944188  1
  Ta5+  Ta28  1  0.87980034  0.83259993  0.62444454  1
  Ta5+  Ta29  1  0.65529943  0.11270512  0.87859705  1
  Ta5+  Ta30  1  0.67950039  0.87555418  0.64725719  1
  Ta5+  Ta31  1  0.63504166  0.92199141  0.89027299  1
  Ta5+  Ta32  1  0.36314871  0.88406307  0.86526331  1
  Ta5+  Ta33  1  0.40865283  0.36442552  0.87174989  1
  Ta5+  Ta34  1  0.66530859  0.56474606  0.87487684  1
  Ta5+  Ta35  1  0.37808381  0.61257564  0.11908843  1
  Ta5+  Ta36  1  0.38489242  0.37606036  0.36281479  1
  Ta5+  Ta37  1  0.15144767  0.90687378  0.87017669  1
  Ta5+  Ta38  1  0.62211400  0.87052804  0.13778174  1
  Ta5+  Ta39  1  0.86006182  0.42531985  0.37786432  1
  Ta5+  Ta40  1  0.38688350  0.86348290  0.37928443  1
  Ta5+  Ta41  1  0.09333796  0.15458218  0.86459581  1
  Ta5+  Ta42  1  0.39512926  0.58869242  0.62370892  1
  Ta5+  Ta43  1  0.90389707  0.09160477  0.37496749  1
  Ta5+  Ta44  1  0.38341550  0.13258968  0.11633543  1
  Ta5+  Ta45  1  0.07970256  0.40271331  0.37021367  1
  Ta5+  Ta46  1  0.09300598  0.37872239  0.11436288  1
  Ta5+  Ta47  1  0.87173895  0.87796447  0.12102392  1
  Ta5+  Ta48  1  0.09944253  0.12476250  0.62400660  1
  Ta5+  Ta49  1  0.37360578  0.11209665  0.62877684  1
  Ta5+  Ta50  1  0.42951075  0.91551097  0.63059307  1
  Ta5+  Ta51  1  0.11122949  0.09245053  0.37845791  1
  Ta5+  Ta52  1  0.82617398  0.09906761  0.87161204  1
  Ta5+  Ta53  1  0.11456817  0.38870806  0.62299352  1
  Ta5+  Ta54  1  0.90087417  0.62208694  0.37127390  1
  Ta5+  Ta55  1  0.89811909  0.66059636  0.62097356  1
  Ta5+  Ta56  1  0.88487882  0.12118879  0.12198688  1
  Ta5+  Ta57  1  0.88414118  0.44503152  0.63326873  1
  Ta5+  Ta58  1  0.32980343  0.36596004  0.11165906  1
  Ta5+  Ta59  1  0.58105868  0.40646026  0.63679951  1
  Ta5+  Ta60  1  0.79314884  0.43356833  0.86537845  1
  Ta5+  Ta61  1  0.11603997  0.90022575  0.12275176  1
  Ta5+  Ta62  1  0.88845683  0.61335344  0.11510052  1
  Ta5+  Ta63  1  0.08382074  0.88951975  0.62120407  1
  Ta5+  Ta64  1  0.87354622  0.03839485  0.63707736  1
  Ta5+  Ta65  1  0.70126386  0.61747300  0.65177902  1
  Ta5+  Ta66  1  0.36229242  0.11384851  0.36883026  1
  Ta5+  Ta67  1  0.83843487  0.86361387  0.38118224  1
  Ta5+  Ta68  1  0.63748347  0.39479140  0.13863519  1
  Ta5+  Ta69  1  0.60286913  0.11124916  0.64978545  1
  Ta5+  Ta70  1  0.82209558  0.90898210  0.86300801  1
  Ta5+  Ta71  1  0.63271210  0.11711670  0.14187605  1
  Ta5+  Ta72  1  0.63200331  0.37317880  0.87185672  1
  Ta5+  Ta73  1  0.15103431  0.61597633  0.87390144  1
  Ta5+  Ta74  1  0.11406188  0.36627998  0.86071200  1
  W6+  W75  1  0.37824460  0.87822490  0.12183503  1
  W6+  W76  1  0.05237679  0.15352713  0.12390539  1
  W6+  W77  1  0.67747632  0.86258519  0.39290493  1
  W6+  W78  1  0.35220484  0.37921527  0.62131747  1
  W6+  W79  1  0.45873113  0.11019294  0.86296947  1
  W6+  W80  1  0.86582966  0.37949961  0.12192966  1
  W6+  W81  1  0.62791450  0.60250782  0.12461514  1
  W6+  W82  1  0.11450356  0.63792063  0.39239810  1
  O2-  O83  1  0.09345594  0.01848838  0.11921982  1
  O2-  O84  1  0.17711834  -0.02137096  0.37919494  1
  O2-  O85  1  0.12932044  0.00278123  0.63894264  1
  O2-  O86  1  0.12938786  0.02661263  0.86923767  1
  O2-  O87  1  0.12138642  0.49884953  0.11654474  1
  O2-  O88  1  0.14181900  0.50268566  0.38300060  1
  O2-  O89  1  0.12656874  0.50631908  0.64684494  1
  O2-  O90  1  0.13509351  0.49417032  0.86083900  1
  O2-  O91  1  0.37484974  0.01481145  0.11918420  1
  O2-  O92  1  0.36974702  -0.00924792  0.38228694  1
  O2-  O93  1  0.32834251  -0.00347016  0.63678863  1
  O2-  O94  1  0.41469476  -0.01652437  0.82828227  1
  O2-  O95  1  0.36251917  0.49053552  0.11319265  1
  O2-  O96  1  0.39365065  0.50398037  0.34614860  1
  O2-  O97  1  0.30947237  0.51210752  0.63180579  1
  O2-  O98  1  0.39061853  0.49194128  0.87083232  1
  O2-  O99  1  0.60308624  -0.00315946  0.14197895  1
  O2-  O100  1  0.63773901  -0.00294485  0.39164850  1
  O2-  O101  1  0.65507631  0.00449060  0.65445780  1
  O2-  O102  1  0.56032078  0.01882352  0.91966774  1
  O2-  O103  1  0.74262509  0.44540664  0.12387723  1
  O2-  O104  1  0.62079318  0.48778064  0.42101589  1
  O2-  O105  1  0.65818569  0.49303405  0.64232638  1
  O2-  O106  1  0.57264874  0.48978480  0.88714780  1
  O2-  O107  1  0.89088072  -0.00180221  0.10216100  1
  O2-  O108  1  0.83910137  -0.00718895  0.39399822  1
  O2-  O109  1  0.96473528  -0.05270287  0.63949466  1
  O2-  O110  1  0.90888140  -0.00896523  0.87851621  1
  O2-  O111  1  0.91492441  0.50003584  0.08577840  1
  O2-  O112  1  0.79478807  0.54342684  0.38969449  1
  O2-  O113  1  0.96644284  0.53729378  0.64851024  1
  O2-  O114  1  0.92522843  0.48196270  0.86451771  1
  O2-  O115  1  -0.00684993  0.30140692  0.10927330  1
  O2-  O116  1  0.16228620  0.30937544  0.38597769  1
  O2-  O117  1  0.10224492  0.24914984  0.58717037  1
  O2-  O118  1  0.02696733  0.26774948  0.82579780  1
  O2-  O119  1  0.13177740  0.75551007  0.10678249  1
  O2-  O120  1  0.14959587  0.77879797  0.39066765  1
  O2-  O121  1  0.18973733  0.82109784  0.61423804  1
  O2-  O122  1  0.16322266  0.75522715  0.87520219  1
  O2-  O123  1  0.29982198  0.23869931  0.11617318  1
  O2-  O124  1  0.34270628  0.25423035  0.37348161  1
  O2-  O125  1  0.31767453  0.23309593  0.62809893  1
  O2-  O126  1  0.46693001  0.25183705  0.87006288  1
  O2-  O127  1  0.37042011  0.74188543  0.08546957  1
  O2-  O128  1  0.36313266  0.73392800  0.39529973  1
  O2-  O129  1  0.32361912  0.69340027  0.61673853  1
  O2-  O130  1  0.37460247  0.74742256  0.87165626  1
  O2-  O131  1  0.65181406  0.25819311  0.14336225  1
  O2-  O132  1  0.65223544  0.23442070  0.39569456  1
  O2-  O133  1  0.68727822  0.19435418  0.65737669  1
  O2-  O134  1  0.65588105  0.24227456  0.87903048  1
  O2-  O135  1  0.66552166  0.74203063  0.12192288  1
  O2-  O136  1  0.70098410  0.72576886  0.38825684  1
  O2-  O137  1  0.67590781  0.74877050  0.67801296  1
  O2-  O138  1  0.56363076  0.81360371  0.86669288  1
  O2-  O139  1  0.83141333  0.24633537  0.14101287  1
  O2-  O140  1  0.82976307  0.19067622  0.39495725  1
  O2-  O141  1  0.85104024  0.28827338  0.59409874  1
  O2-  O142  1  0.84492550  0.22706521  0.86040850  1
  O2-  O143  1  0.83878409  0.74561182  0.12068384  1
  O2-  O144  1  0.88087221  0.74348690  0.34251153  1
  O2-  O145  1  1.00662040  0.77106214  0.63153567  1
  O2-  O146  1  1.01514951  0.64301316  0.87697790  1
  O2-  O147  1  0.05810757  0.16632992  -0.01791245  1
  O2-  O148  1  0.09663560  0.15364859  0.26924831  1
  O2-  O149  1  0.15175177  0.11301619  0.50593645  1
  O2-  O150  1  0.14550402  0.15495309  0.73697552  1
  O2-  O151  1  0.12086940  0.63339664  -0.00161383  1
  O2-  O152  1  0.11943690  0.63323542  0.25601162  1
  O2-  O153  1  0.13322068  0.65932555  0.53346865  1
  O2-  O154  1  0.11343135  0.66708508  0.73820892  1
  O2-  O155  1  0.40733644  0.14447974  -0.00712993  1
  O2-  O156  1  0.34521412  0.13729283  0.24496645  1
  O2-  O157  1  0.35736590  0.12890299  0.49979267  1
  O2-  O158  1  0.37796178  0.14012748  0.75270372  1
  O2-  O159  1  0.43081985  0.61797244  -0.00555047  1
  O2-  O160  1  0.41889132  0.63379487  0.23487655  1
  O2-  O161  1  0.41858795  0.59889409  0.49980679  1
  O2-  O162  1  0.42994570  0.62756008  0.74646366  1
  O2-  O163  1  0.62335366  0.14609548  0.01309798  1
  O2-  O164  1  0.65130145  0.13148742  0.26865340  1
  O2-  O165  1  0.60364015  0.12830930  0.51717746  1
  O2-  O166  1  0.56237119  0.11456882  0.76966717  1
  O2-  O167  1  0.62581086  0.64316261  -0.02236036  1
  O2-  O168  1  0.66768877  0.60151821  0.26837146  1
  O2-  O169  1  0.67150648  0.62705124  0.53173791  1
  O2-  O170  1  0.62042663  0.61946605  0.76021487  1
  O2-  O171  1  0.86825305  0.14484524  -0.00433001  1
  O2-  O172  1  0.89415623  0.10839051  0.25426981  1
  O2-  O173  1  0.82462442  0.09810917  0.54302200  1
  O2-  O174  1  0.84430471  0.10512699  0.73673712  1
  O2-  O175  1  0.88319810  0.66160750  -0.01667402  1
  O2-  O176  1  0.85928640  0.60665168  0.23635417  1
  O2-  O177  1  0.91082122  0.64004250  0.49167437  1
  O2-  O178  1  0.89313535  0.66024125  0.75750515  1
  O2-  O179  1  0.10033746  0.36028359  -0.01521975  1
  O2-  O180  1  0.09630698  0.37236125  0.24412014  1
  O2-  O181  1  0.06326848  0.39669995  0.50306832  1
  O2-  O182  1  0.15795821  0.34284348  0.73971324  1
  O2-  O183  1  0.09548177  0.87806350  -0.01747477  1
  O2-  O184  1  0.09476765  0.87946106  0.24562430  1
  O2-  O185  1  0.06655198  0.89460279  0.49855041  1
  O2-  O186  1  0.08710375  0.87666617  0.76247589  1
  O2-  O187  1  0.38555497  0.34893304  -0.00046434  1
  O2-  O188  1  0.32138747  0.36515845  0.24442852  1
  O2-  O189  1  0.36052133  0.38836363  0.48026177  1
  O2-  O190  1  0.35162791  0.35573290  0.75968809  1
  O2-  O191  1  0.41880424  0.87708764  -0.02042758  1
  O2-  O192  1  0.38080675  0.85820918  0.26084732  1
  O2-  O193  1  0.40351455  0.86639321  0.52075807  1
  O2-  O194  1  0.39650074  0.83747329  0.72427270  1
  O2-  O195  1  0.62495207  0.36037305  0.01007870  1
  O2-  O196  1  0.65000679  0.37190298  0.27145057  1
  O2-  O197  1  0.61324838  0.34094279  0.53267395  1
  O2-  O198  1  0.59706349  0.35362112  0.74427180  1
  O2-  O199  1  0.65120367  0.87083799  0.01035601  1
  O2-  O200  1  0.65955121  0.85408339  0.25484083  1
  O2-  O201  1  0.67113715  0.86252369  0.52838921  1
  O2-  O202  1  0.54586208  0.86990085  0.66077459  1
  O2-  O203  1  0.83234230  0.36599434  -0.01913121  1
  O2-  O204  1  0.75575250  0.36016453  0.41498685  1
  O2-  O205  1  0.88517648  0.42974204  0.50927019  1
  O2-  O206  1  0.83120284  0.39537349  0.73762925  1
  O2-  O207  1  0.83726295  0.86186762  -0.01119392  1
  O2-  O208  1  0.84651815  0.88249878  0.24295215  1
  O2-  O209  1  0.87864005  0.84586767  0.49738204  1
  O2-  O210  1  0.87814301  0.84742211  0.76495227  1
  O2-  O211  1  -0.01101196  -0.15082444  0.11090852  1
  O2-  O212  1  0.01612109  0.00731491  0.35812497  1
  O2-  O213  1  0.00366222  0.15260844  0.43192908  1
  O2-  O214  1  -0.02221048  0.13087046  0.63423931  1
  O2-  O215  1  0.00205089  0.65324264  0.12367914  1
  O2-  O216  1  -0.03727702  0.50543246  0.35629688  1
  O2-  O217  1  -0.03738923  0.34033085  0.37822922  1
  O2-  O218  1  -0.01106536  0.36484194  0.65894653  1
  O2-  O219  1  0.26021634  -0.10537777  -0.05576973  1
  O2-  O220  1  0.23597071  -0.11273238  0.11901452  1
  O2-  O221  1  0.23269749  0.13643950  0.36675328  1
  O2-  O222  1  0.25338314  -0.10954762  0.78888914  1
  O2-  O223  1  0.26772516  0.61971707  -0.04933473  1
  O2-  O224  1  0.25694332  0.62773045  0.13329342  1
  O2-  O225  1  0.22519572  0.36569174  0.57566772  1
  O2-  O226  1  0.26151239  0.61662980  0.79405261  1
  O2-  O227  1  0.51004579  -0.16673004  0.12547469  1
  O2-  O228  1  0.50134635  0.16095690  0.14366920  1
  O2-  O229  1  0.48678558  0.12707454  0.36291388  1
  O2-  O230  1  0.48140010  0.03856051  0.61961807  1
  O2-  O231  1  0.55666726  0.48371632  0.13936347  1
  O2-  O232  1  0.50350674  0.34879147  0.36618576  1
  O2-  O233  1  0.54158496  0.64224219  0.38287445  1
  O2-  O234  1  0.47194331  0.46669453  0.63369324  1
  O2-  O235  1  0.73705395  0.00791454  -0.06697103  1
  O2-  O236  1  0.75210456  0.10301402  0.12649478  1
  O2-  O237  1  0.79599580  -0.06353556  0.63641911  1
  O2-  O238  1  0.70690242  -0.10390393  0.78700344  1
  O2-  O239  1  0.77822423  0.54235015  -0.05381782  1
  O2-  O240  1  0.84117661  0.38204714  0.26261174  1
  O2-  O241  1  0.80879576  0.55360552  0.62431656  1
  O2-  O242  1  0.77014121  0.55546914  0.79053158  1
