# generated using pymatgen
data_Gd19Ta56(WO20)8
_symmetry_space_group_name_H-M   'P 1'
_cell_length_a   15.54064104
_cell_length_b   15.56182210
_cell_length_c   15.27471960
_cell_angle_alpha   90.05043023
_cell_angle_beta   89.83816114
_cell_angle_gamma   89.86363074
_symmetry_Int_Tables_number   1
_chemical_formula_structural   Gd19Ta56(WO20)8
_chemical_formula_sum   'Gd19 Ta56 W8 O160'
_cell_volume   3694.02209418
_cell_formula_units_Z   1
loop_
 _symmetry_equiv_pos_site_id
 _symmetry_equiv_pos_as_xyz
  1  'x, y, z'
loop_
 _atom_type_symbol
 _atom_type_oxidation_number
  Gd3+  3.0
  Ta5+  5.0
  W6+  6.0
  O2-  -2.0
loop_
 _atom_site_type_symbol
 _atom_site_label
 _atom_site_symmetry_multiplicity
 _atom_site_fract_x
 _atom_site_fract_y
 _atom_site_fract_z
 _atom_site_occupancy
  Gd3+  Gd0  1  -0.01525009  0.73974112  0.02999257  1
  Gd3+  Gd1  1  0.25052041  0.25329330  0.23858682  1
  Gd3+  Gd2  1  0.51443794  0.75197272  0.24395002  1
  Gd3+  Gd3  1  -0.00315879  0.26815324  0.00493618  1
  Gd3+  Gd4  1  0.24731360  0.24606936  0.73953812  1
  Gd3+  Gd5  1  -0.00424862  0.75284969  0.74822429  1
  Gd3+  Gd6  1  0.74735827  0.25176002  0.75397547  1
  Gd3+  Gd7  1  0.49726685  0.74579509  0.50159448  1
  Gd3+  Gd8  1  0.49952657  0.74487757  0.75083125  1
  Gd3+  Gd9  1  0.73115345  0.75506534  0.78841894  1
  Gd3+  Gd10  1  0.00667699  0.75974858  0.49470007  1
  Gd3+  Gd11  1  -0.01969312  0.25296277  0.26968342  1
  Gd3+  Gd12  1  0.50304208  0.22241705  0.74531836  1
  Gd3+  Gd13  1  0.25459882  0.24849931  0.00028990  1
  Gd3+  Gd14  1  0.74472818  0.24893783  0.25817297  1
  Gd3+  Gd15  1  0.26834060  0.76263832  0.25443591  1
  Gd3+  Gd16  1  0.53163734  0.29177141  0.48999625  1
  Gd3+  Gd17  1  0.23643899  0.24648631  0.47602049  1
  Gd3+  Gd18  1  0.27076998  0.75121173  -0.01271245  1
  Ta5+  Ta19  1  0.36966046  0.38045155  0.61982725  1
  Ta5+  Ta20  1  0.87013917  0.87807368  0.36530244  1
  Ta5+  Ta21  1  0.63486578  0.12284782  0.12420320  1
  Ta5+  Ta22  1  0.09766631  0.39477258  0.36025834  1
  Ta5+  Ta23  1  0.37355224  0.11535298  0.87505990  1
  Ta5+  Ta24  1  0.11662849  0.37261427  0.61387360  1
  Ta5+  Ta25  1  0.11353505  0.11700965  0.61702360  1
  Ta5+  Ta26  1  0.88043770  0.37654163  0.62962883  1
  Ta5+  Ta27  1  0.39574069  0.11765652  0.12672712  1
  Ta5+  Ta28  1  0.37551743  0.40146078  0.35752993  1
  Ta5+  Ta29  1  0.63122336  0.38125527  0.12649025  1
  Ta5+  Ta30  1  0.59758533  0.37324479  0.89263940  1
  Ta5+  Ta31  1  0.40626586  0.38119939  0.10441496  1
  Ta5+  Ta32  1  0.85851642  0.61608020  0.61718970  1
  Ta5+  Ta33  1  0.38976145  0.12185209  0.36308965  1
  Ta5+  Ta34  1  0.86856895  0.63360360  0.36774055  1
  Ta5+  Ta35  1  0.59299790  0.12990280  0.36617587  1
  Ta5+  Ta36  1  0.63320672  0.12473621  0.61218113  1
  Ta5+  Ta37  1  0.38937539  0.87125856  0.10447978  1
  Ta5+  Ta38  1  0.61685309  0.39423042  0.64416761  1
  Ta5+  Ta39  1  0.37550145  0.59870412  0.37232238  1
  Ta5+  Ta40  1  0.65253466  0.62526514  0.62232531  1
  Ta5+  Ta41  1  0.86214658  0.12119034  0.38162837  1
  Ta5+  Ta42  1  0.10696532  0.11783135  0.13084881  1
  Ta5+  Ta43  1  0.87379467  0.12698111  0.88565498  1
  Ta5+  Ta44  1  0.62384297  0.61396530  0.88865670  1
  Ta5+  Ta45  1  0.11540088  0.62009744  0.88491472  1
  Ta5+  Ta46  1  0.89644845  0.11439168  0.12704947  1
  Ta5+  Ta47  1  0.64898383  0.87633619  0.62621726  1
  Ta5+  Ta48  1  0.15210004  0.87767851  0.11935739  1
  Ta5+  Ta49  1  0.86900901  0.11937949  0.62793131  1
  Ta5+  Ta50  1  0.11287682  0.38810223  0.13300833  1
  Ta5+  Ta51  1  0.62383807  0.11759874  0.88135441  1
  Ta5+  Ta52  1  0.18818537  0.61888130  0.12171281  1
  Ta5+  Ta53  1  0.33217543  0.87648007  0.83450100  1
  Ta5+  Ta54  1  0.81856670  0.62481984  0.12191178  1
  Ta5+  Ta55  1  0.65242380  0.62346001  0.13671937  1
  Ta5+  Ta56  1  0.11012229  0.11491417  0.35935529  1
  Ta5+  Ta57  1  0.85236648  0.87266948  0.61753634  1
  Ta5+  Ta58  1  0.11697466  0.12449769  0.87657684  1
  Ta5+  Ta59  1  0.14812724  0.87382111  0.62934745  1
  Ta5+  Ta60  1  0.14250974  0.63438063  0.37504635  1
  Ta5+  Ta61  1  0.66232973  0.87539897  0.13465065  1
  Ta5+  Ta62  1  0.89787738  0.39648379  0.13686423  1
  Ta5+  Ta63  1  0.35805944  0.61611790  0.11465226  1
  Ta5+  Ta64  1  0.86429587  0.88212183  0.87896797  1
  Ta5+  Ta65  1  0.36218903  0.61874824  0.85994484  1
  Ta5+  Ta66  1  0.36138249  0.87986597  0.62650348  1
  Ta5+  Ta67  1  0.35727286  0.62197694  0.62424706  1
  Ta5+  Ta68  1  0.38836080  0.37494607  0.88142618  1
  Ta5+  Ta69  1  0.85801569  0.38030440  0.88366038  1
  Ta5+  Ta70  1  0.87210509  0.61294582  0.87377269  1
  Ta5+  Ta71  1  0.83021287  0.87273642  0.12145544  1
  Ta5+  Ta72  1  0.64768948  0.62985050  0.38031175  1
  Ta5+  Ta73  1  0.62865549  0.88695129  0.38194564  1
  Ta5+  Ta74  1  0.84928503  0.38613096  0.38820051  1
  W6+  W75  1  0.11173717  0.62112762  0.62648370  1
  W6+  W76  1  0.09205479  0.87595628  0.88439709  1
  W6+  W77  1  0.39045389  0.87105042  0.37517406  1
  W6+  W78  1  0.36574362  0.12852924  0.60385557  1
  W6+  W79  1  0.13871711  0.88899674  0.37786631  1
  W6+  W80  1  0.60388849  0.87365221  0.89083957  1
  W6+  W81  1  0.12878233  0.37473503  0.87357220  1
  W6+  W82  1  0.68087456  0.38478421  0.38500491  1
  O2-  O83  1  0.14199505  0.00358721  0.11114041  1
  O2-  O84  1  0.07465242  0.00124451  0.36058553  1
  O2-  O85  1  0.14991071  0.00170163  0.62461210  1
  O2-  O86  1  0.12217769  0.00779967  0.88027849  1
  O2-  O87  1  0.16722869  0.49376992  0.11647406  1
  O2-  O88  1  0.09697112  0.51511750  0.35697336  1
  O2-  O89  1  0.12367459  0.48890532  0.61417460  1
  O2-  O90  1  0.09929426  0.50419715  0.89291827  1
  O2-  O91  1  0.39495079  -0.00195400  0.12609094  1
  O2-  O92  1  0.39360232  0.00580428  0.36739373  1
  O2-  O93  1  0.36458693  -0.00333264  0.61938247  1
  O2-  O94  1  0.34565370  -0.00162807  0.85808669  1
  O2-  O95  1  0.41311386  0.49922612  0.10665200  1
  O2-  O96  1  0.45531992  0.50009184  0.35895650  1
  O2-  O97  1  0.33670877  0.49717535  0.61937247  1
  O2-  O98  1  0.37218911  0.49403598  0.86708353  1
  O2-  O99  1  0.65948642  0.00599950  0.14013630  1
  O2-  O100  1  0.60351487  0.00645098  0.37950146  1
  O2-  O101  1  0.63822040  -0.00368126  0.62754681  1
  O2-  O102  1  0.62857618  0.00086266  0.86382982  1
  O2-  O103  1  0.61372530  0.49920728  0.13228356  1
  O2-  O104  1  0.68080158  0.51874640  0.38105240  1
  O2-  O105  1  0.59896833  0.51679588  0.64696001  1
  O2-  O106  1  0.58388960  0.50038949  0.87749709  1
  O2-  O107  1  0.86412796  0.00077564  0.11988597  1
  O2-  O108  1  0.88626229  -0.00188053  0.36096821  1
  O2-  O109  1  0.87130255  -0.00753590  0.62667678  1
  O2-  O110  1  0.88407904  0.00436576  0.88919678  1
  O2-  O111  1  0.83141301  0.49391762  0.12247797  1
  O2-  O112  1  0.87002962  0.51046800  0.37915709  1
  O2-  O113  1  0.90268527  0.50028185  0.62775048  1
  O2-  O114  1  0.90326039  0.49457650  0.87521227  1
  O2-  O115  1  0.10679590  0.25170893  0.15031471  1
  O2-  O116  1  0.11330313  0.24987904  0.34898441  1
  O2-  O117  1  0.15506332  0.24163501  0.60780052  1
  O2-  O118  1  0.17660415  0.24243115  0.86869427  1
  O2-  O119  1  0.18960227  0.75489071  0.11854370  1
  O2-  O120  1  0.10201733  0.74973432  0.36882810  1
  O2-  O121  1  0.08964093  0.75652724  0.62628812  1
  O2-  O122  1  0.04981029  0.74025438  0.89166053  1
  O2-  O123  1  0.34974044  0.24986973  0.12020351  1
  O2-  O124  1  0.33641814  0.26858921  0.35858237  1
  O2-  O125  1  0.32547095  0.26443123  0.59810723  1
  O2-  O126  1  0.35666570  0.24784216  0.88668227  1
  O2-  O127  1  0.37067115  0.74364518  0.11351504  1
  O2-  O128  1  0.42037603  0.72394944  0.36822076  1
  O2-  O129  1  0.40824968  0.74331551  0.62950330  1
  O2-  O130  1  0.37066946  0.75046835  0.84167032  1
  O2-  O131  1  0.67634770  0.24406309  0.12698041  1
  O2-  O132  1  0.62508418  0.25350174  0.37458402  1
  O2-  O133  1  0.59601166  0.25226441  0.62719271  1
  O2-  O134  1  0.63162798  0.25164709  0.87697787  1
  O2-  O135  1  0.63841578  0.74810579  0.15139533  1
  O2-  O136  1  0.59434051  0.75895389  0.37826177  1
  O2-  O137  1  0.59774155  0.74614832  0.61664116  1
  O2-  O138  1  0.58077949  0.73439411  0.88581653  1
  O2-  O139  1  0.91865538  0.25860473  0.13232104  1
  O2-  O140  1  0.85908884  0.24869268  0.37848589  1
  O2-  O141  1  0.84566032  0.24733808  0.63727587  1
  O2-  O142  1  0.84317976  0.25352188  0.86682772  1
  O2-  O143  1  0.83453356  0.74781467  0.10630312  1
  O2-  O144  1  0.91698446  0.75290270  0.36860716  1
  O2-  O145  1  0.90866434  0.75662853  0.62319096  1
  O2-  O146  1  0.86577181  0.74594609  0.86444386  1
  O2-  O147  1  0.15311760  0.14149001  0.00227825  1
  O2-  O148  1  0.17230401  0.12235183  0.24522901  1
  O2-  O149  1  0.13191238  0.13015200  0.48607431  1
  O2-  O150  1  0.13382993  0.13441173  0.74452577  1
  O2-  O151  1  0.11378582  0.64485329  0.01394137  1
  O2-  O152  1  0.17529625  0.63622882  0.24839375  1
  O2-  O153  1  0.09519951  0.63125734  0.49063794  1
  O2-  O154  1  0.09230282  0.63294943  0.76224778  1
  O2-  O155  1  0.35167279  0.11953196  0.00680437  1
  O2-  O156  1  0.33946858  0.13106608  0.24077511  1
  O2-  O157  1  0.31982167  0.12944523  0.46965858  1
  O2-  O158  1  0.37434728  0.14748282  0.74665694  1
  O2-  O159  1  0.37854181  0.63335808  -0.01791916  1
  O2-  O160  1  0.36378506  0.61569961  0.24838130  1
  O2-  O161  1  0.40441500  0.61825551  0.50585353  1
  O2-  O162  1  0.41849643  0.61128775  0.73707585  1
  O2-  O163  1  0.65798775  0.11856609  0.00058002  1
  O2-  O164  1  0.65998886  0.13025564  0.25647519  1
  O2-  O165  1  0.64393973  0.13238633  0.49176840  1
  O2-  O166  1  0.63436003  0.14158335  0.74838858  1
  O2-  O167  1  0.64292336  0.62165131  0.00936029  1
  O2-  O168  1  0.59632833  0.62662529  0.26537233  1
  O2-  O169  1  0.59897207  0.62813857  0.50066240  1
  O2-  O170  1  0.62226574  0.64518079  0.75113766  1
  O2-  O171  1  0.84637973  0.14309773  0.00740479  1
  O2-  O172  1  0.84475666  0.13853229  0.24419195  1
  O2-  O173  1  0.84531138  0.11821107  0.50449688  1
  O2-  O174  1  0.83647890  0.12130210  0.75828337  1
  O2-  O175  1  0.88772539  0.62442545  -0.00059793  1
  O2-  O176  1  0.84694344  0.63113373  0.24635378  1
  O2-  O177  1  0.90531072  0.63928843  0.50317733  1
  O2-  O178  1  0.89912676  0.62726396  0.74319018  1
  O2-  O179  1  0.13700432  0.33959394  0.01236343  1
  O2-  O180  1  0.17524229  0.38105784  0.25692303  1
  O2-  O181  1  0.14550724  0.37219794  0.47747496  1
  O2-  O182  1  0.15022390  0.36026726  0.73264741  1
  O2-  O183  1  0.07800610  0.85554016  0.02075911  1
  O2-  O184  1  0.16630052  0.87466084  0.24266024  1
  O2-  O185  1  0.09365600  0.88087577  0.51549189  1
  O2-  O186  1  0.09218758  0.87169695  0.74335621  1
  O2-  O187  1  0.32566800  0.37829998  0.00286813  1
  O2-  O188  1  0.36480728  0.38284189  0.22919048  1
  O2-  O189  1  0.40331605  0.37307165  0.48338506  1
  O2-  O190  1  0.34387845  0.36032813  0.74736667  1
  O2-  O191  1  0.36732614  0.86787495  -0.01886240  1
  O2-  O192  1  0.39277106  0.85149588  0.23631367  1
  O2-  O193  1  0.41416919  0.86606687  0.51295158  1
  O2-  O194  1  0.42760254  0.87520829  0.73953649  1
  O2-  O195  1  0.65897223  0.38046685  0.00199578  1
  O2-  O196  1  0.67907330  0.37879907  0.24001155  1
  O2-  O197  1  0.64617898  0.38101574  0.52473381  1
  O2-  O198  1  0.65412265  0.37404920  0.76336380  1
  O2-  O199  1  0.62616240  0.87258758  0.02039095  1
  O2-  O200  1  0.59687226  0.87663560  0.25780235  1
  O2-  O201  1  0.59127021  0.87405991  0.50415045  1
  O2-  O202  1  0.60528445  0.84778073  0.74770723  1
  O2-  O203  1  0.86289926  0.36269483  0.00630935  1
  O2-  O204  1  0.85754226  0.36229117  0.25513060  1
  O2-  O205  1  0.83686324  0.37868661  0.51385618  1
  O2-  O206  1  0.83511351  0.38046142  0.74864649  1
  O2-  O207  1  0.89683090  0.86018998  -0.00084331  1
  O2-  O208  1  0.86405802  0.86435998  0.24123824  1
  O2-  O209  1  0.90379267  0.87146852  0.49276110  1
  O2-  O210  1  0.90813697  0.87374278  0.75835409  1
  O2-  O211  1  0.00280160  0.12637473  0.05312054  1
  O2-  O212  1  0.00643993  0.11282398  0.21390378  1
  O2-  O213  1  -0.00670500  0.12698486  0.62450792  1
  O2-  O214  1  -0.00309331  0.15801247  0.87595036  1
  O2-  O215  1  0.00459255  0.40941928  0.06576822  1
  O2-  O216  1  0.01744470  0.39052760  0.22328601  1
  O2-  O217  1  -0.01690513  0.36684218  0.38946924  1
  O2-  O218  1  -0.00204845  0.34412753  0.61507488  1
  O2-  O219  1  0.22496169  -0.15523314  -0.11054515  1
  O2-  O220  1  0.25986748  -0.16308580  0.37848684  1
  O2-  O221  1  0.25334920  -0.16319646  0.57629924  1
  O2-  O222  1  0.26620732  -0.11815978  0.72715518  1
  O2-  O223  1  0.23794926  0.63881536  -0.12597588  1
  O2-  O224  1  0.29399447  0.48684428  0.37929170  1
  O2-  O225  1  0.25965056  0.64829330  0.40221870  1
  O2-  O226  1  0.24651203  0.65390104  0.63654031  1
  O2-  O227  1  0.51406460  0.13938304  0.10904227  1
  O2-  O228  1  0.49572822  0.13471407  0.28470591  1
  O2-  O229  1  0.48457695  0.16375447  0.44239472  1
  O2-  O230  1  0.49825498  0.13396149  0.87699309  1
  O2-  O231  1  0.48319912  0.37110178  -0.02637491  1
  O2-  O232  1  0.51747063  0.33831734  0.14203949  1
  O2-  O233  1  0.49126081  0.38094260  0.63333462  1
  O2-  O234  1  0.49437043  0.34694959  0.81433206  1
  O2-  O235  1  0.74541974  -0.12790764  -0.11584365  1
  O2-  O236  1  0.74788098  -0.12248141  0.37617180  1
  O2-  O237  1  0.74856302  -0.15044434  0.54996460  1
  O2-  O238  1  0.75556084  -0.12605786  0.70294085  1
  O2-  O239  1  0.74787199  0.61364659  -0.13437047  1
  O2-  O240  1  0.75695269  0.67974622  0.40142564  1
  O2-  O241  1  0.75254136  0.56367776  0.57356304  1
  O2-  O242  1  0.75853517  0.69113955  0.65929244  1
