# generated using pymatgen
data_Gd19Ta56(WO20)8
_symmetry_space_group_name_H-M   'P 1'
_cell_length_a   15.51127103
_cell_length_b   15.38371085
_cell_length_c   15.23041337
_cell_angle_alpha   90.12579184
_cell_angle_beta   90.06904667
_cell_angle_gamma   90.06233208
_symmetry_Int_Tables_number   1
_chemical_formula_structural   Gd19Ta56(WO20)8
_chemical_formula_sum   'Gd19 Ta56 W8 O160'
_cell_volume   3634.28151494
_cell_formula_units_Z   1
loop_
 _symmetry_equiv_pos_site_id
 _symmetry_equiv_pos_as_xyz
  1  'x, y, z'
loop_
 _atom_type_symbol
 _atom_type_oxidation_number
  Gd3+  3.0
  Ta5+  5.0
  W6+  6.0
  O2-  -2.0
loop_
 _atom_site_type_symbol
 _atom_site_label
 _atom_site_symmetry_multiplicity
 _atom_site_fract_x
 _atom_site_fract_y
 _atom_site_fract_z
 _atom_site_occupancy
  Gd3+  Gd0  1  0.77681362  0.25473436  -0.02154854  1
  Gd3+  Gd1  1  -0.04150447  0.73069731  0.49832794  1
  Gd3+  Gd2  1  0.00658951  0.25250197  0.26247281  1
  Gd3+  Gd3  1  0.48689995  0.25362477  0.50157227  1
  Gd3+  Gd4  1  0.25696277  0.74695956  0.00028540  1
  Gd3+  Gd5  1  -0.02400427  0.24363257  0.49758684  1
  Gd3+  Gd6  1  0.25446803  0.75500649  0.23949620  1
  Gd3+  Gd7  1  -0.02011113  0.73584597  0.75285279  1
  Gd3+  Gd8  1  0.54130302  0.78351489  0.53490256  1
  Gd3+  Gd9  1  0.52678890  0.75417408  -0.03336163  1
  Gd3+  Gd10  1  0.25688249  0.23756993  0.50786362  1
  Gd3+  Gd11  1  0.75976681  0.24848570  0.26708131  1
  Gd3+  Gd12  1  0.52664025  0.77152589  0.26587671  1
  Gd3+  Gd13  1  0.25013770  0.24490955  0.25817647  1
  Gd3+  Gd14  1  0.47196982  0.24787823  0.74695121  1
  Gd3+  Gd15  1  0.51174971  0.26571114  0.25314675  1
  Gd3+  Gd16  1  0.24671845  0.76475692  0.74298649  1
  Gd3+  Gd17  1  0.47634772  0.27268042  -0.01272500  1
  Gd3+  Gd18  1  0.76209255  0.74911807  0.23684896  1
  Ta5+  Ta19  1  0.68672819  0.87902085  0.65722366  1
  Ta5+  Ta20  1  0.10280054  0.86371030  0.36341282  1
  Ta5+  Ta21  1  0.37054938  0.40673986  0.11288052  1
  Ta5+  Ta22  1  0.85361157  0.12366366  0.64034191  1
  Ta5+  Ta23  1  0.86242124  0.87526941  0.86583871  1
  Ta5+  Ta24  1  0.08943183  0.36612400  0.87186614  1
  Ta5+  Ta25  1  0.40390956  0.60070878  0.09698926  1
  Ta5+  Ta26  1  0.13325292  0.37069471  0.11781690  1
  Ta5+  Ta27  1  0.37725801  0.08827568  0.63220473  1
  Ta5+  Ta28  1  0.38148260  0.41109182  0.37491720  1
  Ta5+  Ta29  1  0.16714312  0.62555530  0.38385991  1
  Ta5+  Ta30  1  0.67916660  0.89418316  0.39453263  1
  Ta5+  Ta31  1  0.62474270  0.13489061  0.09874507  1
  Ta5+  Ta32  1  0.88144054  0.61784594  0.11472178  1
  Ta5+  Ta33  1  0.66207460  0.39005138  0.41010938  1
  Ta5+  Ta34  1  0.62057355  0.12691619  0.89139092  1
  Ta5+  Ta35  1  0.38631332  0.90434023  0.12718095  1
  Ta5+  Ta36  1  0.82018084  0.62330576  0.63800905  1
  Ta5+  Ta37  1  0.62305450  0.38151288  0.63946749  1
  Ta5+  Ta38  1  0.62658532  0.38829515  0.87404683  1
  Ta5+  Ta39  1  0.32818924  0.13170394  0.87109071  1
  Ta5+  Ta40  1  0.13592056  0.09465524  0.62438276  1
  Ta5+  Ta41  1  0.32463249  0.07974776  0.07250779  1
  Ta5+  Ta42  1  0.62032574  0.12130732  0.37970528  1
  Ta5+  Ta43  1  0.63943717  0.88186984  0.85661728  1
  Ta5+  Ta44  1  0.10743303  0.86446765  0.60922884  1
  Ta5+  Ta45  1  0.37807756  0.62292168  0.84709893  1
  Ta5+  Ta46  1  0.64045913  0.39539112  0.10747640  1
  Ta5+  Ta47  1  0.13083946  0.90346725  0.11602104  1
  Ta5+  Ta48  1  0.10098050  0.13690519  0.04275787  1
  Ta5+  Ta49  1  0.88515605  0.12375662  0.12283821  1
  Ta5+  Ta50  1  0.86133976  0.08886519  0.38412705  1
  Ta5+  Ta51  1  0.11982726  0.62059630  0.12916680  1
  Ta5+  Ta52  1  0.84978044  0.87400320  0.62947590  1
  Ta5+  Ta53  1  0.37278115  0.88763437  0.38447230  1
  Ta5+  Ta54  1  0.62603439  0.88972870  0.11962906  1
  Ta5+  Ta55  1  0.85076613  0.37760102  0.62607263  1
  Ta5+  Ta56  1  0.12382532  0.61658786  0.87378759  1
  Ta5+  Ta57  1  0.88983452  0.37361681  0.12024360  1
  Ta5+  Ta58  1  0.11153646  0.87364458  0.87518767  1
  Ta5+  Ta59  1  0.84671901  0.87911407  0.37661517  1
  Ta5+  Ta60  1  0.84512120  0.61072634  0.86610386  1
  Ta5+  Ta61  1  0.65327090  0.63425526  0.65019044  1
  Ta5+  Ta62  1  0.41543908  0.64334936  0.65827700  1
  Ta5+  Ta63  1  0.92101015  0.12139996  0.87088251  1
  Ta5+  Ta64  1  0.91960921  0.37313102  0.86355150  1
  Ta5+  Ta65  1  0.60783218  0.63138263  0.12114016  1
  Ta5+  Ta66  1  0.86801121  0.38257379  0.39258499  1
  Ta5+  Ta67  1  0.88832258  0.87432781  0.11381387  1
  Ta5+  Ta68  1  0.36062047  0.90249291  0.63031826  1
  Ta5+  Ta69  1  0.38233211  0.89376878  0.87544531  1
  Ta5+  Ta70  1  0.15121301  0.42768715  0.64528352  1
  Ta5+  Ta71  1  0.11451444  0.10759026  0.38557950  1
  Ta5+  Ta72  1  0.32490402  0.38794332  0.84716873  1
  Ta5+  Ta73  1  0.36422181  0.64660343  0.42475778  1
  Ta5+  Ta74  1  0.67939707  0.62785805  0.86570644  1
  W6+  W75  1  0.63663775  0.64069909  0.39343434  1
  W6+  W76  1  0.38563075  0.07530953  0.38274366  1
  W6+  W77  1  0.61102878  0.11817012  0.64296415  1
  W6+  W78  1  0.37173497  0.39552693  0.63877084  1
  W6+  W79  1  0.11009430  0.61817116  0.61135275  1
  W6+  W80  1  0.16624474  0.12150698  0.87178368  1
  W6+  W81  1  0.13319752  0.37393019  0.39472330  1
  W6+  W82  1  0.83431935  0.61728675  0.37523515  1
  O2-  O83  1  0.09919754  0.01908422  0.10124812  1
  O2-  O84  1  0.09917177  -0.01408008  0.37012921  1
  O2-  O85  1  0.07486427  -0.01602625  0.61072907  1
  O2-  O86  1  0.15772136  -0.01866051  0.86555178  1
  O2-  O87  1  0.12358045  0.49703703  0.14110418  1
  O2-  O88  1  0.15523550  0.50807850  0.38148074  1
  O2-  O89  1  0.21253847  0.53120439  0.63398328  1
  O2-  O90  1  0.10527089  0.50080787  0.86829365  1
  O2-  O91  1  0.26747201  -0.04465314  0.10959238  1
  O2-  O92  1  0.46287062  -0.04095729  0.35794241  1
  O2-  O93  1  0.45127089  -0.01615253  0.64454312  1
  O2-  O94  1  0.35515268  0.00676582  0.91959153  1
  O2-  O95  1  0.30846005  0.52767835  0.11684964  1
  O2-  O96  1  0.40441897  0.52943586  0.40732256  1
  O2-  O97  1  0.41269593  0.52534049  0.63340340  1
  O2-  O98  1  0.32867108  0.51350426  0.87472595  1
  O2-  O99  1  0.63663527  0.01236842  0.12618988  1
  O2-  O100  1  0.62143842  0.00252675  0.35556878  1
  O2-  O101  1  0.64963656  -0.00689014  0.65991046  1
  O2-  O102  1  0.64130891  0.00876800  0.87054106  1
  O2-  O103  1  0.65061302  0.51765621  0.13213874  1
  O2-  O104  1  0.62978411  0.50283011  0.38630047  1
  O2-  O105  1  0.63280547  0.50253733  0.64967369  1
  O2-  O106  1  0.65233461  0.50660048  0.85432127  1
  O2-  O107  1  0.87991606  0.00244732  0.11831523  1
  O2-  O108  1  0.92039642  -0.01234201  0.34998815  1
  O2-  O109  1  0.85238181  -0.00211158  0.63000310  1
  O2-  O110  1  0.87117094  0.00987836  0.87017015  1
  O2-  O111  1  0.90907946  0.49258286  0.12408772  1
  O2-  O112  1  0.89254825  0.49731821  0.36349475  1
  O2-  O113  1  0.82159064  0.49762627  0.63311087  1
  O2-  O114  1  0.87633069  0.48740914  0.87423333  1
  O2-  O115  1  0.14803951  0.23554954  0.09655015  1
  O2-  O116  1  0.12896549  0.23718871  0.42130068  1
  O2-  O117  1  0.06363328  0.18403731  0.59416576  1
  O2-  O118  1  0.12650057  0.25080369  0.87710043  1
  O2-  O119  1  0.16429298  0.74762669  0.12199203  1
  O2-  O120  1  0.18284607  0.76806745  0.37260222  1
  O2-  O121  1  0.05167190  0.74707843  0.61803725  1
  O2-  O122  1  0.16819873  0.75186538  0.87622829  1
  O2-  O123  1  0.44503043  0.30319546  0.12388358  1
  O2-  O124  1  0.31349226  0.19099740  0.38181270  1
  O2-  O125  1  0.38549887  0.24952388  0.62694320  1
  O2-  O126  1  0.33596744  0.25924809  0.84695569  1
  O2-  O127  1  0.33746393  0.70726210  0.12361664  1
  O2-  O128  1  0.40779097  0.75347362  0.36767305  1
  O2-  O129  1  0.37841089  0.77426851  0.66125550  1
  O2-  O130  1  0.34791694  0.76137037  0.86746005  1
  O2-  O131  1  0.63088164  0.26453417  0.07849733  1
  O2-  O132  1  0.63848685  0.26652140  0.37330156  1
  O2-  O133  1  0.56721647  0.25210425  0.62920288  1
  O2-  O134  1  0.65191665  0.25966983  0.89159819  1
  O2-  O135  1  0.58782309  0.75986802  0.10855354  1
  O2-  O136  1  0.60133186  0.78154998  0.39537501  1
  O2-  O137  1  0.62429377  0.76389328  0.66434554  1
  O2-  O138  1  0.63441415  0.75327034  0.86295895  1
  O2-  O139  1  0.82298678  0.23902480  0.12476936  1
  O2-  O140  1  0.85586004  0.25068900  0.39194659  1
  O2-  O141  1  0.87944393  0.24672081  0.61048374  1
  O2-  O142  1  0.87055416  0.23982583  0.85817079  1
  O2-  O143  1  0.86155729  0.74802714  0.12262810  1
  O2-  O144  1  0.85386470  0.75163339  0.36052982  1
  O2-  O145  1  0.87869690  0.74356921  0.64019601  1
  O2-  O146  1  0.86175671  0.74830638  0.86194214  1
  O2-  O147  1  0.02868413  0.11022579  -0.06473083  1
  O2-  O148  1  0.14971181  0.13961419  0.27306232  1
  O2-  O149  1  0.17960195  0.09340730  0.49095363  1
  O2-  O150  1  0.12786238  0.10893874  0.74274784  1
  O2-  O151  1  0.16245123  0.62387608  0.00416146  1
  O2-  O152  1  0.12956650  0.64180970  0.25607901  1
  O2-  O153  1  0.07909083  0.64623337  0.46935546  1
  O2-  O154  1  0.11140669  0.64697305  0.75004545  1
  O2-  O155  1  0.36949057  0.16951992  -0.00449087  1
  O2-  O156  1  0.31484531  0.14323000  0.17261998  1
  O2-  O157  1  0.41309347  0.11678904  0.51295882  1
  O2-  O158  1  0.38204392  0.11176600  0.75954603  1
  O2-  O159  1  0.42126182  0.64035186  -0.02278280  1
  O2-  O160  1  0.48751064  0.63908541  0.18441511  1
  O2-  O161  1  0.43629388  0.67276962  0.52849178  1
  O2-  O162  1  0.31000252  0.63367771  0.73869281  1
  O2-  O163  1  0.54212544  0.13525562  -0.00369466  1
  O2-  O164  1  0.62371400  0.16472715  0.22703517  1
  O2-  O165  1  0.61628475  0.12653971  0.50042241  1
  O2-  O166  1  0.57624502  0.14452811  0.77588923  1
  O2-  O167  1  0.62082513  0.63368761  -0.00596472  1
  O2-  O168  1  0.63784428  0.66698214  0.24898587  1
  O2-  O169  1  0.62438242  0.65501592  0.53004557  1
  O2-  O170  1  0.74068617  0.65870772  0.75043682  1
  O2-  O171  1  0.87697194  0.14125348  -0.00344633  1
  O2-  O172  1  0.87311200  0.13693237  0.25372916  1
  O2-  O173  1  0.88190690  0.11337642  0.50709977  1
  O2-  O174  1  0.92741351  0.12132579  0.74159907  1
  O2-  O175  1  0.83996294  0.61443691  0.00080293  1
  O2-  O176  1  0.82264826  0.61287492  0.22526098  1
  O2-  O177  1  0.84576824  0.63236582  0.51287269  1
  O2-  O178  1  0.90104229  0.61232792  0.74680021  1
  O2-  O179  1  0.12771102  0.38647426  -0.00249506  1
  O2-  O180  1  0.12701313  0.33444177  0.25388052  1
  O2-  O181  1  0.17056995  0.36191137  0.54003619  1
  O2-  O182  1  0.09624065  0.37436553  0.74402301  1
  O2-  O183  1  0.16268489  0.86481730  -0.00144485  1
  O2-  O184  1  0.15098465  0.87879924  0.23729579  1
  O2-  O185  1  0.06874669  0.84904385  0.48541068  1
  O2-  O186  1  0.10987495  0.84930710  0.74563303  1
  O2-  O187  1  0.36288849  0.37723351  -0.01556056  1
  O2-  O188  1  0.26874674  0.36290324  0.36423491  1
  O2-  O189  1  0.37294187  0.36166755  0.49945012  1
  O2-  O190  1  0.42201725  0.39113700  0.77264277  1
  O2-  O191  1  0.39218815  0.84802931  0.01038781  1
  O2-  O192  1  0.35365850  0.86415283  0.24543471  1
  O2-  O193  1  0.39605056  0.86670634  0.50932562  1
  O2-  O194  1  0.32503763  0.90305570  0.76393316  1
  O2-  O195  1  0.57931106  0.40090514  -0.00642292  1
  O2-  O196  1  0.60701893  0.36756716  0.22170015  1
  O2-  O197  1  0.58661289  0.37532313  0.51699461  1
  O2-  O198  1  0.58428622  0.36014415  0.75863387  1
  O2-  O199  1  0.62302714  0.88002131  -0.00651436  1
  O2-  O200  1  0.65498762  0.85965522  0.24951356  1
  O2-  O201  1  0.66399409  0.87371765  0.52170010  1
  O2-  O202  1  0.74713187  0.87507631  0.79056996  1
  O2-  O203  1  0.89847738  0.34772462  -0.00519065  1
  O2-  O204  1  0.88831223  0.34081280  0.24590787  1
  O2-  O205  1  0.91890445  0.38361494  0.51858378  1
  O2-  O206  1  0.90956525  0.37508870  0.73212963  1
  O2-  O207  1  0.84433955  0.87547576  -0.00336895  1
  O2-  O208  1  0.84111996  0.87807635  0.23320109  1
  O2-  O209  1  0.87839434  0.85933644  0.50364676  1
  O2-  O210  1  0.91483572  0.87412936  0.74661813  1
  O2-  O211  1  0.01082420  -0.13525480  0.11330443  1
  O2-  O212  1  0.00109821  0.15409568  0.13191915  1
  O2-  O213  1  -0.00675507  0.14076754  0.38063982  1
  O2-  O214  1  -0.00552975  -0.12729824  0.89814904  1
  O2-  O215  1  0.00367259  0.64385588  0.11125976  1
  O2-  O216  1  0.01007255  0.33762534  0.13113283  1
  O2-  O217  1  -0.00405260  0.34631783  0.38025617  1
  O2-  O218  1  0.05442097  0.49327477  0.61153832  1
  O2-  O219  1  0.21505434  0.09596022  0.00588527  1
  O2-  O220  1  0.28814571  -0.02641258  0.38929764  1
  O2-  O221  1  0.22906255  -0.13550409  0.60740822  1
  O2-  O222  1  0.25812685  0.13280890  0.62521258  1
  O2-  O223  1  0.25848423  0.35628916  0.14180819  1
  O2-  O224  1  0.28930954  0.63403037  0.31795462  1
  O2-  O225  1  0.25793332  0.64208115  0.48261265  1
  O2-  O226  1  0.26498650  0.39126625  0.72862460  1
  O2-  O227  1  0.42924517  0.01691480  0.09526545  1
  O2-  O228  1  0.50499534  -0.11333332  0.16700608  1
  O2-  O229  1  0.49956019  0.15906735  0.36233852  1
  O2-  O230  1  0.50284421  -0.12372433  0.86355315  1
  O2-  O231  1  0.46789476  0.48930359  0.09506002  1
  O2-  O232  1  0.39106956  0.41360438  0.24844308  1
  O2-  O233  1  0.48616291  0.34553096  0.37559352  1
  O2-  O234  1  0.47479371  0.65551447  0.77393524  1
  O2-  O235  1  0.70597256  0.12442980  -0.00109101  1
  O2-  O236  1  0.74368145  0.12974135  0.35579714  1
  O2-  O237  1  0.77829553  -0.01525074  0.42378778  1
  O2-  O238  1  0.74321980  0.14447258  0.67354886  1
  O2-  O239  1  0.76107894  0.38842432  0.09862167  1
  O2-  O240  1  0.75586363  0.38626649  0.32194559  1
  O2-  O241  1  0.76264342  0.38971266  0.48411313  1
  O2-  O242  1  0.73509595  0.33892449  0.65490936  1
