# generated using pymatgen
data_Gd19Ta56(WO20)8
_symmetry_space_group_name_H-M   'P 1'
_cell_length_a   15.49883032
_cell_length_b   15.46579220
_cell_length_c   15.20062574
_cell_angle_alpha   89.97000972
_cell_angle_beta   90.18442222
_cell_angle_gamma   90.17224615
_symmetry_Int_Tables_number   1
_chemical_formula_structural   Gd19Ta56(WO20)8
_chemical_formula_sum   'Gd19 Ta56 W8 O160'
_cell_volume   3643.57984280
_cell_formula_units_Z   1
loop_
 _symmetry_equiv_pos_site_id
 _symmetry_equiv_pos_as_xyz
  1  'x, y, z'
loop_
 _atom_type_symbol
 _atom_type_oxidation_number
  Gd3+  3.0
  Ta5+  5.0
  W6+  6.0
  O2-  -2.0
loop_
 _atom_site_type_symbol
 _atom_site_label
 _atom_site_symmetry_multiplicity
 _atom_site_fract_x
 _atom_site_fract_y
 _atom_site_fract_z
 _atom_site_occupancy
  Gd3+  Gd0  1  0.22659951  0.26324888  0.54251884  1
  Gd3+  Gd1  1  0.52898383  0.75457118  0.74819683  1
  Gd3+  Gd2  1  0.78685911  0.25658345  0.22312580  1
  Gd3+  Gd3  1  0.48638014  0.74778499  0.25588394  1
  Gd3+  Gd4  1  0.22080803  0.74281071  0.76897771  1
  Gd3+  Gd5  1  0.00001266  0.25497662  0.77382851  1
  Gd3+  Gd6  1  0.49319553  0.26083624  -0.00091259  1
  Gd3+  Gd7  1  0.74696383  0.75288443  -0.01720788  1
  Gd3+  Gd8  1  0.77484992  0.22720659  -0.02077098  1
  Gd3+  Gd9  1  0.49706361  0.26386866  0.49852927  1
  Gd3+  Gd10  1  -0.00332028  0.26453070  0.52188447  1
  Gd3+  Gd11  1  0.00002930  0.72828107  0.02319125  1
  Gd3+  Gd12  1  0.75763217  0.77949576  0.23890894  1
  Gd3+  Gd13  1  0.25808753  0.21540670  0.03536341  1
  Gd3+  Gd14  1  0.78615760  0.75960070  0.49597505  1
  Gd3+  Gd15  1  0.46817107  0.23378917  0.23012983  1
  Gd3+  Gd16  1  0.73573741  0.27826316  0.46613105  1
  Gd3+  Gd17  1  0.22759817  0.75242821  0.24562669  1
  Gd3+  Gd18  1  0.76192824  0.75249198  0.72877153  1
  Ta5+  Ta19  1  0.84544619  0.12743669  0.66846678  1
  Ta5+  Ta20  1  0.62107258  0.13434968  0.80668135  1
  Ta5+  Ta21  1  0.12270869  0.86882704  0.40610277  1
  Ta5+  Ta22  1  0.93763283  0.37415173  0.11292371  1
  Ta5+  Ta23  1  0.65915555  0.37369038  0.85577462  1
  Ta5+  Ta24  1  0.89085707  0.62789024  0.36542604  1
  Ta5+  Ta25  1  0.06959958  0.86574491  0.64667200  1
  Ta5+  Ta26  1  0.91943405  0.91157295  0.10084660  1
  Ta5+  Ta27  1  0.37612969  0.60716864  0.13761760  1
  Ta5+  Ta28  1  0.11795193  0.62876263  0.40686290  1
  Ta5+  Ta29  1  0.63812031  0.39559715  0.31410509  1
  Ta5+  Ta30  1  0.83403602  0.59652217  0.12177448  1
  Ta5+  Ta31  1  0.89138895  0.38302602  0.36904146  1
  Ta5+  Ta32  1  0.59322651  0.62629198  0.58497156  1
  Ta5+  Ta33  1  0.11563883  0.11059072  0.65308206  1
  Ta5+  Ta34  1  0.62591572  0.10939191  0.13486007  1
  Ta5+  Ta35  1  0.37838874  0.37858947  0.65895446  1
  Ta5+  Ta36  1  0.05828593  0.62783140  0.65795904  1
  Ta5+  Ta37  1  0.35397187  0.62316286  0.63484759  1
  Ta5+  Ta38  1  0.08476323  0.87719863  0.89081047  1
  Ta5+  Ta39  1  0.83825707  0.37730824  0.64511893  1
  Ta5+  Ta40  1  0.39121275  0.11842612  0.86932655  1
  Ta5+  Ta41  1  0.45271952  0.44525151  0.13163282  1
  Ta5+  Ta42  1  0.64633675  0.12921425  0.59650573  1
  Ta5+  Ta43  1  0.14139459  0.38045781  0.39598550  1
  Ta5+  Ta44  1  0.94294808  0.11444558  0.91788419  1
  Ta5+  Ta45  1  0.62526736  0.42918179  0.10028790  1
  Ta5+  Ta46  1  0.41347652  0.61168909  0.40965894  1
  Ta5+  Ta47  1  0.08488969  0.59046866  0.15783948  1
  Ta5+  Ta48  1  0.09020123  0.88867834  0.15696151  1
  Ta5+  Ta49  1  0.58473354  0.87795795  0.08177434  1
  Ta5+  Ta50  1  0.14936603  0.11509447  0.40563808  1
  Ta5+  Ta51  1  0.12463314  0.38926236  0.66532520  1
  Ta5+  Ta52  1  0.35475738  0.11971100  0.61867745  1
  Ta5+  Ta53  1  0.61408703  0.88913977  0.40179117  1
  Ta5+  Ta54  1  0.62220409  0.63260116  0.09852653  1
  Ta5+  Ta55  1  0.67393576  0.89632450  0.84921677  1
  Ta5+  Ta56  1  0.08545594  0.08536212  0.09861794  1
  Ta5+  Ta57  1  0.37202881  0.84994740  0.07695564  1
  Ta5+  Ta58  1  0.89242619  0.62696244  0.85416174  1
  Ta5+  Ta59  1  0.91865972  0.08938398  0.13084505  1
  Ta5+  Ta60  1  0.89761212  0.38701418  0.89396023  1
  Ta5+  Ta61  1  0.35638060  0.11392735  0.38578595  1
  Ta5+  Ta62  1  0.62507120  0.38394176  0.64738489  1
  Ta5+  Ta63  1  0.33766773  0.37827087  0.34370503  1
  Ta5+  Ta64  1  0.90464591  0.89053064  0.62405237  1
  Ta5+  Ta65  1  0.34541611  0.38276243  0.90651180  1
  Ta5+  Ta66  1  0.35094632  0.87250515  0.64162911  1
  Ta5+  Ta67  1  0.38730357  0.87954271  0.87979576  1
  Ta5+  Ta68  1  0.40294430  0.87047755  0.40685271  1
  Ta5+  Ta69  1  0.59310687  0.88344218  0.59866811  1
  Ta5+  Ta70  1  0.84550857  0.89633991  0.87012552  1
  Ta5+  Ta71  1  0.17753649  0.36210386  0.91004376  1
  Ta5+  Ta72  1  0.92143403  0.13246041  0.35944523  1
  Ta5+  Ta73  1  0.11223702  0.11373286  0.90388326  1
  Ta5+  Ta74  1  0.13705384  0.61021289  0.90630167  1
  W6+  W75  1  0.37932591  0.62898730  0.88988920  1
  W6+  W76  1  0.66188636  0.12125998  0.34335396  1
  W6+  W77  1  0.88202368  0.89188685  0.35699617  1
  W6+  W78  1  0.64600125  0.62348357  0.84665915  1
  W6+  W79  1  0.09937469  0.33430536  0.13587164  1
  W6+  W80  1  0.63963866  0.64180688  0.36403469  1
  W6+  W81  1  0.89699903  0.62173383  0.63060607  1
  W6+  W82  1  0.37305534  0.07855401  0.12371083  1
  O2-  O83  1  0.16145112  -0.02119614  0.12407331  1
  O2-  O84  1  0.14907754  -0.00919239  0.41854980  1
  O2-  O85  1  0.08661501  -0.00461339  0.64794224  1
  O2-  O86  1  0.13464069  -0.01173018  0.89219570  1
  O2-  O87  1  0.06674690  0.47313902  0.15782434  1
  O2-  O88  1  0.13360836  0.50630789  0.39781841  1
  O2-  O89  1  0.09178067  0.50380372  0.66294085  1
  O2-  O90  1  0.15192534  0.49107259  0.91280748  1
  O2-  O91  1  0.33676662  -0.05423129  0.13260528  1
  O2-  O92  1  0.37620741  -0.00548190  0.39778903  1
  O2-  O93  1  0.34342172  -0.00166041  0.62692678  1
  O2-  O94  1  0.41636330  -0.00621133  0.84442063  1
  O2-  O95  1  0.32528269  0.49939845  0.13790806  1
  O2-  O96  1  0.38682783  0.48458761  0.37894861  1
  O2-  O97  1  0.36218515  0.49603406  0.62518202  1
  O2-  O98  1  0.34691120  0.50083837  0.89955513  1
  O2-  O99  1  0.56870597  0.00382960  0.10224837  1
  O2-  O100  1  0.66601651  -0.01529588  0.35946199  1
  O2-  O101  1  0.62258330  0.01087354  0.59870252  1
  O2-  O102  1  0.64688170  0.02250174  0.84084626  1
  O2-  O103  1  0.71009708  0.53663782  0.13244795  1
  O2-  O104  1  0.64261396  0.51004649  0.34167887  1
  O2-  O105  1  0.60853825  0.50329227  0.61943887  1
  O2-  O106  1  0.64959154  0.48961230  0.84761081  1
  O2-  O107  1  0.83088560  -0.00579016  0.09753943  1
  O2-  O108  1  0.87116848  0.02607838  0.34879751  1
  O2-  O109  1  0.88489691  0.02157838  0.63083733  1
  O2-  O110  1  0.87305324  0.01062747  0.89133577  1
  O2-  O111  1  0.87735412  0.48692880  0.11544301  1
  O2-  O112  1  0.91038797  0.50311560  0.36991760  1
  O2-  O113  1  0.88697643  0.48302763  0.62845133  1
  O2-  O114  1  0.87234497  0.50954022  0.88002424  1
  O2-  O115  1  0.11692804  0.20003154  0.12944502  1
  O2-  O116  1  0.15031693  0.24996999  0.40965188  1
  O2-  O117  1  0.08881741  0.25626835  0.64744200  1
  O2-  O118  1  0.16574320  0.23457779  0.90674914  1
  O2-  O119  1  0.10880712  0.76055194  0.14863512  1
  O2-  O120  1  0.17428857  0.74284310  0.39270741  1
  O2-  O121  1  0.10828762  0.74076560  0.66205475  1
  O2-  O122  1  0.11362104  0.75837030  0.92338376  1
  O2-  O123  1  0.39277898  0.21399358  0.10341648  1
  O2-  O124  1  0.38602776  0.26100118  0.38073357  1
  O2-  O125  1  0.36818668  0.26395482  0.59509614  1
  O2-  O126  1  0.36687951  0.24289464  0.90948608  1
  O2-  O127  1  0.33514257  0.74438570  0.14027360  1
  O2-  O128  1  0.44155978  0.73604516  0.40696608  1
  O2-  O129  1  0.31010217  0.74698509  0.64083167  1
  O2-  O130  1  0.42504381  0.76206885  0.85174096  1
  O2-  O131  1  0.56733619  0.21884179  0.11786869  1
  O2-  O132  1  0.67398793  0.25641232  0.32472102  1
  O2-  O133  1  0.62378902  0.26814020  0.59042745  1
  O2-  O134  1  0.67525471  0.23246198  0.85945815  1
  O2-  O135  1  0.58951382  0.74855325  0.06040262  1
  O2-  O136  1  0.66779982  0.78407102  0.36327461  1
  O2-  O137  1  0.57592556  0.75762961  0.58698950  1
  O2-  O138  1  0.65156557  0.76338620  0.85173669  1
  O2-  O139  1  0.83876742  0.30691609  0.08806150  1
  O2-  O140  1  0.85273453  0.24424261  0.36581964  1
  O2-  O141  1  0.89164864  0.25391620  0.64468460  1
  O2-  O142  1  0.91860253  0.25646218  0.90229002  1
  O2-  O143  1  0.74682743  0.69775513  0.12085720  1
  O2-  O144  1  0.85356003  0.75411700  0.36193976  1
  O2-  O145  1  0.87041371  0.75972841  0.62418582  1
  O2-  O146  1  0.84244564  0.74689722  0.85804475  1
  O2-  O147  1  0.18146161  0.09559811  0.01061303  1
  O2-  O148  1  0.04457000  0.12008691  0.34069662  1
  O2-  O149  1  0.10368644  0.13995299  0.52671745  1
  O2-  O150  1  0.09823766  0.13578059  0.77403253  1
  O2-  O151  1  0.12852536  0.61462700  0.04656822  1
  O2-  O152  1  0.15470539  0.61990626  0.25916024  1
  O2-  O153  1  0.08961425  0.63084188  0.52456673  1
  O2-  O154  1  0.13374809  0.62214721  0.78083143  1
  O2-  O155  1  0.35573063  0.08713539  -0.01705271  1
  O2-  O156  1  0.39160177  0.11714493  0.26505243  1
  O2-  O157  1  0.42826893  0.12944824  0.50973072  1
  O2-  O158  1  0.38991236  0.13985362  0.73587412  1
  O2-  O159  1  0.40774915  0.63637072  0.02305025  1
  O2-  O160  1  0.39248102  0.63210172  0.27536521  1
  O2-  O161  1  0.33076827  0.62322083  0.49984113  1
  O2-  O162  1  0.32739684  0.62283308  0.75555186  1
  O2-  O163  1  0.51604909  0.15123295  -0.12124555  1
  O2-  O164  1  0.56146434  0.12024159  0.25469004  1
  O2-  O165  1  0.61075324  0.15216059  0.47534356  1
  O2-  O166  1  0.56371638  0.14757472  0.69617699  1
  O2-  O167  1  0.67296018  0.62239619  -0.01869601  1
  O2-  O168  1  0.60518466  0.66656169  0.22536877  1
  O2-  O169  1  0.68381829  0.64420957  0.50406424  1
  O2-  O170  1  0.63659212  0.65578026  0.70495241  1
  O2-  O171  1  0.88706675  0.15436848  0.02965300  1
  O2-  O172  1  0.91381739  0.16981490  0.22980739  1
  O2-  O173  1  0.93242390  0.14419432  0.48153263  1
  O2-  O174  1  0.90753524  0.13435163  0.77686388  1
  O2-  O175  1  0.86036536  0.64613591  0.00332585  1
  O2-  O176  1  0.83103824  0.62367336  0.25068655  1
  O2-  O177  1  0.87021855  0.63305854  0.48766435  1
  O2-  O178  1  0.81272615  0.61696863  0.74802591  1
  O2-  O179  1  0.19618660  0.35300826  0.03843893  1
  O2-  O180  1  0.01639326  0.35229801  0.38767880  1
  O2-  O181  1  0.11094041  0.37410337  0.53156750  1
  O2-  O182  1  0.11318175  0.36260273  0.78818559  1
  O2-  O183  1  0.03864401  0.87382165  0.03222734  1
  O2-  O184  1  0.15152583  0.87452969  0.27502634  1
  O2-  O185  1  0.11685208  0.85397043  0.52979618  1
  O2-  O186  1  0.12446469  0.86158455  0.77106701  1
  O2-  O187  1  0.40975395  0.38240938  0.02359284  1
  O2-  O188  1  0.38886474  0.36368082  0.22987564  1
  O2-  O189  1  0.49467167  0.37189837  0.60870434  1
  O2-  O190  1  0.38433060  0.36420904  0.77772629  1
  O2-  O191  1  0.46586268  0.87952437  -0.01142843  1
  O2-  O192  1  0.33480158  0.83181641  0.31394271  1
  O2-  O193  1  0.33978511  0.85760535  0.51437133  1
  O2-  O194  1  0.31435412  0.86934132  0.76571177  1
  O2-  O195  1  0.61369443  0.36407225  -0.01887211  1
  O2-  O196  1  0.69277212  0.36849105  0.19207952  1
  O2-  O197  1  0.57261902  0.35590280  0.41243200  1
  O2-  O198  1  0.57688039  0.34855933  0.76099485  1
  O2-  O199  1  0.65691059  0.89186755  -0.02011793  1
  O2-  O200  1  0.66538928  0.86802346  0.17145971  1
  O2-  O201  1  0.68580934  0.87157582  0.51251962  1
  O2-  O202  1  0.64276860  0.86965399  0.71687206  1
  O2-  O203  1  0.97352770  0.40451232  -0.00936712  1
  O2-  O204  1  0.90226958  0.36445597  0.24423084  1
  O2-  O205  1  0.87860220  0.35093100  0.50240823  1
  O2-  O206  1  0.90624669  0.37242049  0.76555005  1
  O2-  O207  1  0.87127507  0.83884504  0.00300308  1
  O2-  O208  1  0.87947886  0.85977079  0.21177013  1
  O2-  O209  1  0.87545296  0.88419330  0.49988158  1
  O2-  O210  1  0.84265688  0.88495472  0.73707728  1
  O2-  O211  1  -0.01522549  0.02733472  0.02076338  1
  O2-  O212  1  0.00583993  -0.00960165  0.18685365  1
  O2-  O213  1  0.00943216  -0.14161735  0.38122397  1
  O2-  O214  1  -0.02820095  -0.13427501  0.86008603  1
  O2-  O215  1  0.00712672  0.62524522  -0.08408329  1
  O2-  O216  1  -0.03000321  0.63540365  0.14356981  1
  O2-  O217  1  0.01008444  0.65417603  0.35309693  1
  O2-  O218  1  -0.03020492  0.64025869  0.75157533  1
  O2-  O219  1  0.30161508  -0.14709184  -0.03325731  1
  O2-  O220  1  0.24303495  0.11916877  0.32549636  1
  O2-  O221  1  0.26981898  0.13031928  0.48646022  1
  O2-  O222  1  0.23757602  0.15116787  0.65259447  1
  O2-  O223  1  0.24893125  0.66326586  -0.09406563  1
  O2-  O224  1  0.22141000  0.38375682  0.29464961  1
  O2-  O225  1  0.26410008  0.37532539  0.45443914  1
  O2-  O226  1  0.24614591  0.36908520  0.65517149  1
  O2-  O227  1  0.47876449  -0.15394869  0.15055118  1
  O2-  O228  1  0.51082341  -0.12377427  0.32730428  1
  O2-  O229  1  0.51671500  -0.09648720  0.48930617  1
  O2-  O230  1  0.47042703  -0.12815680  0.66589659  1
  O2-  O231  1  0.54632708  0.53114980  0.07178002  1
  O2-  O232  1  0.54723235  0.42350552  0.22280219  1
  O2-  O233  1  0.51342314  0.59059637  0.47786314  1
  O2-  O234  1  0.47121719  0.64400576  0.64624746  1
  O2-  O235  1  0.68492931  0.12938225  0.02927576  1
  O2-  O236  1  0.72276507  0.11780012  0.21416087  1
  O2-  O237  1  0.76519853  0.15945683  0.56053826  1
  O2-  O238  1  0.72733476  0.12848916  0.71742699  1
  O2-  O239  1  0.77574951  0.36422470  -0.08848615  1
  O2-  O240  1  0.76462310  0.39059619  0.36525179  1
  O2-  O241  1  0.73297664  0.38833607  0.56962844  1
  O2-  O242  1  0.73462403  0.37378077  0.72908321  1
