# generated using pymatgen
data_Gd19Ta56(WO20)8
_symmetry_space_group_name_H-M   'P 1'
_cell_length_a   15.50364888
_cell_length_b   15.39764819
_cell_length_c   15.22937546
_cell_angle_alpha   89.81863708
_cell_angle_beta   90.06088647
_cell_angle_gamma   90.10505858
_symmetry_Int_Tables_number   1
_chemical_formula_structural   Gd19Ta56(WO20)8
_chemical_formula_sum   'Gd19 Ta56 W8 O160'
_cell_volume   3635.52605838
_cell_formula_units_Z   1
loop_
 _symmetry_equiv_pos_site_id
 _symmetry_equiv_pos_as_xyz
  1  'x, y, z'
loop_
 _atom_type_symbol
 _atom_type_oxidation_number
  Gd3+  3.0
  Ta5+  5.0
  W6+  6.0
  O2-  -2.0
loop_
 _atom_site_type_symbol
 _atom_site_label
 _atom_site_symmetry_multiplicity
 _atom_site_fract_x
 _atom_site_fract_y
 _atom_site_fract_z
 _atom_site_occupancy
  Gd3+  Gd0  1  0.74807499  0.74943382  0.23952301  1
  Gd3+  Gd1  1  0.74391285  0.25301971  0.53853888  1
  Gd3+  Gd2  1  0.01192525  0.75401580  0.00806655  1
  Gd3+  Gd3  1  0.46317688  0.74624803  0.51069243  1
  Gd3+  Gd4  1  0.52286022  0.25950424  0.71978540  1
  Gd3+  Gd5  1  0.27144617  0.25552797  0.28928472  1
  Gd3+  Gd6  1  0.50267030  0.23340735  0.49720494  1
  Gd3+  Gd7  1  0.77896901  0.26757173  0.29711482  1
  Gd3+  Gd8  1  0.51154705  0.23653034  0.26151306  1
  Gd3+  Gd9  1  0.01605463  0.24915579  0.49831262  1
  Gd3+  Gd10  1  0.25135612  0.22975593  0.76857579  1
  Gd3+  Gd11  1  0.24640028  0.75323694  0.19736045  1
  Gd3+  Gd12  1  0.75557008  0.73702288  -0.01361480  1
  Gd3+  Gd13  1  0.26673557  0.25217879  0.51516667  1
  Gd3+  Gd14  1  0.21754412  0.76399801  0.80501795  1
  Gd3+  Gd15  1  0.01105182  0.27304809  0.25842938  1
  Gd3+  Gd16  1  0.00439549  0.75340016  0.48770337  1
  Gd3+  Gd17  1  0.50537626  0.75082512  0.25575168  1
  Gd3+  Gd18  1  0.51723009  0.25625605  -0.00224816  1
  Ta5+  Ta19  1  0.31474079  0.65330158  0.63349773  1
  Ta5+  Ta20  1  0.39155163  0.88050339  0.10525482  1
  Ta5+  Ta21  1  0.86745555  0.13386435  0.11801078  1
  Ta5+  Ta22  1  0.93371494  0.47216763  0.26824875  1
  Ta5+  Ta23  1  0.86868871  0.36077175  0.09437579  1
  Ta5+  Ta24  1  0.14980010  0.63498119  0.62109718  1
  Ta5+  Ta25  1  0.62948237  0.60345108  0.13098131  1
  Ta5+  Ta26  1  0.62466723  0.87842434  0.39290183  1
  Ta5+  Ta27  1  0.16066444  0.65625732  0.36927725  1
  Ta5+  Ta28  1  0.88244031  0.11518479  0.62043643  1
  Ta5+  Ta29  1  0.87820652  0.61509657  0.12391286  1
  Ta5+  Ta30  1  0.37690494  0.37845096  0.87516494  1
  Ta5+  Ta31  1  0.38289683  0.08211211  0.63438202  1
  Ta5+  Ta32  1  0.13619538  0.38600804  0.64669410  1
  Ta5+  Ta33  1  0.91867334  0.10935378  0.36855239  1
  Ta5+  Ta34  1  0.14141901  0.40627625  0.38636252  1
  Ta5+  Ta35  1  0.66782875  0.35798070  0.12176518  1
  Ta5+  Ta36  1  0.05721426  0.89529918  0.85446305  1
  Ta5+  Ta37  1  0.07223329  0.61456961  0.85654304  1
  Ta5+  Ta38  1  0.96766384  0.37149637  0.86582562  1
  Ta5+  Ta39  1  0.61745840  0.86650338  0.84587819  1
  Ta5+  Ta40  1  0.32070208  0.84855915  0.36360047  1
  Ta5+  Ta41  1  0.07662982  0.14157944  0.87987843  1
  Ta5+  Ta42  1  0.13967059  0.38784937  0.13137463  1
  Ta5+  Ta43  1  0.63642012  0.84511544  0.61688389  1
  Ta5+  Ta44  1  0.59635399  0.11638489  0.87015504  1
  Ta5+  Ta45  1  0.39931022  0.40621119  0.38523956  1
  Ta5+  Ta46  1  0.36092266  0.62437647  0.88953252  1
  Ta5+  Ta47  1  0.63356535  0.42056734  0.38448640  1
  Ta5+  Ta48  1  0.13472440  0.38051870  0.88037094  1
  Ta5+  Ta49  1  0.32571239  0.88313246  0.60965554  1
  Ta5+  Ta50  1  0.62708554  0.09839719  0.12338163  1
  Ta5+  Ta51  1  0.59617164  0.86985962  0.07321557  1
  Ta5+  Ta52  1  0.59798396  0.61643999  0.87612122  1
  Ta5+  Ta53  1  0.88650493  0.37123827  0.66654012  1
  Ta5+  Ta54  1  0.42295242  0.12585121  0.87036895  1
  Ta5+  Ta55  1  0.90947630  0.86545097  0.63811220  1
  Ta5+  Ta56  1  0.15463362  0.86356029  0.36671677  1
  Ta5+  Ta57  1  0.90571142  0.61597941  0.87009138  1
  Ta5+  Ta58  1  0.13760615  0.13409434  0.12259217  1
  Ta5+  Ta59  1  0.89174435  0.87543402  0.86897509  1
  Ta5+  Ta60  1  0.37310328  0.12726967  0.11940394  1
  Ta5+  Ta61  1  0.13041798  0.11893971  0.63018423  1
  Ta5+  Ta62  1  0.57087409  0.59374899  0.63723717  1
  Ta5+  Ta63  1  0.12677492  0.61722590  0.10885673  1
  Ta5+  Ta64  1  0.15749876  0.87400453  0.61825945  1
  Ta5+  Ta65  1  0.38353575  0.62370064  0.11282109  1
  Ta5+  Ta66  1  0.32727951  0.64032561  0.37213410  1
  Ta5+  Ta67  1  0.61019138  0.07822585  0.37054658  1
  Ta5+  Ta68  1  0.38903562  0.87919707  0.88564158  1
  Ta5+  Ta69  1  0.90325570  0.12452185  0.86764416  1
  Ta5+  Ta70  1  0.88501314  0.89018339  0.12347708  1
  Ta5+  Ta71  1  0.13328573  0.11538539  0.37116964  1
  Ta5+  Ta72  1  0.38099507  0.37543144  0.12585664  1
  Ta5+  Ta73  1  0.38888053  0.41971077  0.62649982  1
  Ta5+  Ta74  1  0.59775054  0.61263713  0.39001681  1
  W6+  W75  1  0.85283375  0.86601770  0.37763725  1
  W6+  W76  1  0.65961535  0.37292974  0.89002816  1
  W6+  W77  1  0.63848394  0.41497414  0.63781710  1
  W6+  W78  1  0.63240103  0.08159322  0.62686691  1
  W6+  W79  1  0.92083044  0.61808874  0.63541520  1
  W6+  W80  1  0.12806214  0.89172965  0.10729818  1
  W6+  W81  1  0.83578587  0.60216747  0.40094724  1
  W6+  W82  1  0.37421726  0.06103501  0.42494023  1
  O2-  O83  1  0.10322263  0.02073923  0.13961978  1
  O2-  O84  1  0.14239972  -0.00567809  0.37447889  1
  O2-  O85  1  0.12657374  -0.00140941  0.61888940  1
  O2-  O86  1  0.07463057  0.01677386  0.85626840  1
  O2-  O87  1  0.18100904  0.50886691  0.12446005  1
  O2-  O88  1  0.15157595  0.52627503  0.38449843  1
  O2-  O89  1  0.13781527  0.50900933  0.62983371  1
  O2-  O90  1  0.11826315  0.50135690  0.84400387  1
  O2-  O91  1  0.39567814  0.00925930  0.12920624  1
  O2-  O92  1  0.32945114  -0.02835588  0.34799253  1
  O2-  O93  1  0.39759201  -0.03119036  0.67867616  1
  O2-  O94  1  0.41573729  0.00223667  0.87123449  1
  O2-  O95  1  0.39661167  0.49606844  0.13091287  1
  O2-  O96  1  0.34684864  0.51448327  0.35533796  1
  O2-  O97  1  0.34676722  0.53561781  0.64814223  1
  O2-  O98  1  0.34463251  0.49692052  0.87571389  1
  O2-  O99  1  0.64717920  -0.02869471  0.11585504  1
  O2-  O100  1  0.53508895  -0.03883530  0.39450656  1
  O2-  O101  1  0.58281090  -0.04832191  0.61211122  1
  O2-  O102  1  0.61047351  -0.01357280  0.85267400  1
  O2-  O103  1  0.62948502  0.48464349  0.14021618  1
  O2-  O104  1  0.70085805  0.54040466  0.37091465  1
  O2-  O105  1  0.51117855  0.48430414  0.64706162  1
  O2-  O106  1  0.65372729  0.51182155  0.87277943  1
  O2-  O107  1  0.90426869  0.01478118  0.12698170  1
  O2-  O108  1  0.89317711  -0.00733447  0.36167296  1
  O2-  O109  1  0.89684244  -0.00413089  0.62949936  1
  O2-  O110  1  0.89038485  0.00367987  0.86644114  1
  O2-  O111  1  0.87835093  0.48467339  0.13533788  1
  O2-  O112  1  0.86091188  0.47411231  0.36578056  1
  O2-  O113  1  0.89972918  0.48518801  0.63101016  1
  O2-  O114  1  0.93847750  0.49277470  0.86544670  1
  O2-  O115  1  0.10949190  0.25856703  0.14169448  1
  O2-  O116  1  0.11692951  0.25955668  0.37484847  1
  O2-  O117  1  0.15022796  0.25932835  0.62842014  1
  O2-  O118  1  0.16031322  0.24985006  0.88351671  1
  O2-  O119  1  0.14631984  0.74872735  0.08644610  1
  O2-  O120  1  0.07464970  0.75894941  0.35660093  1
  O2-  O121  1  0.21535264  0.75513272  0.64158540  1
  O2-  O122  1  0.08063037  0.75453825  0.87584245  1
  O2-  O123  1  0.43611772  0.25484938  0.12319024  1
  O2-  O124  1  0.38372131  0.27970395  0.40758487  1
  O2-  O125  1  0.43286271  0.30006575  0.60726430  1
  O2-  O126  1  0.35771689  0.25073001  0.87788384  1
  O2-  O127  1  0.37760735  0.75304021  0.09568585  1
  O2-  O128  1  0.40892760  0.74612322  0.36620402  1
  O2-  O129  1  0.38369627  0.77097102  0.64341360  1
  O2-  O130  1  0.35803641  0.75079706  0.90229967  1
  O2-  O131  1  0.60579512  0.23516884  0.12921562  1
  O2-  O132  1  0.72200880  0.33677340  0.41431528  1
  O2-  O133  1  0.50285974  0.11741019  0.61309548  1
  O2-  O134  1  0.63339894  0.23588691  0.90108432  1
  O2-  O135  1  0.65608888  0.76603017  0.10935227  1
  O2-  O136  1  0.57603972  0.74535742  0.40268217  1
  O2-  O137  1  0.57832271  0.73516566  0.61994590  1
  O2-  O138  1  0.65835393  0.72601181  0.86738753  1
  O2-  O139  1  0.93116305  0.24301468  0.12325751  1
  O2-  O140  1  0.91940518  0.24651196  0.37889617  1
  O2-  O141  1  0.89550090  0.26876664  0.58861121  1
  O2-  O142  1  0.98416386  0.23244548  0.86894454  1
  O2-  O143  1  0.85442765  0.74612127  0.11653067  1
  O2-  O144  1  0.81863385  0.73303032  0.36776665  1
  O2-  O145  1  0.95682373  0.74965555  0.63912133  1
  O2-  O146  1  0.88674427  0.74580561  0.90621774  1
  O2-  O147  1  0.08498585  0.13828970  0.00674107  1
  O2-  O148  1  0.18119649  0.14426593  0.24805459  1
  O2-  O149  1  0.15540924  0.15067968  0.50739568  1
  O2-  O150  1  0.12731505  0.14256239  0.75629832  1
  O2-  O151  1  0.10509746  0.61527201  -0.01810714  1
  O2-  O152  1  0.14636479  0.64413885  0.23576467  1
  O2-  O153  1  0.12890402  0.66267963  0.49880177  1
  O2-  O154  1  0.11436811  0.65910400  0.74194559  1
  O2-  O155  1  0.41721396  0.13879152  0.00137976  1
  O2-  O156  1  0.37730209  0.16296486  0.24000327  1
  O2-  O157  1  0.37637777  0.15629142  0.52304055  1
  O2-  O158  1  0.39819058  0.15552386  0.74281388  1
  O2-  O159  1  0.31577532  0.60943857  0.00739542  1
  O2-  O160  1  0.35150189  0.64500946  0.23308030  1
  O2-  O161  1  0.34249568  0.65299538  0.50375894  1
  O2-  O162  1  0.30883822  0.64951593  0.77565496  1
  O2-  O163  1  0.58739869  0.10078371  0.00690964  1
  O2-  O164  1  0.56057654  0.08590132  0.22754964  1
  O2-  O165  1  0.63603697  0.11630413  0.48593302  1
  O2-  O166  1  0.61265679  0.13821048  0.74648537  1
  O2-  O167  1  0.64419908  0.62590110  0.00853324  1
  O2-  O168  1  0.61932356  0.65207668  0.25846064  1
  O2-  O169  1  0.54407345  0.61158386  0.50841234  1
  O2-  O170  1  0.55195513  0.62601445  0.75862172  1
  O2-  O171  1  0.86746643  0.14017465  -0.00745124  1
  O2-  O172  1  0.85760693  0.14486243  0.25437045  1
  O2-  O173  1  0.86199305  0.12710620  0.48884631  1
  O2-  O174  1  0.88558883  0.14451030  0.74381162  1
  O2-  O175  1  0.85260352  0.60726366  -0.00140699  1
  O2-  O176  1  0.75250669  0.61835115  0.15678372  1
  O2-  O177  1  0.92412806  0.63026554  0.49774529  1
  O2-  O178  1  0.87018388  0.63389753  0.75404738  1
  O2-  O179  1  0.13477998  0.38688377  0.00677837  1
  O2-  O180  1  0.02438619  0.41398535  0.16696252  1
  O2-  O181  1  0.10460893  0.37655828  0.50844207  1
  O2-  O182  1  0.19408919  0.36989806  0.75909993  1
  O2-  O183  1  0.07598293  0.88800571  -0.01865624  1
  O2-  O184  1  0.15864440  0.86687739  0.23928987  1
  O2-  O185  1  0.12486647  0.85185042  0.49825372  1
  O2-  O186  1  0.12114927  0.86413263  0.74501560  1
  O2-  O187  1  0.41359611  0.37147978  0.00064372  1
  O2-  O188  1  0.40093429  0.35973883  0.25438604  1
  O2-  O189  1  0.41690011  0.43895005  0.50284038  1
  O2-  O190  1  0.40648588  0.37894507  0.75248614  1
  O2-  O191  1  0.32657801  0.90018561  -0.00352639  1
  O2-  O192  1  0.34816164  0.85679430  0.22508656  1
  O2-  O193  1  0.33987480  0.84046787  0.49175641  1
  O2-  O194  1  0.30952416  0.87706551  0.79327146  1
  O2-  O195  1  0.59896337  0.37311208  0.01604446  1
  O2-  O196  1  0.65537644  0.36160769  0.25192433  1
  O2-  O197  1  0.61073120  0.27975630  0.59722775  1
  O2-  O198  1  0.61731440  0.36165588  0.76711610  1
  O2-  O199  1  0.66900410  0.86178145  -0.03559613  1
  O2-  O200  1  0.63552362  0.83539224  0.27676270  1
  O2-  O201  1  0.68613707  0.84684307  0.50071014  1
  O2-  O202  1  0.67714725  0.85145914  0.73806532  1
  O2-  O203  1  0.93261022  0.36197009  -0.01087641  1
  O2-  O204  1  0.88189097  0.35863139  0.23353684  1
  O2-  O205  1  0.76605741  0.36329990  0.63092519  1
  O2-  O206  1  0.86680001  0.34622222  0.78487361  1
  O2-  O207  1  0.84962377  0.88065525  0.00379380  1
  O2-  O208  1  0.82281951  0.87770344  0.23091041  1
  O2-  O209  1  0.89230079  0.85451675  0.51043136  1
  O2-  O210  1  0.85757910  0.85428890  0.74918111  1
  O2-  O211  1  -0.00437195  -0.15208763  0.13342287  1
  O2-  O212  1  0.02473516  0.12657600  0.28619864  1
  O2-  O213  1  0.02209703  0.10934292  0.44254201  1
  O2-  O214  1  0.00845720  0.14433673  0.61389769  1
  O2-  O215  1  0.00085366  0.63411466  0.11406617  1
  O2-  O216  1  -0.09256011  0.59749657  0.25758267  1
  O2-  O217  1  0.02015740  0.41148609  0.33950191  1
  O2-  O218  1  0.01957398  0.36892026  0.69546592  1
  O2-  O219  1  0.25642579  0.13580285  0.08552120  1
  O2-  O220  1  0.26151195  0.14767583  0.39092081  1
  O2-  O221  1  0.32248217  0.00493295  0.53949046  1
  O2-  O222  1  0.26218356  0.13125203  0.65036423  1
  O2-  O223  1  0.26744368  0.34019119  0.12444081  1
  O2-  O224  1  0.17424872  0.37737344  0.26174396  1
  O2-  O225  1  0.26265338  0.37457865  0.40882239  1
  O2-  O226  1  0.27171298  0.37908009  0.60542883  1
  O2-  O227  1  0.49184244  -0.12142464  0.00205283  1
  O2-  O228  1  0.50769749  -0.13466752  0.16539887  1
  O2-  O229  1  0.49150856  0.13301746  0.38080109  1
  O2-  O230  1  0.50070131  -0.16239408  0.83037862  1
  O2-  O231  1  0.50793870  0.64269854  0.13240617  1
  O2-  O232  1  0.53610799  0.51282244  0.34923285  1
  O2-  O233  1  0.52877385  0.34488692  0.37908142  1
  O2-  O234  1  0.48196072  0.61414204  0.92093434  1
  O2-  O235  1  0.74609573  0.11487171  0.12451925  1
  O2-  O236  1  0.66144308  0.17899939  0.31962314  1
  O2-  O237  1  0.69451248  -0.01570481  0.36226414  1
  O2-  O238  1  0.75774609  0.13457254  0.62788848  1
  O2-  O239  1  0.76000648  0.39815197  0.03651743  1
  O2-  O240  1  0.77131221  0.28192195  0.14295912  1
  O2-  O241  1  0.62062227  0.44564829  0.50161427  1
  O2-  O242  1  0.67976429  0.55355279  0.64582328  1
