# generated using pymatgen
data_Gd19Ta56(WO20)8
_symmetry_space_group_name_H-M   'P 1'
_cell_length_a   15.66814279
_cell_length_b   15.50055809
_cell_length_c   14.98329948
_cell_angle_alpha   90.03470072
_cell_angle_beta   89.72010958
_cell_angle_gamma   89.65572795
_symmetry_Int_Tables_number   1
_chemical_formula_structural   Gd19Ta56(WO20)8
_chemical_formula_sum   'Gd19 Ta56 W8 O160'
_cell_volume   3638.80855131
_cell_formula_units_Z   1
loop_
 _symmetry_equiv_pos_site_id
 _symmetry_equiv_pos_as_xyz
  1  'x, y, z'
loop_
 _atom_type_symbol
 _atom_type_oxidation_number
  Gd3+  3.0
  Ta5+  5.0
  W6+  6.0
  O2-  -2.0
loop_
 _atom_site_type_symbol
 _atom_site_label
 _atom_site_symmetry_multiplicity
 _atom_site_fract_x
 _atom_site_fract_y
 _atom_site_fract_z
 _atom_site_occupancy
  Gd3+  Gd0  1  -0.03217631  0.25989690  0.76856820  1
  Gd3+  Gd1  1  0.25931309  0.27998538  0.25656694  1
  Gd3+  Gd2  1  -0.00996028  0.75589586  0.02139009  1
  Gd3+  Gd3  1  0.27488533  0.74037390  -0.01089821  1
  Gd3+  Gd4  1  -0.00043006  0.76132188  0.27131208  1
  Gd3+  Gd5  1  0.72149574  0.23521538  0.46850048  1
  Gd3+  Gd6  1  0.25541122  0.26339769  0.73414460  1
  Gd3+  Gd7  1  0.72824253  0.24475542  0.01084269  1
  Gd3+  Gd8  1  0.52912155  0.75081864  0.47530377  1
  Gd3+  Gd9  1  0.01953445  0.25893231  0.49960025  1
  Gd3+  Gd10  1  0.27192097  0.28908973  0.01258249  1
  Gd3+  Gd11  1  -0.03353822  0.77079484  0.72028511  1
  Gd3+  Gd12  1  0.27017554  0.26988247  0.48602163  1
  Gd3+  Gd13  1  0.00624811  0.22083998  0.25528064  1
  Gd3+  Gd14  1  0.28928676  0.76464255  0.73877778  1
  Gd3+  Gd15  1  0.50767929  0.73714199  -0.04760324  1
  Gd3+  Gd16  1  0.75052160  0.73051910  0.50881942  1
  Gd3+  Gd17  1  0.50044710  0.22014877  -0.00518192  1
  Gd3+  Gd18  1  0.48681033  0.74801930  0.22563162  1
  Ta5+  Ta19  1  0.87774872  0.38471741  0.63066241  1
  Ta5+  Ta20  1  0.87940731  0.88254733  0.89539808  1
  Ta5+  Ta21  1  0.62526519  0.11667092  0.85421163  1
  Ta5+  Ta22  1  0.15961400  0.12339522  0.37858641  1
  Ta5+  Ta23  1  0.56586883  0.10457529  0.38407138  1
  Ta5+  Ta24  1  0.42836793  0.62459002  0.63551192  1
  Ta5+  Ta25  1  0.84507406  0.87995363  0.37970080  1
  Ta5+  Ta26  1  0.85736143  0.61455274  0.35484758  1
  Ta5+  Ta27  1  0.38676209  0.61695996  0.38556237  1
  Ta5+  Ta28  1  0.12665064  0.88211604  0.61150869  1
  Ta5+  Ta29  1  0.59196389  0.60523478  0.61031594  1
  Ta5+  Ta30  1  0.11620774  0.13792739  0.87579890  1
  Ta5+  Ta31  1  0.60374655  0.11089125  0.13671955  1
  Ta5+  Ta32  1  0.13510511  0.39747681  0.37522431  1
  Ta5+  Ta33  1  0.81254813  0.88146859  0.64131423  1
  Ta5+  Ta34  1  0.09917573  0.12411614  0.63129638  1
  Ta5+  Ta35  1  0.40917493  0.37872794  0.86514429  1
  Ta5+  Ta36  1  0.14397149  0.64114518  0.63884174  1
  Ta5+  Ta37  1  0.37082891  0.60799110  0.12618258  1
  Ta5+  Ta38  1  0.62084006  0.86601469  0.10561872  1
  Ta5+  Ta39  1  0.59124430  0.36042074  0.35757178  1
  Ta5+  Ta40  1  0.84958624  0.61760751  0.13810941  1
  Ta5+  Ta41  1  0.42613342  0.37460581  0.14201535  1
  Ta5+  Ta42  1  0.13324673  0.88887462  0.86661284  1
  Ta5+  Ta43  1  0.42198035  0.38109733  0.36070029  1
  Ta5+  Ta44  1  0.59179965  0.36288308  0.14365126  1
  Ta5+  Ta45  1  0.09038419  0.39987440  0.63299414  1
  Ta5+  Ta46  1  0.12810267  0.62309928  0.12459416  1
  Ta5+  Ta47  1  0.65408127  0.88227674  0.35477668  1
  Ta5+  Ta48  1  0.65056557  0.86995479  0.86936063  1
  Ta5+  Ta49  1  0.14553057  0.62634326  0.38660063  1
  Ta5+  Ta50  1  0.32693641  0.87954145  0.15021281  1
  Ta5+  Ta51  1  0.61911426  0.87052281  0.61718415  1
  Ta5+  Ta52  1  0.82440513  0.62292904  0.66974419  1
  Ta5+  Ta53  1  0.09472372  0.38439633  0.12475956  1
  Ta5+  Ta54  1  0.65451867  0.60188000  0.85348282  1
  Ta5+  Ta55  1  0.89056598  0.37237071  0.13739720  1
  Ta5+  Ta56  1  0.17732653  0.13112988  0.11962948  1
  Ta5+  Ta57  1  0.59542372  0.11650076  0.60860690  1
  Ta5+  Ta58  1  0.12184618  0.39619179  0.86889186  1
  Ta5+  Ta59  1  0.45372233  0.88050276  0.63799300  1
  Ta5+  Ta60  1  0.13624645  0.63843487  0.85496304  1
  Ta5+  Ta61  1  0.37505384  0.89837674  0.87775622  1
  Ta5+  Ta62  1  0.84656884  0.11789446  0.15786185  1
  Ta5+  Ta63  1  0.39953174  0.12132473  0.38295482  1
  Ta5+  Ta64  1  0.39203655  0.12042149  0.61298740  1
  Ta5+  Ta65  1  0.61021710  0.36660951  0.61041281  1
  Ta5+  Ta66  1  0.87249933  0.12725549  0.89501706  1
  Ta5+  Ta67  1  0.34696608  0.12137451  0.13276744  1
  Ta5+  Ta68  1  0.86970914  0.38023453  0.38425648  1
  Ta5+  Ta69  1  0.88576924  0.11888043  0.63413377  1
  Ta5+  Ta70  1  0.60727918  0.36996862  0.86455729  1
  Ta5+  Ta71  1  0.91417305  0.09470313  0.41209583  1
  Ta5+  Ta72  1  0.64917894  0.60421553  0.35314139  1
  Ta5+  Ta73  1  0.83775832  0.87048960  0.15896373  1
  Ta5+  Ta74  1  0.36533497  0.58798010  0.87785470  1
  W6+  W75  1  0.12688469  0.88727560  0.13240470  1
  W6+  W76  1  0.37172049  0.40457438  0.61014209  1
  W6+  W77  1  0.16381955  0.87643435  0.36222241  1
  W6+  W78  1  0.38580015  0.87752535  0.38549125  1
  W6+  W79  1  0.36304222  0.13716743  0.86533904  1
  W6+  W80  1  0.88649681  0.62551791  0.88374020  1
  W6+  W81  1  0.83574086  0.38335730  0.88719172  1
  W6+  W82  1  0.60514015  0.60814112  0.10676642  1
  O2-  O83  1  0.15191444  0.01575920  0.11475371  1
  O2-  O84  1  0.18676107  0.01026164  0.37680952  1
  O2-  O85  1  0.13489723  0.00789861  0.62940791  1
  O2-  O86  1  0.12752325  0.01275119  0.87207396  1
  O2-  O87  1  0.08568605  0.51015795  0.11091587  1
  O2-  O88  1  0.09492066  0.51218453  0.39056690  1
  O2-  O89  1  0.11163958  0.51865356  0.63677524  1
  O2-  O90  1  0.10136932  0.51707153  0.85849840  1
  O2-  O91  1  0.35277862  -0.00780697  0.11561971  1
  O2-  O92  1  0.38365241  0.00199153  0.39845255  1
  O2-  O93  1  0.40665047  0.00180515  0.62707570  1
  O2-  O94  1  0.38475913  0.01050463  0.90371702  1
  O2-  O95  1  0.40661510  0.49417781  0.11071433  1
  O2-  O96  1  0.43716261  0.50911244  0.37781073  1
  O2-  O97  1  0.35471494  0.52916682  0.61000180  1
  O2-  O98  1  0.33712293  0.47242037  0.91069106  1
  O2-  O99  1  0.62478139  -0.01325725  0.11369398  1
  O2-  O100  1  0.57514587  -0.02483476  0.36894169  1
  O2-  O101  1  0.58129785  -0.00449004  0.61339444  1
  O2-  O102  1  0.65986466  -0.00051669  0.87453440  1
  O2-  O103  1  0.61455296  0.47841878  0.12500608  1
  O2-  O104  1  0.62371090  0.48837735  0.34620872  1
  O2-  O105  1  0.63271987  0.48730036  0.60592669  1
  O2-  O106  1  0.67477383  0.47749908  0.87129766  1
  O2-  O107  1  0.83004473  -0.00710063  0.15061279  1
  O2-  O108  1  0.91833434  -0.02406463  0.41965791  1
  O2-  O109  1  0.84049186  0.00674988  0.62671344  1
  O2-  O110  1  0.88945741  0.00216782  0.89921025  1
  O2-  O111  1  0.87596047  0.49644530  0.14065249  1
  O2-  O112  1  0.89716478  0.50019141  0.39111657  1
  O2-  O113  1  0.83114141  0.49666295  0.64560753  1
  O2-  O114  1  0.87004252  0.49834014  0.89361034  1
  O2-  O115  1  0.15900189  0.27248643  0.12828870  1
  O2-  O116  1  0.11431884  0.26854664  0.36803230  1
  O2-  O117  1  0.08509429  0.26181949  0.64353989  1
  O2-  O118  1  0.09242575  0.27267356  0.85722661  1
  O2-  O119  1  0.08112765  0.74426585  0.14084159  1
  O2-  O120  1  0.11413736  0.74335920  0.36103692  1
  O2-  O121  1  0.18346242  0.77095892  0.63205963  1
  O2-  O122  1  0.17782481  0.76441193  0.86558978  1
  O2-  O123  1  0.35483975  0.25832819  0.14666406  1
  O2-  O124  1  0.37149706  0.25304541  0.36989687  1
  O2-  O125  1  0.34059181  0.26669272  0.61349696  1
  O2-  O126  1  0.31937030  0.27222174  0.86805092  1
  O2-  O127  1  0.36044562  0.75038161  0.13103189  1
  O2-  O128  1  0.42997332  0.74002780  0.36369378  1
  O2-  O129  1  0.41502583  0.75355705  0.66265371  1
  O2-  O130  1  0.36697732  0.73490193  0.86503767  1
  O2-  O131  1  0.63409467  0.23353904  0.13055548  1
  O2-  O132  1  0.59220104  0.23176883  0.38523245  1
  O2-  O133  1  0.65205506  0.24153799  0.59881769  1
  O2-  O134  1  0.66929776  0.23815706  0.86860202  1
  O2-  O135  1  0.56557641  0.74569435  0.09133560  1
  O2-  O136  1  0.65302028  0.74473482  0.37467268  1
  O2-  O137  1  0.62679213  0.73159411  0.60259497  1
  O2-  O138  1  0.62951114  0.74253177  0.86805063  1
  O2-  O139  1  0.89100327  0.23749627  0.15617175  1
  O2-  O140  1  0.92581523  0.26440625  0.38350815  1
  O2-  O141  1  0.90611883  0.25038198  0.62205929  1
  O2-  O142  1  0.86187129  0.25416671  0.89900424  1
  O2-  O143  1  0.88604341  0.74808282  0.15443720  1
  O2-  O144  1  0.86681008  0.74039688  0.37726724  1
  O2-  O145  1  0.80001082  0.75536754  0.67202250  1
  O2-  O146  1  0.93827222  0.76705243  0.87506569  1
  O2-  O147  1  0.17052428  0.16361920  -0.01549113  1
  O2-  O148  1  0.14481251  0.14725891  0.24900442  1
  O2-  O149  1  0.14607448  0.16022744  0.51118741  1
  O2-  O150  1  0.15786052  0.14580265  0.75008916  1
  O2-  O151  1  0.10207088  0.65638690  -0.01222668  1
  O2-  O152  1  0.13897552  0.61593319  0.24853338  1
  O2-  O153  1  0.13125305  0.64610009  0.51259392  1
  O2-  O154  1  0.07547074  0.67882781  0.74686372  1
  O2-  O155  1  0.36367212  0.16344046  0.00243282  1
  O2-  O156  1  0.36588680  0.11976341  0.25959583  1
  O2-  O157  1  0.32601795  0.13429075  0.50462428  1
  O2-  O158  1  0.33296518  0.13226770  0.72561231  1
  O2-  O159  1  0.40468415  0.63416133  -0.00372368  1
  O2-  O160  1  0.38307813  0.61955079  0.25017543  1
  O2-  O161  1  0.41258074  0.65493418  0.50508641  1
  O2-  O162  1  0.41531070  0.59366525  0.76623554  1
  O2-  O163  1  0.62798764  0.13023286  -0.00285835  1
  O2-  O164  1  0.60938138  0.10610542  0.26143958  1
  O2-  O165  1  0.65339151  0.10617798  0.49176502  1
  O2-  O166  1  0.64666096  0.11447443  0.72802125  1
  O2-  O167  1  0.59086582  0.60939584  -0.03548622  1
  O2-  O168  1  0.58934044  0.63818226  0.24540073  1
  O2-  O169  1  0.58809485  0.61306997  0.46913788  1
  O2-  O170  1  0.59705303  0.60278968  0.74696683  1
  O2-  O171  1  0.83123847  0.12883186  0.02066301  1
  O2-  O172  1  0.87468660  0.11258416  0.29189970  1
  O2-  O173  1  0.83467449  0.14062953  0.50078331  1
  O2-  O174  1  0.84818535  0.13495775  0.76611305  1
  O2-  O175  1  0.90909005  0.63291165  0.02667387  1
  O2-  O176  1  0.93536972  0.62199634  0.25173597  1
  O2-  O177  1  0.86590441  0.64950488  0.55642905  1
  O2-  O178  1  0.91994998  0.63251338  0.74412015  1
  O2-  O179  1  0.15635957  0.38681073  -0.00858509  1
  O2-  O180  1  0.16269392  0.39927263  0.24763178  1
  O2-  O181  1  0.14820617  0.37054582  0.51249257  1
  O2-  O182  1  0.16660207  0.38659127  0.74277320  1
  O2-  O183  1  0.07976286  0.87017100  -0.02144020  1
  O2-  O184  1  0.07725628  0.88554185  0.25920215  1
  O2-  O185  1  0.10551083  0.87839548  0.49220221  1
  O2-  O186  1  0.08122398  0.87155966  0.74813224  1
  O2-  O187  1  0.41180478  0.34395902  0.00525446  1
  O2-  O188  1  0.34914538  0.39466147  0.25208868  1
  O2-  O189  1  0.36294973  0.38560470  0.47574035  1
  O2-  O190  1  0.36615004  0.38466143  0.74851871  1
  O2-  O191  1  0.40072617  0.84603214  -0.01019112  1
  O2-  O192  1  0.40976248  0.87491298  0.24719862  1
  O2-  O193  1  0.42845656  0.85741278  0.51491547  1
  O2-  O194  1  0.44536049  0.88356846  0.77762141  1
  O2-  O195  1  0.60796701  0.34076744  -0.00201138  1
  O2-  O196  1  0.65919387  0.34698260  0.25236325  1
  O2-  O197  1  0.64056834  0.36487336  0.47914749  1
  O2-  O198  1  0.62878879  0.36045827  0.73932334  1
  O2-  O199  1  0.57717027  0.87262751  -0.02197855  1
  O2-  O200  1  0.59425533  0.85002108  0.23151311  1
  O2-  O201  1  0.63850200  0.86290854  0.48391577  1
  O2-  O202  1  0.63831952  0.87266724  0.74656555  1
  O2-  O203  1  0.81465308  0.36240742  0.03810849  1
  O2-  O204  1  0.84039894  0.37244492  0.26334374  1
  O2-  O205  1  0.82186393  0.35921516  0.50676805  1
  O2-  O206  1  0.83841740  0.34795233  0.74764365  1
  O2-  O207  1  0.89250322  0.86928291  0.02810600  1
  O2-  O208  1  0.91354001  0.88134557  0.26584993  1
  O2-  O209  1  0.83297366  0.85396613  0.51329225  1
  O2-  O210  1  0.87474135  0.88510469  0.76055179  1
  O2-  O211  1  -0.00508879  0.13879049  -0.10632498  1
  O2-  O212  1  0.02820974  0.12393578  0.37612587  1
  O2-  O213  1  -0.01326423  0.11231777  0.54285559  1
  O2-  O214  1  -0.00483850  0.11791034  0.70653684  1
  O2-  O215  1  -0.00783465  0.36285240  0.05655100  1
  O2-  O216  1  0.00415313  0.36319383  0.21928227  1
  O2-  O217  1  -0.01682773  0.39546764  0.54822983  1
  O2-  O218  1  -0.01087803  0.39698176  0.71302239  1
  O2-  O219  1  0.23643561  -0.13869760  0.05644614  1
  O2-  O220  1  0.23409405  -0.12204103  0.23148806  1
  O2-  O221  1  0.27399997  -0.16693911  0.41354971  1
  O2-  O222  1  0.26104603  -0.10468710  0.82692898  1
  O2-  O223  1  0.24805855  0.61245859  -0.09114887  1
  O2-  O224  1  0.24621936  0.62304077  0.09691461  1
  O2-  O225  1  0.26574219  0.61589151  0.39088235  1
  O2-  O226  1  0.22545638  0.63183681  0.74170219  1
  O2-  O227  1  0.50777446  0.12138908  -0.13420141  1
  O2-  O228  1  0.48634719  0.12232923  0.11907219  1
  O2-  O229  1  0.48914235  0.12171369  0.50150098  1
  O2-  O230  1  0.49488051  0.16958826  0.66147750  1
  O2-  O231  1  0.50200991  0.29085272  -0.14231966  1
  O2-  O232  1  0.50018287  0.33074391  0.25028223  1
  O2-  O233  1  0.49525041  0.36124014  0.60542453  1
  O2-  O234  1  0.50952501  0.45192668  0.86508139  1
  O2-  O235  1  0.73399926  -0.16417282  0.09326396  1
  O2-  O236  1  0.76093301  -0.15004431  0.26858685  1
  O2-  O237  1  0.75006064  -0.04348711  0.38973831  1
  O2-  O238  1  0.76409235  -0.14809339  0.90257061  1
  O2-  O239  1  0.74101975  0.62912077  0.09448965  1
  O2-  O240  1  0.77001293  0.60879633  0.26659612  1
  O2-  O241  1  0.75401150  0.60347339  0.43124724  1
  O2-  O242  1  0.76599715  0.62650443  0.80371002  1
