# generated using pymatgen
data_Gd19Ta56(WO20)8
_symmetry_space_group_name_H-M   'P 1'
_cell_length_a   15.54044617
_cell_length_b   15.52835306
_cell_length_c   15.30154486
_cell_angle_alpha   90.12637749
_cell_angle_beta   90.03533870
_cell_angle_gamma   89.95644524
_symmetry_Int_Tables_number   1
_chemical_formula_structural   Gd19Ta56(WO20)8
_chemical_formula_sum   'Gd19 Ta56 W8 O160'
_cell_volume   3692.52033769
_cell_formula_units_Z   1
loop_
 _symmetry_equiv_pos_site_id
 _symmetry_equiv_pos_as_xyz
  1  'x, y, z'
loop_
 _atom_type_symbol
 _atom_type_oxidation_number
  Gd3+  3.0
  Ta5+  5.0
  W6+  6.0
  O2-  -2.0
loop_
 _atom_site_type_symbol
 _atom_site_label
 _atom_site_symmetry_multiplicity
 _atom_site_fract_x
 _atom_site_fract_y
 _atom_site_fract_z
 _atom_site_occupancy
  Gd3+  Gd0  1  0.75233314  0.75517993  0.26424742  1
  Gd3+  Gd1  1  0.53223046  0.73665462  0.47327694  1
  Gd3+  Gd2  1  0.74068903  0.75403471  0.76219817  1
  Gd3+  Gd3  1  0.74658413  0.24559470  -0.02277814  1
  Gd3+  Gd4  1  0.71953577  0.23567018  0.74902385  1
  Gd3+  Gd5  1  0.51224420  0.75966115  0.24016754  1
  Gd3+  Gd6  1  0.27245479  0.25364041  0.46804879  1
  Gd3+  Gd7  1  0.01060902  0.26794298  0.75060375  1
  Gd3+  Gd8  1  0.01037940  0.26011197  0.48486147  1
  Gd3+  Gd9  1  0.49972550  0.24765607  0.51908883  1
  Gd3+  Gd10  1  0.23766000  0.74688734  -0.01155592  1
  Gd3+  Gd11  1  0.02279156  0.74888644  0.72456757  1
  Gd3+  Gd12  1  0.24973007  0.75758416  0.74884759  1
  Gd3+  Gd13  1  -0.04102754  0.74974114  0.48630926  1
  Gd3+  Gd14  1  0.50069876  0.23017091  -0.00325571  1
  Gd3+  Gd15  1  0.25377998  0.75202818  0.50437267  1
  Gd3+  Gd16  1  0.51257036  0.24912961  0.24848909  1
  Gd3+  Gd17  1  0.74693138  0.76135763  0.00848698  1
  Gd3+  Gd18  1  -0.00483313  0.25087871  0.00468416  1
  Ta5+  Ta19  1  0.88030673  0.12220106  0.87057185  1
  Ta5+  Ta20  1  0.87668904  0.62441221  0.12794686  1
  Ta5+  Ta21  1  0.38654434  0.62514873  0.61920489  1
  Ta5+  Ta22  1  0.63722467  0.37292312  0.62089320  1
  Ta5+  Ta23  1  0.62575773  0.59962172  0.13091979  1
  Ta5+  Ta24  1  0.88383669  0.88680502  0.13385331  1
  Ta5+  Ta25  1  0.10798119  0.12258842  0.62240228  1
  Ta5+  Ta26  1  0.65246055  0.36147767  0.39151031  1
  Ta5+  Ta27  1  0.12397833  0.87686422  0.13009433  1
  Ta5+  Ta28  1  0.83959109  0.37731467  0.58578356  1
  Ta5+  Ta29  1  0.37773180  0.61882422  0.86590763  1
  Ta5+  Ta30  1  0.12896650  0.89107091  0.61778383  1
  Ta5+  Ta31  1  0.89321744  0.88393380  0.88484708  1
  Ta5+  Ta32  1  0.36301714  0.11888285  0.12050298  1
  Ta5+  Ta33  1  0.62687025  0.11587594  0.37735068  1
  Ta5+  Ta34  1  0.85078802  0.89631618  0.38715236  1
  Ta5+  Ta35  1  0.12112311  0.60610943  0.62476807  1
  Ta5+  Ta36  1  0.41953986  0.62236172  0.10068319  1
  Ta5+  Ta37  1  0.12332468  0.11756885  0.36316425  1
  Ta5+  Ta38  1  0.09979202  0.89068379  0.88146070  1
  Ta5+  Ta39  1  0.32478232  0.12988294  0.63653836  1
  Ta5+  Ta40  1  0.35257713  0.62902935  0.34558893  1
  Ta5+  Ta41  1  0.86968245  0.61692033  0.63554308  1
  Ta5+  Ta42  1  0.88683689  0.13564500  0.62043982  1
  Ta5+  Ta43  1  0.38180367  0.88947212  0.62533679  1
  Ta5+  Ta44  1  0.32443391  0.12669998  0.88467841  1
  Ta5+  Ta45  1  0.58249658  0.87801491  0.91832745  1
  Ta5+  Ta46  1  0.61313925  0.90636336  0.59467825  1
  Ta5+  Ta47  1  0.38347064  0.88275040  0.88206964  1
  Ta5+  Ta48  1  0.09106455  0.60037316  0.87671886  1
  Ta5+  Ta49  1  0.82453049  0.38179214  0.11113136  1
  Ta5+  Ta50  1  0.86846596  0.36305565  0.35082714  1
  Ta5+  Ta51  1  0.40289242  0.87916266  0.10835012  1
  Ta5+  Ta52  1  0.14021228  0.37773021  0.12107825  1
  Ta5+  Ta53  1  0.64133914  0.09979637  0.61309320  1
  Ta5+  Ta54  1  0.86484061  0.39518823  0.87419080  1
  Ta5+  Ta55  1  0.68143180  0.14038387  0.13618798  1
  Ta5+  Ta56  1  0.88759796  0.88876478  0.63597918  1
  Ta5+  Ta57  1  0.11687042  0.87062992  0.36983819  1
  Ta5+  Ta58  1  0.64500773  0.89902672  0.15742778  1
  Ta5+  Ta59  1  0.38291065  0.37978030  0.11625193  1
  Ta5+  Ta60  1  0.69104905  0.94267255  0.40714064  1
  Ta5+  Ta61  1  0.14253281  0.37987473  0.36562784  1
  Ta5+  Ta62  1  0.15368705  0.36925343  0.88332552  1
  Ta5+  Ta63  1  0.10797792  0.62295298  0.38102102  1
  Ta5+  Ta64  1  0.63171272  0.61702982  0.63618069  1
  Ta5+  Ta65  1  0.15516993  0.12769547  0.87379578  1
  Ta5+  Ta66  1  0.67800664  0.60371002  0.37700323  1
  Ta5+  Ta67  1  0.35479286  0.11184950  0.32315820  1
  Ta5+  Ta68  1  0.13784978  0.12598264  0.11807381  1
  Ta5+  Ta69  1  0.88835992  0.61986831  0.88229903  1
  Ta5+  Ta70  1  0.61372301  0.37826328  0.87264841  1
  Ta5+  Ta71  1  0.66029417  0.35631624  0.13201473  1
  Ta5+  Ta72  1  0.62248896  0.10895609  0.87432976  1
  Ta5+  Ta73  1  0.11808422  0.62335491  0.13000094  1
  Ta5+  Ta74  1  0.17714114  0.36386039  0.62958560  1
  W6+  W75  1  0.37040347  0.86912688  0.36657322  1
  W6+  W76  1  0.84174517  0.61432473  0.38081830  1
  W6+  W77  1  0.84404007  0.13444376  0.11984778  1
  W6+  W78  1  0.39140411  0.36553107  0.87175103  1
  W6+  W79  1  0.39812249  0.38132833  0.36667127  1
  W6+  W80  1  0.86312584  0.13245399  0.36271147  1
  W6+  W81  1  0.60217545  0.62578700  0.90648873  1
  W6+  W82  1  0.33584473  0.38031141  0.62841641  1
  O2-  O83  1  0.13694923  -0.00115645  0.12857494  1
  O2-  O84  1  0.11873473  -0.00443377  0.36262282  1
  O2-  O85  1  0.08178264  0.00150659  0.62624024  1
  O2-  O86  1  0.15117228  -0.00157204  0.87109849  1
  O2-  O87  1  0.15405520  0.50733197  0.11397745  1
  O2-  O88  1  0.11624004  0.49961548  0.38612397  1
  O2-  O89  1  0.14989309  0.49018881  0.62990256  1
  O2-  O90  1  0.14840274  0.49288506  0.86403370  1
  O2-  O91  1  0.36097908  -0.00641991  0.11869388  1
  O2-  O92  1  0.37233978  0.00508948  0.36735803  1
  O2-  O93  1  0.37285459  0.00913077  0.62784230  1
  O2-  O94  1  0.34984089  -0.00283427  0.88211974  1
  O2-  O95  1  0.38076300  0.50249358  0.10927474  1
  O2-  O96  1  0.38693770  0.51833723  0.36122751  1
  O2-  O97  1  0.38391987  0.50775257  0.61574526  1
  O2-  O98  1  0.38352828  0.50256474  0.87315918  1
  O2-  O99  1  0.67155000  0.01584684  0.14800349  1
  O2-  O100  1  0.57667220  0.00788175  0.36772545  1
  O2-  O101  1  0.55612735  0.00825054  0.63625745  1
  O2-  O102  1  0.62865744  -0.01907181  0.87801969  1
  O2-  O103  1  0.63056816  0.48147081  0.12527411  1
  O2-  O104  1  0.65747852  0.48404379  0.38811942  1
  O2-  O105  1  0.63975058  0.49933044  0.62885378  1
  O2-  O106  1  0.59675132  0.49289204  0.89143601  1
  O2-  O107  1  0.87613115  0.00243111  0.13415831  1
  O2-  O108  1  0.89706989  0.00710977  0.38318084  1
  O2-  O109  1  0.89000229  0.01001798  0.62929849  1
  O2-  O110  1  0.85613492  -0.00411259  0.86464431  1
  O2-  O111  1  0.83582066  0.51334980  0.11652103  1
  O2-  O112  1  0.85240106  0.48042375  0.36316131  1
  O2-  O113  1  0.85629074  0.49239877  0.62852300  1
  O2-  O114  1  0.82465347  0.51190481  0.87146175  1
  O2-  O115  1  0.10160463  0.25536263  0.11508952  1
  O2-  O116  1  0.12057093  0.25429252  0.37290193  1
  O2-  O117  1  0.08977862  0.25194373  0.62075068  1
  O2-  O118  1  0.09250436  0.25279727  0.88508419  1
  O2-  O119  1  0.16223425  0.74197564  0.11831640  1
  O2-  O120  1  0.07005592  0.75065989  0.37921056  1
  O2-  O121  1  0.14935085  0.74228691  0.62214008  1
  O2-  O122  1  0.15011864  0.77247883  0.87119555  1
  O2-  O123  1  0.40478817  0.24417301  0.12261435  1
  O2-  O124  1  0.39158202  0.23141170  0.35756750  1
  O2-  O125  1  0.26816525  0.25740499  0.62328776  1
  O2-  O126  1  0.38732144  0.23504321  0.89541425  1
  O2-  O127  1  0.43119506  0.74853233  0.10120289  1
  O2-  O128  1  0.42843986  0.72984181  0.36121276  1
  O2-  O129  1  0.33973162  0.75329911  0.62850398  1
  O2-  O130  1  0.33572908  0.75882365  0.87033340  1
  O2-  O131  1  0.58847006  0.24192488  0.12293138  1
  O2-  O132  1  0.58065157  0.24590948  0.39237965  1
  O2-  O133  1  0.62268887  0.24141859  0.62306006  1
  O2-  O134  1  0.60878940  0.23850804  0.86576450  1
  O2-  O135  1  0.64155666  0.75811763  0.15658920  1
  O2-  O136  1  0.61277646  0.71572496  0.34932039  1
  O2-  O137  1  0.74781912  0.66260259  0.62808835  1
  O2-  O138  1  0.64313058  0.77079579  0.89107868  1
  O2-  O139  1  0.86282361  0.26311720  0.07920883  1
  O2-  O140  1  0.93465180  0.25058592  0.35456173  1
  O2-  O141  1  0.90322474  0.27529364  0.63074563  1
  O2-  O142  1  0.88860692  0.25731864  0.88102368  1
  O2-  O143  1  0.83212606  0.75237749  0.13180445  1
  O2-  O144  1  0.85017371  0.75790533  0.38745869  1
  O2-  O145  1  0.89774164  0.74901039  0.64103871  1
  O2-  O146  1  0.83626244  0.76702175  0.88039037  1
  O2-  O147  1  0.09198772  0.12472075  0.00172893  1
  O2-  O148  1  0.09659252  0.13241872  0.24095225  1
  O2-  O149  1  0.08196748  0.12739700  0.48353357  1
  O2-  O150  1  0.12223697  0.13976068  0.74994411  1
  O2-  O151  1  0.13621572  0.63157718  -0.01335288  1
  O2-  O152  1  0.11176139  0.62525405  0.25043200  1
  O2-  O153  1  0.07939043  0.63055466  0.50604415  1
  O2-  O154  1  0.13549336  0.63652384  0.75975932  1
  O2-  O155  1  0.40812701  0.11204745  0.00375119  1
  O2-  O156  1  0.44276279  0.11587728  0.22657915  1
  O2-  O157  1  0.38153068  0.16409928  0.52847473  1
  O2-  O158  1  0.33222830  0.13505944  0.75874244  1
  O2-  O159  1  0.34363242  0.63670777  -0.00722452  1
  O2-  O160  1  0.35107996  0.63977323  0.22233934  1
  O2-  O161  1  0.37061009  0.64822711  0.49499864  1
  O2-  O162  1  0.33374097  0.62964633  0.74405730  1
  O2-  O163  1  0.63353916  0.13054832  0.00424869  1
  O2-  O164  1  0.63364868  0.15235880  0.25709924  1
  O2-  O165  1  0.58369523  0.12612198  0.50497732  1
  O2-  O166  1  0.63286266  0.11035557  0.74441207  1
  O2-  O167  1  0.68602596  0.62984984  0.02404241  1
  O2-  O168  1  0.68773796  0.60620975  0.24142544  1
  O2-  O169  1  0.63170780  0.63338915  0.50102407  1
  O2-  O170  1  0.64007857  0.63999633  0.75939832  1
  O2-  O171  1  0.91129554  0.12334319  -0.00942172  1
  O2-  O172  1  0.81187216  0.15331650  0.24648459  1
  O2-  O173  1  0.90088752  0.15387980  0.49899186  1
  O2-  O174  1  0.92082750  0.14257672  0.75027428  1
  O2-  O175  1  0.85969492  0.65174567  -0.00154228  1
  O2-  O176  1  0.86682739  0.63765739  0.24781798  1
  O2-  O177  1  0.88429522  0.62666163  0.51346493  1
  O2-  O178  1  0.84494303  0.63969826  0.76473170  1
  O2-  O179  1  0.09175346  0.38209937  0.00020726  1
  O2-  O180  1  0.10874659  0.38504551  0.24024053  1
  O2-  O181  1  0.15455981  0.35814918  0.50035620  1
  O2-  O182  1  0.14607461  0.34870214  0.75644307  1
  O2-  O183  1  0.14933037  0.86986866  0.00457569  1
  O2-  O184  1  0.15609823  0.85696871  0.24815568  1
  O2-  O185  1  0.15164017  0.86772677  0.49144329  1
  O2-  O186  1  0.14594351  0.87214617  0.74258945  1
  O2-  O187  1  0.43771327  0.36695513  0.00578186  1
  O2-  O188  1  0.43208670  0.37781547  0.22897881  1
  O2-  O189  1  0.37860401  0.35002301  0.50244207  1
  O2-  O190  1  0.34813367  0.36448425  0.74954349  1
  O2-  O191  1  0.32722428  0.85978140  0.00346173  1
  O2-  O192  1  0.37742747  0.84941610  0.22585827  1
  O2-  O193  1  0.33685519  0.87288977  0.50965728  1
  O2-  O194  1  0.34264953  0.87583390  0.74754526  1
  O2-  O195  1  0.63308225  0.34474104  -0.00108144  1
  O2-  O196  1  0.63080412  0.35366803  0.26668329  1
  O2-  O197  1  0.57295177  0.37469955  0.50688452  1
  O2-  O198  1  0.59806055  0.36885233  0.74344150  1
  O2-  O199  1  0.65328107  0.87896063  0.02708622  1
  O2-  O200  1  0.66887937  0.88808731  0.28215065  1
  O2-  O201  1  0.62962110  0.84888183  0.48032586  1
  O2-  O202  1  0.65913314  0.84570277  0.68633687  1
  O2-  O203  1  0.89848158  0.39449630  -0.00890891  1
  O2-  O204  1  0.86089839  0.36251801  0.22735608  1
  O2-  O205  1  0.91248840  0.37176560  0.48282735  1
  O2-  O206  1  0.95300190  0.39556860  0.79142878  1
  O2-  O207  1  0.84759819  0.87335631  0.00933197  1
  O2-  O208  1  0.85143362  0.87212434  0.25400037  1
  O2-  O209  1  0.85004578  0.86890751  0.51907877  1
  O2-  O210  1  0.83326719  0.87335373  0.74787729  1
  O2-  O211  1  -0.00219248  -0.08689850  -0.04695552  1
  O2-  O212  1  0.00434271  -0.14290867  0.13525445  1
  O2-  O213  1  0.00799114  -0.14675310  0.59856210  1
  O2-  O214  1  -0.00655304  -0.13405515  0.80428073  1
  O2-  O215  1  -0.01383057  0.54115362  -0.09158130  1
  O2-  O216  1  -0.00186259  0.62355554  0.10797283  1
  O2-  O217  1  -0.00404423  0.60935618  0.66141961  1
  O2-  O218  1  -0.00519973  0.68838302  0.85446399  1
  O2-  O219  1  0.24905364  0.15581510  0.08014804  1
  O2-  O220  1  0.27716845  0.10556095  0.22831002  1
  O2-  O221  1  0.24337936  0.13040517  0.39183954  1
  O2-  O222  1  0.22222460  0.09436314  0.58088325  1
  O2-  O223  1  0.26043690  0.35888037  0.12106789  1
  O2-  O224  1  0.26009273  0.36805944  0.35355773  1
  O2-  O225  1  0.23463461  0.65041178  0.37923566  1
  O2-  O226  1  0.26107928  0.35434934  0.92318635  1
  O2-  O227  1  0.47820120  -0.10419032  -0.01396105  1
  O2-  O228  1  0.52172990  -0.10339672  0.15457401  1
  O2-  O229  1  0.49576717  -0.15390345  0.59593756  1
  O2-  O230  1  0.49427694  -0.13716535  0.82641754  1
  O2-  O231  1  0.52178078  0.60757801  0.03002333  1
  O2-  O232  1  0.51524820  0.62088048  0.19433157  1
  O2-  O233  1  0.50844574  0.65391257  0.62215623  1
  O2-  O234  1  0.48573841  0.65730969  0.84490839  1
  O2-  O235  1  0.75314612  0.13613197  -0.13041646  1
  O2-  O236  1  0.73984864  0.06943636  0.39599659  1
  O2-  O237  1  0.69569826  -0.00780196  0.54895259  1
  O2-  O238  1  0.76254322  0.14208520  0.63197684  1
  O2-  O239  1  0.74538241  0.34805183  -0.13758524  1
  O2-  O240  1  0.76074653  0.30655332  0.37245460  1
  O2-  O241  1  0.73345856  0.37537957  0.51939077  1
  O2-  O242  1  0.75503710  0.35670509  0.67976197  1
