# generated using pymatgen
data_Gd19Ta56(WO20)8
_symmetry_space_group_name_H-M   'P 1'
_cell_length_a   15.57315897
_cell_length_b   15.47289380
_cell_length_c   15.31912767
_cell_angle_alpha   89.95734946
_cell_angle_beta   90.15766299
_cell_angle_gamma   90.05527719
_symmetry_Int_Tables_number   1
_chemical_formula_structural   Gd19Ta56(WO20)8
_chemical_formula_sum   'Gd19 Ta56 W8 O160'
_cell_volume   3691.30840094
_cell_formula_units_Z   1
loop_
 _symmetry_equiv_pos_site_id
 _symmetry_equiv_pos_as_xyz
  1  'x, y, z'
loop_
 _atom_type_symbol
 _atom_type_oxidation_number
  Gd3+  3.0
  Ta5+  5.0
  W6+  6.0
  O2-  -2.0
loop_
 _atom_site_type_symbol
 _atom_site_label
 _atom_site_symmetry_multiplicity
 _atom_site_fract_x
 _atom_site_fract_y
 _atom_site_fract_z
 _atom_site_occupancy
  Gd3+  Gd0  1  -0.00064767  0.24489742  0.75174000  1
  Gd3+  Gd1  1  0.23346835  0.22055153  0.24104742  1
  Gd3+  Gd2  1  0.72894117  0.73698443  0.74120660  1
  Gd3+  Gd3  1  0.29271685  0.74583630  0.02296310  1
  Gd3+  Gd4  1  0.52249075  0.76806929  0.51088239  1
  Gd3+  Gd5  1  0.51100711  0.24434950  0.50261628  1
  Gd3+  Gd6  1  -0.00385305  0.24634740  0.49407850  1
  Gd3+  Gd7  1  0.23956233  0.75615547  0.26089885  1
  Gd3+  Gd8  1  -0.05796951  0.73217436  0.54503410  1
  Gd3+  Gd9  1  0.73126196  0.73933158  0.47299411  1
  Gd3+  Gd10  1  0.55211716  0.24531935  0.19367085  1
  Gd3+  Gd11  1  -0.00003985  0.26031122  0.25090297  1
  Gd3+  Gd12  1  0.25390726  0.28527258  0.00556309  1
  Gd3+  Gd13  1  0.51689845  0.26147963  0.75123727  1
  Gd3+  Gd14  1  0.51970093  0.75922278  0.00184681  1
  Gd3+  Gd15  1  -0.02959725  0.80439592  0.78284865  1
  Gd3+  Gd16  1  -0.00151310  0.25239251  0.01325941  1
  Gd3+  Gd17  1  0.26432433  0.73215341  0.51770454  1
  Gd3+  Gd18  1  0.23918617  0.22119866  0.79113053  1
  Ta5+  Ta19  1  0.16153355  0.39529090  0.41509198  1
  Ta5+  Ta20  1  0.08840655  0.61419166  0.35824059  1
  Ta5+  Ta21  1  0.86779998  0.12494107  0.87905439  1
  Ta5+  Ta22  1  0.64165701  0.88434481  0.87067878  1
  Ta5+  Ta23  1  0.63388952  0.12246576  0.36547850  1
  Ta5+  Ta24  1  0.64693615  0.63790077  0.12653005  1
  Ta5+  Ta25  1  0.82768904  0.55809971  0.64016013  1
  Ta5+  Ta26  1  0.41138675  0.09598503  0.88524818  1
  Ta5+  Ta27  1  0.37925483  0.11895533  0.07131968  1
  Ta5+  Ta28  1  0.12593889  0.63235126  0.11131235  1
  Ta5+  Ta29  1  0.70475229  0.12193959  0.11853779  1
  Ta5+  Ta30  1  0.08779827  0.45390316  0.06551553  1
  Ta5+  Ta31  1  0.65877278  0.12597756  0.62793753  1
  Ta5+  Ta32  1  0.84797000  0.62937762  0.88233363  1
  Ta5+  Ta33  1  0.81162187  0.61928776  0.11637471  1
  Ta5+  Ta34  1  0.36986960  0.59666370  0.37372777  1
  Ta5+  Ta35  1  0.87606017  0.38331801  0.88073297  1
  Ta5+  Ta36  1  0.38327634  0.38290703  0.13092440  1
  Ta5+  Ta37  1  0.84869570  0.36812357  0.37663620  1
  Ta5+  Ta38  1  0.35987277  0.62857706  0.81920270  1
  Ta5+  Ta39  1  0.60203665  0.61132719  0.61009672  1
  Ta5+  Ta40  1  0.88718333  0.60116553  0.34919250  1
  Ta5+  Ta41  1  0.88229948  0.85558672  0.12195234  1
  Ta5+  Ta42  1  0.64555092  0.13120304  0.87763425  1
  Ta5+  Ta43  1  0.37894984  0.87429367  0.37607101  1
  Ta5+  Ta44  1  0.11851559  0.40366235  0.87452178  1
  Ta5+  Ta45  1  0.65549316  0.88862229  0.61529497  1
  Ta5+  Ta46  1  0.82424102  0.88937527  0.63789968  1
  Ta5+  Ta47  1  0.35678868  0.36788845  0.60180215  1
  Ta5+  Ta48  1  0.68951502  0.38933842  0.12122116  1
  Ta5+  Ta49  1  0.13643848  0.09052872  0.41651078  1
  Ta5+  Ta50  1  0.85319277  0.37769759  0.12901327  1
  Ta5+  Ta51  1  0.87534344  0.10732066  0.37174204  1
  Ta5+  Ta52  1  0.66529222  0.87320430  0.12273547  1
  Ta5+  Ta53  1  0.10127588  0.84887346  0.40001754  1
  Ta5+  Ta54  1  0.85570326  0.11825417  0.62595547  1
  Ta5+  Ta55  1  0.40128591  0.62899236  0.16824043  1
  Ta5+  Ta56  1  0.58044748  0.62061043  0.35786664  1
  Ta5+  Ta57  1  0.15540644  0.88473740  0.87243307  1
  Ta5+  Ta58  1  0.65697990  0.37442649  0.61745722  1
  Ta5+  Ta59  1  0.09121929  0.03635256  0.88502085  1
  Ta5+  Ta60  1  0.13787956  0.60635369  0.71040471  1
  Ta5+  Ta61  1  0.87204704  0.10808616  0.12882141  1
  Ta5+  Ta62  1  0.39119704  0.40763165  0.86293377  1
  Ta5+  Ta63  1  0.80752425  0.88589030  0.88690138  1
  Ta5+  Ta64  1  0.12157807  0.88341143  0.08945919  1
  Ta5+  Ta65  1  0.39438723  0.87834761  0.62555319  1
  Ta5+  Ta66  1  0.33755370  0.11332183  0.40857182  1
  Ta5+  Ta67  1  0.43434345  0.60015536  0.58294234  1
  Ta5+  Ta68  1  0.13177144  0.08503560  0.08830482  1
  Ta5+  Ta69  1  0.58858874  0.88273818  0.35231645  1
  Ta5+  Ta70  1  0.60312444  0.62337118  0.86964240  1
  Ta5+  Ta71  1  0.13411978  0.87014646  0.64051278  1
  Ta5+  Ta72  1  0.63873427  0.38210358  0.87765713  1
  Ta5+  Ta73  1  0.15024901  0.37227627  0.63018638  1
  Ta5+  Ta74  1  0.13750711  0.11614651  0.64212963  1
  W6+  W75  1  0.09486481  0.65305474  0.88983669  1
  W6+  W76  1  0.86346004  0.85699688  0.37428140  1
  W6+  W77  1  0.38849871  0.34497924  0.35047965  1
  W6+  W78  1  0.40269630  0.88422090  0.15510873  1
  W6+  W79  1  0.60973475  0.37408561  0.36381277  1
  W6+  W80  1  0.39027668  0.86007519  0.86720279  1
  W6+  W81  1  0.87377001  0.37497354  0.62852675  1
  W6+  W82  1  0.39196241  0.12566948  0.64531623  1
  O2-  O83  1  0.16732673  -0.02163276  0.15359036  1
  O2-  O84  1  0.09919417  -0.02451125  0.40373876  1
  O2-  O85  1  0.13356297  -0.00878510  0.64128957  1
  O2-  O86  1  0.20805042  0.00903298  0.86586371  1
  O2-  O87  1  0.17169971  0.51671160  0.13687026  1
  O2-  O88  1  0.15745585  0.51934199  0.39708378  1
  O2-  O89  1  0.13485779  0.49345554  0.65319091  1
  O2-  O90  1  0.11917781  0.51971469  0.83369588  1
  O2-  O91  1  0.39510070  0.01916848  0.13500067  1
  O2-  O92  1  0.37152538  0.00405487  0.37940790  1
  O2-  O93  1  0.37206182  -0.00684624  0.64156460  1
  O2-  O94  1  0.42799006  -0.01207574  0.84348316  1
  O2-  O95  1  0.38525820  0.50214882  0.14865208  1
  O2-  O96  1  0.37940765  0.48026690  0.36249212  1
  O2-  O97  1  0.41154723  0.47301920  0.58342738  1
  O2-  O98  1  0.33941537  0.51884086  0.87616525  1
  O2-  O99  1  0.68677063  -0.00853289  0.12254045  1
  O2-  O100  1  0.59347277  0.00904043  0.35779591  1
  O2-  O101  1  0.62324742  0.01239587  0.61070325  1
  O2-  O102  1  0.62569888  0.01065389  0.86967690  1
  O2-  O103  1  0.67552956  0.51377613  0.12298648  1
  O2-  O104  1  0.58848652  0.50163290  0.36046089  1
  O2-  O105  1  0.60450929  0.49163573  0.61318809  1
  O2-  O106  1  0.64284859  0.50554794  0.86594093  1
  O2-  O107  1  0.88309430  -0.01113757  0.12139488  1
  O2-  O108  1  0.88851488  -0.01005350  0.37412850  1
  O2-  O109  1  0.88278157  0.00097873  0.61060751  1
  O2-  O110  1  0.83633901  0.01064615  0.89441009  1
  O2-  O111  1  0.85422563  0.49796172  0.11212812  1
  O2-  O112  1  0.84192713  0.49768573  0.39562866  1
  O2-  O113  1  0.93292944  0.50817889  0.62661264  1
  O2-  O114  1  0.88145554  0.50420615  0.88586786  1
  O2-  O115  1  0.06351976  0.34793230  0.12057696  1
  O2-  O116  1  0.07322270  0.18327472  0.36991072  1
  O2-  O117  1  0.10616725  0.24575980  0.62969995  1
  O2-  O118  1  0.14469699  0.27841326  0.90287869  1
  O2-  O119  1  0.17312144  0.76508745  0.12222378  1
  O2-  O120  1  0.15356060  0.72010094  0.40086007  1
  O2-  O121  1  0.02723659  0.81480135  0.64106384  1
  O2-  O122  1  0.07385928  0.78763956  0.89282381  1
  O2-  O123  1  0.27126695  0.33648222  0.15112276  1
  O2-  O124  1  0.36475935  0.20331725  0.32735016  1
  O2-  O125  1  0.42566733  0.26350405  0.63204617  1
  O2-  O126  1  0.30961012  0.31695304  0.87062071  1
  O2-  O127  1  0.36255691  0.75162971  0.17233516  1
  O2-  O128  1  0.34688629  0.74914123  0.38204528  1
  O2-  O129  1  0.39989632  0.73099393  0.58039053  1
  O2-  O130  1  0.33639231  0.73061554  0.88432373  1
  O2-  O131  1  0.68745948  0.25056450  0.12272993  1
  O2-  O132  1  0.56914299  0.23329524  0.35035508  1
  O2-  O133  1  0.60093560  0.24405195  0.62381700  1
  O2-  O134  1  0.59767541  0.25138553  0.88053606  1
  O2-  O135  1  0.59330232  0.76173870  0.12879747  1
  O2-  O136  1  0.58679611  0.75345159  0.37423919  1
  O2-  O137  1  0.64829633  0.74879467  0.60354698  1
  O2-  O138  1  0.62309255  0.75067423  0.86920385  1
  O2-  O139  1  0.90613715  0.24757619  0.13548747  1
  O2-  O140  1  0.90549816  0.24715942  0.36883133  1
  O2-  O141  1  0.92217100  0.23138516  0.62604785  1
  O2-  O142  1  0.93020563  0.25190676  0.88159231  1
  O2-  O143  1  0.86846575  0.72705243  0.11645837  1
  O2-  O144  1  0.85275891  0.71579301  0.38839293  1
  O2-  O145  1  0.86004898  0.76717604  0.66931635  1
  O2-  O146  1  0.84074119  0.75424806  0.85881336  1
  O2-  O147  1  0.09217266  0.13731114  -0.01929301  1
  O2-  O148  1  0.10073700  0.16882754  0.17392909  1
  O2-  O149  1  0.07750681  0.11538719  0.52990176  1
  O2-  O150  1  0.10466832  0.12634494  0.76805416  1
  O2-  O151  1  0.18128671  0.64612643  -0.00023476  1
  O2-  O152  1  0.11977572  0.65425934  0.24264736  1
  O2-  O153  1  0.16358275  0.67396677  0.61246765  1
  O2-  O154  1  0.23749224  0.63228832  0.77523491  1
  O2-  O155  1  0.31528449  0.15439205  -0.04718818  1
  O2-  O156  1  0.41175984  0.23190656  0.11270503  1
  O2-  O157  1  0.41275051  0.13048988  0.50394017  1
  O2-  O158  1  0.38436764  0.16893309  0.78199662  1
  O2-  O159  1  0.41679622  0.65532569  0.04858613  1
  O2-  O160  1  0.30298737  0.61810029  0.26675907  1
  O2-  O161  1  0.31621782  0.59938243  0.48779602  1
  O2-  O162  1  0.39483788  0.60823230  0.70517862  1
  O2-  O163  1  0.66904004  0.12412380  -0.00017497  1
  O2-  O164  1  0.63715391  0.12948824  0.23379243  1
  O2-  O165  1  0.60868381  0.13554359  0.48829784  1
  O2-  O166  1  0.60039755  0.13952085  0.74925429  1
  O2-  O167  1  0.60605010  0.63391257  -0.00150293  1
  O2-  O168  1  0.64373590  0.63905805  0.25528661  1
  O2-  O169  1  0.63968253  0.62502056  0.47748794  1
  O2-  O170  1  0.62025910  0.63270436  0.73859405  1
  O2-  O171  1  0.90393595  0.13483532  0.00210144  1
  O2-  O172  1  0.92169848  0.12334195  0.25445714  1
  O2-  O173  1  0.90993852  0.12622056  0.49054559  1
  O2-  O174  1  0.91376516  0.12257494  0.75945119  1
  O2-  O175  1  0.79202937  0.62775256  -0.01249479  1
  O2-  O176  1  0.82551679  0.60782673  0.24814991  1
  O2-  O177  1  0.82161585  0.64103133  0.54815803  1
  O2-  O178  1  0.81839044  0.60993660  0.75333718  1
  O2-  O179  1  0.01853249  0.40392712  -0.05155258  1
  O2-  O180  1  0.07342618  0.36145932  0.34179979  1
  O2-  O181  1  0.08649428  0.36867412  0.51683708  1
  O2-  O182  1  0.11004966  0.35413458  0.75623939  1
  O2-  O183  1  0.20382505  0.86499580  -0.00854270  1
  O2-  O184  1  0.11974433  0.84393139  0.28129548  1
  O2-  O185  1  0.16090355  0.84670674  0.51755938  1
  O2-  O186  1  0.18070194  0.84263899  0.74886640  1
  O2-  O187  1  0.37941753  0.37854130  0.00647141  1
  O2-  O188  1  0.45264716  0.35113725  0.22871758  1
  O2-  O189  1  0.38188471  0.32409237  0.48811985  1
  O2-  O190  1  0.40439779  0.39145602  0.74175528  1
  O2-  O191  1  0.40246356  0.85231379  0.01716425  1
  O2-  O192  1  0.31041680  0.88655041  0.27044453  1
  O2-  O193  1  0.33325550  0.87009915  0.50840923  1
  O2-  O194  1  0.36486828  0.83341600  0.73229691  1
  O2-  O195  1  0.65725195  0.38148135  -0.00184267  1
  O2-  O196  1  0.62674578  0.36779606  0.22843125  1
  O2-  O197  1  0.59930074  0.36239901  0.50545185  1
  O2-  O198  1  0.61927375  0.36484721  0.73993287  1
  O2-  O199  1  0.62087924  0.87397062  0.00291558  1
  O2-  O200  1  0.65921343  0.86998334  0.25391911  1
  O2-  O201  1  0.65254050  0.87241053  0.47250686  1
  O2-  O202  1  0.64438838  0.87415758  0.74087328  1
  O2-  O203  1  0.86894518  0.35120686  0.00331034  1
  O2-  O204  1  0.89355847  0.37842787  0.25903713  1
  O2-  O205  1  0.90145492  0.36371784  0.48890831  1
  O2-  O206  1  0.92041542  0.37094177  0.76273241  1
  O2-  O207  1  0.83655526  0.85945445  0.00459492  1
  O2-  O208  1  0.86032715  0.85546796  0.24137515  1
  O2-  O209  1  0.84264779  0.84193710  0.51392441  1
  O2-  O210  1  0.85244917  0.90264525  0.76298274  1
  O2-  O211  1  0.07817651  -0.01832333  0.01096296  1
  O2-  O212  1  0.00832152  -0.15155342  0.10976113  1
  O2-  O213  1  -0.00912881  -0.17844131  0.43130379  1
  O2-  O214  1  0.03885170  -0.06076582  0.82045297  1
  O2-  O215  1  0.02818243  0.56697918  0.07295000  1
  O2-  O216  1  -0.00703566  0.55941286  0.29714832  1
  O2-  O217  1  -0.00185128  0.63339295  0.44305239  1
  O2-  O218  1  0.04009777  0.66412385  0.75619301  1
  O2-  O219  1  0.25166596  0.14660527  0.10851201  1
  O2-  O220  1  0.22514810  0.10043191  0.32600404  1
  O2-  O221  1  0.23810657  0.10577784  0.49064596  1
  O2-  O222  1  0.25236648  0.14021162  0.66484525  1
  O2-  O223  1  0.18555325  0.42325864  -0.01524831  1
  O2-  O224  1  0.24392619  0.32915662  0.35574966  1
  O2-  O225  1  0.23995528  0.39845030  0.53825214  1
  O2-  O226  1  0.25778800  0.32773995  0.68185056  1
  O2-  O227  1  0.47782242  0.10875867  -0.00896671  1
  O2-  O228  1  0.47444709  -0.12593319  0.28362670  1
  O2-  O229  1  0.48626755  -0.11177748  0.44203352  1
  O2-  O230  1  0.51468126  -0.12829211  0.61893878  1
  O2-  O231  1  0.50836474  0.39349268  -0.11513663  1
  O2-  O232  1  0.46855321  0.63068092  0.28327897  1
  O2-  O233  1  0.47326772  0.62925118  0.44763828  1
  O2-  O234  1  0.48121080  0.62716172  0.86188558  1
  O2-  O235  1  0.75962417  0.17536531  -0.13951363  1
  O2-  O236  1  0.75492340  0.12101322  0.36861155  1
  O2-  O237  1  0.75937618  0.14700197  0.55391613  1
  O2-  O238  1  0.75765326  0.10065178  0.70373099  1
  O2-  O239  1  0.76134543  0.36285315  -0.14784301  1
  O2-  O240  1  0.73835313  0.33076138  0.37900967  1
  O2-  O241  1  0.75804304  0.31203267  0.59840431  1
  O2-  O242  1  0.75806630  0.45943744  0.65752254  1
