# generated using pymatgen
data_Gd19Ta56(WO20)8
_symmetry_space_group_name_H-M   'P 1'
_cell_length_a   15.58687043
_cell_length_b   15.53485476
_cell_length_c   15.34956016
_cell_angle_alpha   89.95840732
_cell_angle_beta   90.04197110
_cell_angle_gamma   89.94411359
_symmetry_Int_Tables_number   1
_chemical_formula_structural   Gd19Ta56(WO20)8
_chemical_formula_sum   'Gd19 Ta56 W8 O160'
_cell_volume   3716.73519438
_cell_formula_units_Z   1
loop_
 _symmetry_equiv_pos_site_id
 _symmetry_equiv_pos_as_xyz
  1  'x, y, z'
loop_
 _atom_type_symbol
 _atom_type_oxidation_number
  Gd3+  3.0
  Ta5+  5.0
  W6+  6.0
  O2-  -2.0
loop_
 _atom_site_type_symbol
 _atom_site_label
 _atom_site_symmetry_multiplicity
 _atom_site_fract_x
 _atom_site_fract_y
 _atom_site_fract_z
 _atom_site_occupancy
  Gd3+  Gd0  1  0.74179137  0.25902854  0.25450319  1
  Gd3+  Gd1  1  0.01972249  0.74537703  0.76572868  1
  Gd3+  Gd2  1  0.77614799  0.74603336  0.75571611  1
  Gd3+  Gd3  1  0.23090329  0.24492769  0.26407972  1
  Gd3+  Gd4  1  0.01664693  0.77729924  0.01362205  1
  Gd3+  Gd5  1  0.45869273  0.23809917  -0.00738427  1
  Gd3+  Gd6  1  0.75098616  0.24788977  0.00558716  1
  Gd3+  Gd7  1  0.24848783  0.74620930  0.00911352  1
  Gd3+  Gd8  1  0.46856643  0.25690192  0.52016473  1
  Gd3+  Gd9  1  0.74864098  0.74621512  0.48271303  1
  Gd3+  Gd10  1  0.75900801  0.25516567  0.72241879  1
  Gd3+  Gd11  1  0.26377133  0.25092467  0.77297756  1
  Gd3+  Gd12  1  0.48366979  0.22758299  0.75425235  1
  Gd3+  Gd13  1  0.23560337  0.74486323  0.48837969  1
  Gd3+  Gd14  1  0.24312738  0.75445399  0.24430239  1
  Gd3+  Gd15  1  -0.00557399  0.77273701  0.50785899  1
  Gd3+  Gd16  1  0.03710887  0.23370860  -0.00995888  1
  Gd3+  Gd17  1  0.50986749  0.75646757  0.73050660  1
  Gd3+  Gd18  1  -0.02558005  0.75415416  0.25488266  1
  Ta5+  Ta19  1  0.63489932  0.11272448  0.87516906  1
  Ta5+  Ta20  1  0.62142197  0.38194365  0.62327806  1
  Ta5+  Ta21  1  0.17139309  0.94037979  0.20752051  1
  Ta5+  Ta22  1  0.60095363  0.37173461  0.37109307  1
  Ta5+  Ta23  1  0.59990710  0.12252964  0.13015656  1
  Ta5+  Ta24  1  0.11980983  0.88660924  0.62605010  1
  Ta5+  Ta25  1  0.38866027  0.39525936  0.87167732  1
  Ta5+  Ta26  1  0.89022800  0.11380564  0.12137243  1
  Ta5+  Ta27  1  0.32878949  0.07109846  0.88503389  1
  Ta5+  Ta28  1  0.31660003  0.38034185  0.62326653  1
  Ta5+  Ta29  1  0.65323779  0.87449930  0.88298582  1
  Ta5+  Ta30  1  0.12630283  0.10930417  0.13755578  1
  Ta5+  Ta31  1  0.11908970  0.89328881  0.35968448  1
  Ta5+  Ta32  1  0.38226741  0.61254597  0.12477905  1
  Ta5+  Ta33  1  0.89400858  0.90998055  0.87898973  1
  Ta5+  Ta34  1  0.60640100  0.63181747  0.12083149  1
  Ta5+  Ta35  1  0.18127931  0.12930720  0.62479789  1
  Ta5+  Ta36  1  0.84568032  0.63923594  0.10743280  1
  Ta5+  Ta37  1  0.35783959  0.62405679  0.62135764  1
  Ta5+  Ta38  1  0.40910009  0.86092629  0.12122555  1
  Ta5+  Ta39  1  0.15255694  0.38077824  0.88985855  1
  Ta5+  Ta40  1  0.90467933  0.61849187  0.60989409  1
  Ta5+  Ta41  1  0.14958455  0.37248497  0.63130872  1
  Ta5+  Ta42  1  0.60905053  0.87121983  0.37285679  1
  Ta5+  Ta43  1  0.86944169  0.38008399  0.60382588  1
  Ta5+  Ta44  1  0.88092496  0.39949535  0.12008120  1
  Ta5+  Ta45  1  0.16691959  0.11587570  0.88415665  1
  Ta5+  Ta46  1  0.37737641  0.87829628  0.36711963  1
  Ta5+  Ta47  1  0.87504687  0.14589138  0.85987518  1
  Ta5+  Ta48  1  0.11233038  0.61695439  0.62619881  1
  Ta5+  Ta49  1  0.59687993  0.38275808  0.86785823  1
  Ta5+  Ta50  1  0.61696628  0.12203014  0.37565770  1
  Ta5+  Ta51  1  0.92799081  0.13502162  0.36637957  1
  Ta5+  Ta52  1  0.83233855  0.88442893  0.11804173  1
  Ta5+  Ta53  1  0.86267410  0.60802717  0.89435323  1
  Ta5+  Ta54  1  0.38385787  0.12566514  0.36865741  1
  Ta5+  Ta55  1  0.35663425  0.38325564  0.37151891  1
  Ta5+  Ta56  1  0.15625951  0.89693843  0.86992043  1
  Ta5+  Ta57  1  0.07905376  0.36480635  0.14896851  1
  Ta5+  Ta58  1  0.14920947  0.60449561  0.87900197  1
  Ta5+  Ta59  1  0.61287881  0.11550213  0.62277516  1
  Ta5+  Ta60  1  0.58070062  0.87188899  0.12285133  1
  Ta5+  Ta61  1  0.09349879  0.13362645  0.39515602  1
  Ta5+  Ta62  1  0.35774392  0.86676281  0.61847969  1
  Ta5+  Ta63  1  0.39559353  0.62412742  0.37315262  1
  Ta5+  Ta64  1  0.68239308  0.87843727  0.62475977  1
  Ta5+  Ta65  1  0.65779665  0.62099066  0.88504240  1
  Ta5+  Ta66  1  0.87002986  0.89336556  0.36935510  1
  Ta5+  Ta67  1  0.14072045  0.60028246  0.14184937  1
  Ta5+  Ta68  1  0.85999356  0.12818009  0.59852789  1
  Ta5+  Ta69  1  0.93626477  0.37507130  0.36234940  1
  Ta5+  Ta70  1  0.39234008  0.63307637  0.87327731  1
  Ta5+  Ta71  1  0.33069831  0.36821547  0.12030652  1
  Ta5+  Ta72  1  0.12889857  0.60872308  0.35694273  1
  Ta5+  Ta73  1  0.37124105  0.86570854  0.87157274  1
  Ta5+  Ta74  1  0.85435435  0.88486081  0.62588641  1
  W6+  W75  1  0.86802631  0.61801229  0.36122911  1
  W6+  W76  1  0.35010543  0.11763935  0.62679868  1
  W6+  W77  1  0.64101140  0.61652694  0.36967210  1
  W6+  W78  1  0.09685507  0.36673189  0.39095348  1
  W6+  W79  1  0.35305210  0.10578806  0.13178121  1
  W6+  W80  1  0.61935759  0.38034719  0.11446835  1
  W6+  W81  1  0.87193347  0.37950980  0.86718327  1
  W6+  W82  1  0.63792138  0.61927877  0.63029802  1
  O2-  O83  1  0.23486362  0.04206852  0.14281781  1
  O2-  O84  1  0.10812045  0.00721490  0.39788535  1
  O2-  O85  1  0.15408752  0.00120847  0.63226850  1
  O2-  O86  1  0.10427894  0.00475469  0.87023791  1
  O2-  O87  1  0.08879958  0.48980622  0.13324415  1
  O2-  O88  1  0.08383653  0.50044714  0.36936646  1
  O2-  O89  1  0.13762267  0.50024785  0.64168827  1
  O2-  O90  1  0.10080867  0.49569266  0.86784911  1
  O2-  O91  1  0.39565372  -0.02229595  0.12122294  1
  O2-  O92  1  0.39524452  -0.00306288  0.37435892  1
  O2-  O93  1  0.35989233  -0.01647679  0.61405820  1
  O2-  O94  1  0.42316443  -0.02654812  0.88632073  1
  O2-  O95  1  0.35294545  0.49738320  0.11785806  1
  O2-  O96  1  0.35471410  0.50864249  0.38247959  1
  O2-  O97  1  0.35305008  0.50391256  0.61661283  1
  O2-  O98  1  0.42467183  0.51636070  0.87060689  1
  O2-  O99  1  0.59557504  0.00212988  0.12546437  1
  O2-  O100  1  0.62127806  0.00130290  0.38087623  1
  O2-  O101  1  0.64072586  0.00005942  0.63082394  1
  O2-  O102  1  0.61021218  -0.00352481  0.85873820  1
  O2-  O103  1  0.59735527  0.51250403  0.10287276  1
  O2-  O104  1  0.64321122  0.48010849  0.37896014  1
  O2-  O105  1  0.58467988  0.49195376  0.63935563  1
  O2-  O106  1  0.62738991  0.49891615  0.86895285  1
  O2-  O107  1  0.83249834  0.00885841  0.09348165  1
  O2-  O108  1  0.89100673  0.00967705  0.38325644  1
  O2-  O109  1  0.85672934  0.00654883  0.60823505  1
  O2-  O110  1  0.91578324  0.02566020  0.87454846  1
  O2-  O111  1  0.87640880  0.51844913  0.09616479  1
  O2-  O112  1  0.89195674  0.48554865  0.35530547  1
  O2-  O113  1  0.86069602  0.50708587  0.60768721  1
  O2-  O114  1  0.91960470  0.50711607  0.87829169  1
  O2-  O115  1  0.13063666  0.24696366  0.12957082  1
  O2-  O116  1  0.15379307  0.24405722  0.39090956  1
  O2-  O117  1  0.21407676  0.25864159  0.62415885  1
  O2-  O118  1  0.17467979  0.25006189  0.89665220  1
  O2-  O119  1  0.13848491  0.72431348  0.11339205  1
  O2-  O120  1  0.14889675  0.74640511  0.36606194  1
  O2-  O121  1  0.09196380  0.74762339  0.62261996  1
  O2-  O122  1  0.07037389  0.69492146  0.90393424  1
  O2-  O123  1  0.32368044  0.24442521  0.13877022  1
  O2-  O124  1  0.35402464  0.25279455  0.36290513  1
  O2-  O125  1  0.38249989  0.25976736  0.64261222  1
  O2-  O126  1  0.38406986  0.26556890  0.86197193  1
  O2-  O127  1  0.33754772  0.73720135  0.13006355  1
  O2-  O128  1  0.33109769  0.73868812  0.36282481  1
  O2-  O129  1  0.41824807  0.75026116  0.61217801  1
  O2-  O130  1  0.44335295  0.75207091  0.86451792  1
  O2-  O131  1  0.64924922  0.24530664  0.12119074  1
  O2-  O132  1  0.65796399  0.25191274  0.38146467  1
  O2-  O133  1  0.57071154  0.26305836  0.63541518  1
  O2-  O134  1  0.56791283  0.22764983  0.87846583  1
  O2-  O135  1  0.54923746  0.74792845  0.11904811  1
  O2-  O136  1  0.65496251  0.75623378  0.36954888  1
  O2-  O137  1  0.69326750  0.74642773  0.63010918  1
  O2-  O138  1  0.69359587  0.75179501  0.88144621  1
  O2-  O139  1  0.81199603  0.20463759  0.13541239  1
  O2-  O140  1  0.88169670  0.25941682  0.33610512  1
  O2-  O141  1  0.86572704  0.25594498  0.61282689  1
  O2-  O142  1  0.80548292  0.25868318  0.86075697  1
  O2-  O143  1  0.89425808  0.76602074  0.12665261  1
  O2-  O144  1  0.85465404  0.76038534  0.35101527  1
  O2-  O145  1  0.89333891  0.74691705  0.64471481  1
  O2-  O146  1  1.00719263  0.85653037  0.87843847  1
  O2-  O147  1  0.14623407  0.11793169  0.00808324  1
  O2-  O148  1  0.11841174  0.13664073  0.26287742  1
  O2-  O149  1  0.11602039  0.13912287  0.52261744  1
  O2-  O150  1  0.15938211  0.14170922  0.75004590  1
  O2-  O151  1  0.17476212  0.60104493  0.00956741  1
  O2-  O152  1  0.06036004  0.63789054  0.24555352  1
  O2-  O153  1  0.16081806  0.61933093  0.48103496  1
  O2-  O154  1  0.13701859  0.64429429  0.75861168  1
  O2-  O155  1  0.36573137  0.12361360  -0.00761048  1
  O2-  O156  1  0.31717796  0.11692703  0.26609756  1
  O2-  O157  1  0.37955812  0.13986903  0.49156043  1
  O2-  O158  1  0.35043968  0.11383002  0.76972283  1
  O2-  O159  1  0.38604579  0.64258699  -0.00248112  1
  O2-  O160  1  0.40625537  0.62128140  0.24693206  1
  O2-  O161  1  0.35505564  0.64391800  0.49714824  1
  O2-  O162  1  0.40571875  0.63938073  0.73965794  1
  O2-  O163  1  0.62386850  0.12588290  0.00331556  1
  O2-  O164  1  0.65437517  0.12967880  0.24843841  1
  O2-  O165  1  0.58225884  0.13863286  0.50100257  1
  O2-  O166  1  0.64601815  0.14790676  0.75029303  1
  O2-  O167  1  0.59124177  0.64224457  -0.01761033  1
  O2-  O168  1  0.60385062  0.62441642  0.24105684  1
  O2-  O169  1  0.67281484  0.62460659  0.49936575  1
  O2-  O170  1  0.60106774  0.64942487  0.77425948  1
  O2-  O171  1  0.89025959  0.16800472  -0.01268054  1
  O2-  O172  1  0.91093355  0.10573336  0.23978552  1
  O2-  O173  1  0.92002060  0.14201300  0.49458013  1
  O2-  O174  1  0.86220331  0.13700019  0.73563167  1
  O2-  O175  1  0.91864161  0.65988844  0.00313675  1
  O2-  O176  1  0.88047211  0.63204801  0.22295943  1
  O2-  O177  1  0.86177269  0.65514783  0.49551159  1
  O2-  O178  1  0.89543625  0.71782037  0.84110240  1
  O2-  O179  1  0.10948608  0.36847078  0.00650397  1
  O2-  O180  1  0.13618861  0.36266448  0.25791088  1
  O2-  O181  1  0.09871934  0.36205028  0.52403575  1
  O2-  O182  1  0.14329371  0.35120037  0.76408971  1
  O2-  O183  1  0.14284848  0.85101278  -0.01533264  1
  O2-  O184  1  0.09544857  0.83919541  0.23532088  1
  O2-  O185  1  0.13110319  0.85852002  0.50012314  1
  O2-  O186  1  0.12188048  0.85729208  0.75458982  1
  O2-  O187  1  0.35615238  0.35205463  0.00245446  1
  O2-  O188  1  0.31922935  0.38293996  0.25283611  1
  O2-  O189  1  0.35692761  0.35850962  0.49986511  1
  O2-  O190  1  0.32949483  0.38610782  0.75066532  1
  O2-  O191  1  0.36570121  0.84196156  -0.00265328  1
  O2-  O192  1  0.39874278  0.84627309  0.24828380  1
  O2-  O193  1  0.33772342  0.85690964  0.48748255  1
  O2-  O194  1  0.39677049  0.86017227  0.74230847  1
  O2-  O195  1  0.65794848  0.35507696  -0.02520088  1
  O2-  O196  1  0.61809458  0.35629898  0.24935847  1
  O2-  O197  1  0.57971364  0.36135628  0.50412253  1
  O2-  O198  1  0.65615231  0.35502300  0.75345887  1
  O2-  O199  1  0.59461566  0.86867446  -0.01251621  1
  O2-  O200  1  0.59600818  0.87345936  0.25063542  1
  O2-  O201  1  0.65545004  0.87078620  0.50125520  1
  O2-  O202  1  0.63013533  0.85253832  0.75469816  1
  O2-  O203  1  0.84058336  0.36457401  0.00719329  1
  O2-  O204  1  0.78023814  0.37982622  0.18084939  1
  O2-  O205  1  0.90917724  0.36879163  0.48674122  1
  O2-  O206  1  0.86215028  0.37397781  0.73174093  1
  O2-  O207  1  0.90168927  0.87571372  0.00601321  1
  O2-  O208  1  0.86911222  0.89705586  0.23550442  1
  O2-  O209  1  0.86819676  0.85787374  0.49651670  1
  O2-  O210  1  0.86826238  0.87862181  0.76077553  1
  O2-  O211  1  0.00628645  0.13514642  0.09535956  1
  O2-  O212  1  0.07555754  -0.00724963  0.14797422  1
  O2-  O213  1  -0.00563466  -0.14566628  0.37736065  1
  O2-  O214  1  -0.00260443  -0.11126898  0.61806655  1
  O2-  O215  1  -0.02608454  0.31598746  0.08921294  1
  O2-  O216  1  -0.03489047  0.38952380  0.22430835  1
  O2-  O217  1  0.01267859  0.62254381  0.54267251  1
  O2-  O218  1  -0.00566594  0.61137153  0.70043469  1
  O2-  O219  1  0.26747074  -0.04432352  -0.15400546  1
  O2-  O220  1  0.24961692  -0.09966729  0.31735280  1
  O2-  O221  1  0.24276120  -0.16376946  0.63302688  1
  O2-  O222  1  0.25794278  -0.19963365  0.86717112  1
  O2-  O223  1  0.26336202  0.42461011  -0.10565467  1
  O2-  O224  1  0.21349287  0.60696298  0.25411905  1
  O2-  O225  1  0.24188005  0.65387084  0.62838738  1
  O2-  O226  1  0.27255970  0.62174164  0.86566380  1
  O2-  O227  1  0.48517156  0.15651127  0.12550688  1
  O2-  O228  1  0.50127459  0.14774720  0.34036703  1
  O2-  O229  1  0.49386159  -0.15040748  0.40365718  1
  O2-  O230  1  0.49533193  0.11240103  0.65712880  1
  O2-  O231  1  0.49713236  0.37782531  -0.05400317  1
  O2-  O232  1  0.47967683  0.37641614  0.36362011  1
  O2-  O233  1  0.50728988  0.62635418  0.40258877  1
  O2-  O234  1  0.49518774  0.37442754  0.78555689  1
  O2-  O235  1  0.75334842  0.10694329  -0.10872367  1
  O2-  O236  1  0.71935193  -0.14156673  0.11469314  1
  O2-  O237  1  0.73420921  0.15419181  0.60000757  1
  O2-  O238  1  0.76763680  -0.08996285  0.90387571  1
  O2-  O239  1  0.76497275  0.59495824  -0.03186041  1
  O2-  O240  1  0.72757301  0.66274538  0.11645099  1
  O2-  O241  1  0.73877912  0.37454946  0.59507470  1
  O2-  O242  1  0.77082738  0.60843679  0.80384229  1
