# generated using pymatgen
data_Gd19Ta56(WO20)8
_symmetry_space_group_name_H-M   'P 1'
_cell_length_a   15.49304051
_cell_length_b   15.52894714
_cell_length_c   15.31778687
_cell_angle_alpha   89.97635029
_cell_angle_beta   89.88942044
_cell_angle_gamma   90.00168241
_symmetry_Int_Tables_number   1
_chemical_formula_structural   Gd19Ta56(WO20)8
_chemical_formula_sum   'Gd19 Ta56 W8 O160'
_cell_volume   3685.30846410
_cell_formula_units_Z   1
loop_
 _symmetry_equiv_pos_site_id
 _symmetry_equiv_pos_as_xyz
  1  'x, y, z'
loop_
 _atom_type_symbol
 _atom_type_oxidation_number
  Gd3+  3.0
  Ta5+  5.0
  W6+  6.0
  O2-  -2.0
loop_
 _atom_site_type_symbol
 _atom_site_label
 _atom_site_symmetry_multiplicity
 _atom_site_fract_x
 _atom_site_fract_y
 _atom_site_fract_z
 _atom_site_occupancy
  Gd3+  Gd0  1  0.24254879  0.23354228  0.23484744  1
  Gd3+  Gd1  1  0.24133982  0.75213623  0.26617331  1
  Gd3+  Gd2  1  0.49511189  0.25024818  0.24156855  1
  Gd3+  Gd3  1  0.74637786  0.75056228  -0.00129756  1
  Gd3+  Gd4  1  0.24793894  0.74832267  0.49829089  1
  Gd3+  Gd5  1  0.01054322  0.24514687  0.00580088  1
  Gd3+  Gd6  1  0.73324794  0.25417084  0.74355989  1
  Gd3+  Gd7  1  0.25195570  0.74937030  0.74210465  1
  Gd3+  Gd8  1  0.49946142  0.76552815  0.02205230  1
  Gd3+  Gd9  1  -0.00807529  0.23218844  0.49821303  1
  Gd3+  Gd10  1  -0.00153351  0.24433367  0.25847675  1
  Gd3+  Gd11  1  0.74689389  0.74145012  0.50707187  1
  Gd3+  Gd12  1  0.51274953  0.74896826  0.75280603  1
  Gd3+  Gd13  1  0.49056245  0.74951300  0.50351418  1
  Gd3+  Gd14  1  -0.02259447  0.75298551  0.19738090  1
  Gd3+  Gd15  1  0.75774642  0.74958587  0.75617679  1
  Gd3+  Gd16  1  0.25429430  0.27025386  0.51131379  1
  Gd3+  Gd17  1  -0.00166039  0.73816436  0.76191308  1
  Gd3+  Gd18  1  -0.02080713  0.24272616  0.76048339  1
  Ta5+  Ta19  1  0.10768965  0.88427769  0.38539909  1
  Ta5+  Ta20  1  0.81992490  0.61792212  0.13855583  1
  Ta5+  Ta21  1  0.87073084  0.87545202  0.36606616  1
  Ta5+  Ta22  1  0.86659727  0.38674721  0.38103607  1
  Ta5+  Ta23  1  0.88605323  0.61783399  0.89373295  1
  Ta5+  Ta24  1  0.65218621  0.62551031  0.14371395  1
  Ta5+  Ta25  1  0.11488976  0.88596002  0.61508908  1
  Ta5+  Ta26  1  0.15364649  0.11617735  0.38797170  1
  Ta5+  Ta27  1  0.33387507  0.86509078  0.11685465  1
  Ta5+  Ta28  1  0.60795969  0.61300537  0.38783658  1
  Ta5+  Ta29  1  0.61975164  0.87940911  0.38727916  1
  Ta5+  Ta30  1  0.57665596  0.13532795  0.64571774  1
  Ta5+  Ta31  1  0.63256599  0.12768771  0.89458427  1
  Ta5+  Ta32  1  0.41396609  0.14080957  0.60816565  1
  Ta5+  Ta33  1  0.10268507  0.62226112  0.38194068  1
  Ta5+  Ta34  1  0.13509407  0.38092729  0.87718939  1
  Ta5+  Ta35  1  0.86503355  0.11639451  0.89029855  1
  Ta5+  Ta36  1  0.13534267  0.62882256  0.88840499  1
  Ta5+  Ta37  1  0.58214475  0.36588516  0.63458105  1
  Ta5+  Ta38  1  0.40149563  0.60249514  0.62534841  1
  Ta5+  Ta39  1  0.12426786  0.10857495  0.12021230  1
  Ta5+  Ta40  1  0.65124169  0.87658065  0.14265522  1
  Ta5+  Ta41  1  0.33588690  0.63326971  0.11535341  1
  Ta5+  Ta42  1  0.61875284  0.60638670  0.62737802  1
  Ta5+  Ta43  1  0.13167555  0.12893925  0.64975775  1
  Ta5+  Ta44  1  0.63532720  0.37447522  0.88955236  1
  Ta5+  Ta45  1  0.37258633  0.10973757  0.11714158  1
  Ta5+  Ta46  1  0.14594699  0.38592992  0.12174377  1
  Ta5+  Ta47  1  0.37179329  0.37925562  0.36725844  1
  Ta5+  Ta48  1  0.16902275  0.62276437  0.13512143  1
  Ta5+  Ta49  1  0.35158453  0.38457539  0.11099814  1
  Ta5+  Ta50  1  0.37661790  0.36478711  0.86947008  1
  Ta5+  Ta51  1  0.36280163  0.12251401  0.37505866  1
  Ta5+  Ta52  1  0.07369426  0.38048480  0.63443761  1
  Ta5+  Ta53  1  0.39665077  0.89622985  0.62623191  1
  Ta5+  Ta54  1  0.63863945  0.12717543  0.13520119  1
  Ta5+  Ta55  1  0.12402487  0.38229349  0.37862333  1
  Ta5+  Ta56  1  0.37112915  0.61803660  0.37074313  1
  Ta5+  Ta57  1  0.60932936  0.89579715  0.62663755  1
  Ta5+  Ta58  1  0.38086716  0.87761929  0.86574723  1
  Ta5+  Ta59  1  0.62038747  0.36976053  0.38496883  1
  Ta5+  Ta60  1  0.62077606  0.61726948  0.88353828  1
  Ta5+  Ta61  1  0.63026580  0.88935498  0.87970059  1
  Ta5+  Ta62  1  0.87528734  0.62068452  0.62355506  1
  Ta5+  Ta63  1  0.89923870  0.63341939  0.37491328  1
  Ta5+  Ta64  1  0.87178690  0.38316517  0.88784303  1
  Ta5+  Ta65  1  0.13215804  0.12027923  0.85553803  1
  Ta5+  Ta66  1  0.37618901  0.88101812  0.37083321  1
  Ta5+  Ta67  1  0.81973899  0.87943923  0.12937210  1
  Ta5+  Ta68  1  0.37521219  0.61709765  0.86888898  1
  Ta5+  Ta69  1  0.88140176  0.88396648  0.88202716  1
  Ta5+  Ta70  1  0.90610364  0.87961791  0.60782510  1
  Ta5+  Ta71  1  0.86016343  0.37624227  0.13193373  1
  Ta5+  Ta72  1  0.41665640  0.35989296  0.62310900  1
  Ta5+  Ta73  1  0.16513655  0.87215194  0.12828922  1
  Ta5+  Ta74  1  0.13114278  0.87431266  0.88047342  1
  W6+  W75  1  0.90929933  0.37508978  0.62873781  1
  W6+  W76  1  0.86606830  0.11161188  0.62274880  1
  W6+  W77  1  0.12651838  0.62357812  0.61664708  1
  W6+  W78  1  0.84421739  0.12128835  0.37696234  1
  W6+  W79  1  0.60981441  0.37836829  0.12511010  1
  W6+  W80  1  0.43352816  0.12252162  0.86720563  1
  W6+  W81  1  0.60216814  0.13161708  0.39420226  1
  W6+  W82  1  0.88515397  0.11718591  0.13818906  1
  O2-  O83  1  0.11457183  -0.00855251  0.12907395  1
  O2-  O84  1  0.09605151  0.00746538  0.38878268  1
  O2-  O85  1  0.14250882  0.00085371  0.63697504  1
  O2-  O86  1  0.13458083  -0.00326614  0.87108867  1
  O2-  O87  1  0.12029713  0.50231861  0.13497562  1
  O2-  O88  1  0.08510785  0.49770753  0.38558615  1
  O2-  O89  1  0.09544734  0.49525011  0.61853926  1
  O2-  O90  1  0.14240536  0.50463150  0.87916871  1
  O2-  O91  1  0.36269500  -0.00984498  0.11622550  1
  O2-  O92  1  0.38593704  0.00016781  0.38794980  1
  O2-  O93  1  0.38410859  0.01400734  0.61127565  1
  O2-  O94  1  0.40166990  -0.00632124  0.86477117  1
  O2-  O95  1  0.36164645  0.50521241  0.11666253  1
  O2-  O96  1  0.39050925  0.49967724  0.38966704  1
  O2-  O97  1  0.39277168  0.48562755  0.60610420  1
  O2-  O98  1  0.37613651  0.49768317  0.87559070  1
  O2-  O99  1  0.63958357  0.00040743  0.14342795  1
  O2-  O100  1  0.61383098  -0.00367096  0.38806022  1
  O2-  O101  1  0.62188127  0.01022581  0.65240862  1
  O2-  O102  1  0.59807408  0.00421837  0.86764747  1
  O2-  O103  1  0.63235054  0.50845752  0.13945679  1
  O2-  O104  1  0.58929655  0.49246340  0.37956940  1
  O2-  O105  1  0.62629076  0.48937425  0.64782830  1
  O2-  O106  1  0.61205825  0.49948240  0.86749597  1
  O2-  O107  1  0.84227976  -0.00563340  0.14283225  1
  O2-  O108  1  0.82789625  -0.01465197  0.35579867  1
  O2-  O109  1  0.84902340  -0.02260652  0.64003708  1
  O2-  O110  1  0.90760854  0.00410379  0.86340644  1
  O2-  O111  1  0.86157735  0.49607445  0.14135325  1
  O2-  O112  1  0.87854236  0.50950800  0.37216526  1
  O2-  O113  1  0.88184671  0.50682273  0.64287898  1
  O2-  O114  1  0.91581923  0.49473238  0.86905019  1
  O2-  O115  1  0.11735792  0.25684902  0.12511601  1
  O2-  O116  1  0.14817243  0.24603073  0.37355718  1
  O2-  O117  1  0.10047601  0.25138636  0.65866954  1
  O2-  O118  1  0.09380678  0.24859996  0.86962950  1
  O2-  O119  1  0.12272403  0.74857609  0.15804228  1
  O2-  O120  1  0.14536362  0.75327739  0.38540181  1
  O2-  O121  1  0.15972994  0.76205303  0.61512395  1
  O2-  O122  1  0.18143073  0.75015685  0.87716475  1
  O2-  O123  1  0.36530793  0.25420738  0.14291551  1
  O2-  O124  1  0.34516573  0.25045516  0.34577015  1
  O2-  O125  1  0.34751495  0.24618320  0.63053980  1
  O2-  O126  1  0.41146983  0.25061096  0.86707111  1
  O2-  O127  1  0.40007386  0.74919138  0.12791393  1
  O2-  O128  1  0.34344509  0.75083730  0.37695312  1
  O2-  O129  1  0.40771518  0.74979244  0.63803816  1
  O2-  O130  1  0.37394571  0.74753712  0.83025913  1
  O2-  O131  1  0.57886324  0.24352341  0.12358901  1
  O2-  O132  1  0.55537718  0.26351870  0.38327698  1
  O2-  O133  1  0.63398491  0.24888702  0.63361600  1
  O2-  O134  1  0.67389914  0.25048825  0.89797718  1
  O2-  O135  1  0.60579622  0.74991431  0.12903321  1
  O2-  O136  1  0.62268892  0.74715875  0.42308850  1
  O2-  O137  1  0.59876440  0.74951850  0.61605660  1
  O2-  O138  1  0.65645945  0.75130189  0.88029575  1
  O2-  O139  1  0.92559420  0.25592312  0.13188216  1
  O2-  O140  1  0.90335546  0.25592991  0.38055612  1
  O2-  O141  1  0.91684149  0.23722663  0.62128202  1
  O2-  O142  1  0.90519997  0.25100672  0.89499643  1
  O2-  O143  1  0.85611176  0.74159669  0.10815901  1
  O2-  O144  1  0.83651460  0.74577737  0.38789275  1
  O2-  O145  1  0.84947534  0.76787114  0.62024149  1
  O2-  O146  1  0.84984686  0.74544052  0.89325054  1
  O2-  O147  1  0.11397286  0.13082766  -0.00680897  1
  O2-  O148  1  0.10668832  0.13712482  0.24832412  1
  O2-  O149  1  0.10868676  0.14138106  0.52212435  1
  O2-  O150  1  0.04641431  0.11083430  0.75835121  1
  O2-  O151  1  0.14600091  0.63543254  0.00983636  1
  O2-  O152  1  0.16930077  0.61944315  0.27205871  1
  O2-  O153  1  0.17515349  0.61681370  0.48572733  1
  O2-  O154  1  0.12203772  0.65182429  0.75465682  1
  O2-  O155  1  0.40888592  0.12672556  0.00488021  1
  O2-  O156  1  0.41404364  0.12184952  0.24204288  1
  O2-  O157  1  0.41618441  0.15460940  0.48372946  1
  O2-  O158  1  0.46881387  0.12707071  0.72887370  1
  O2-  O159  1  0.34779967  0.64633953  -0.01487308  1
  O2-  O160  1  0.35166612  0.62802130  0.25039044  1
  O2-  O161  1  0.36022162  0.64347353  0.50746331  1
  O2-  O162  1  0.33192443  0.61327812  0.73383712  1
  O2-  O163  1  0.59795356  0.11477494  0.01322037  1
  O2-  O164  1  0.60107544  0.13909628  0.25436896  1
  O2-  O165  1  0.57940096  0.12140461  0.52581965  1
  O2-  O166  1  0.64446446  0.14316454  0.76757367  1
  O2-  O167  1  0.64706720  0.63086915  0.00555335  1
  O2-  O168  1  0.65476011  0.63646644  0.27937489  1
  O2-  O169  1  0.67348824  0.60680183  0.49627996  1
  O2-  O170  1  0.64358871  0.64429944  0.75922651  1
  O2-  O171  1  0.91956998  0.12244910  0.00111941  1
  O2-  O172  1  0.91672163  0.12182670  0.27024701  1
  O2-  O173  1  0.91045482  0.10916985  0.48855267  1
  O2-  O174  1  0.84832065  0.15167326  0.76622274  1
  O2-  O175  1  0.83028355  0.60520462  0.00021065  1
  O2-  O176  1  0.84497718  0.64141806  0.25714131  1
  O2-  O177  1  0.84973080  0.62502281  0.50170194  1
  O2-  O178  1  0.87452522  0.64769151  0.76138878  1
  O2-  O179  1  0.08512704  0.37530554  -0.00649574  1
  O2-  O180  1  0.08861381  0.36643313  0.25784070  1
  O2-  O181  1  0.11431393  0.34682444  0.50787695  1
  O2-  O182  1  0.07178262  0.38345583  0.77013971  1
  O2-  O183  1  0.15208118  0.86710917  0.00206510  1
  O2-  O184  1  0.15909147  0.88283252  0.27254797  1
  O2-  O185  1  0.17627586  0.88310045  0.49568715  1
  O2-  O186  1  0.15218396  0.86124196  0.75120566  1
  O2-  O187  1  0.40011311  0.37055040  -0.00269480  1
  O2-  O188  1  0.41550624  0.38196520  0.24796666  1
  O2-  O189  1  0.38499711  0.34362431  0.49033612  1
  O2-  O190  1  0.41472292  0.37922557  0.75134354  1
  O2-  O191  1  0.36079623  0.85120441  -0.01440393  1
  O2-  O192  1  0.34780445  0.87296793  0.25144250  1
  O2-  O193  1  0.35638381  0.85678561  0.50726630  1
  O2-  O194  1  0.33023207  0.88074804  0.73605571  1
  O2-  O195  1  0.57769003  0.37782954  -0.00592268  1
  O2-  O196  1  0.61328931  0.36203395  0.26060747  1
  O2-  O197  1  0.59434741  0.37626755  0.51119172  1
  O2-  O198  1  0.61603264  0.35096466  0.76660752  1
  O2-  O199  1  0.62172070  0.86970913  0.00713510  1
  O2-  O200  1  0.66156871  0.85765503  0.27566534  1
  O2-  O201  1  0.67471372  0.87885366  0.51456501  1
  O2-  O202  1  0.65003881  0.85511194  0.74498496  1
  O2-  O203  1  0.90584033  0.37531913  0.01154830  1
  O2-  O204  1  0.89564217  0.36774825  0.25806467  1
  O2-  O205  1  0.92768548  0.38145788  0.48712473  1
  O2-  O206  1  0.85989838  0.34925140  0.76478776  1
  O2-  O207  1  0.86215984  0.87613086  0.00557802  1
  O2-  O208  1  0.86429549  0.83932717  0.24434233  1
  O2-  O209  1  0.85567094  0.87146257  0.49209969  1
  O2-  O210  1  0.87036523  0.84775044  0.76064460  1
  O2-  O211  1  0.00883930  -0.15090260  -0.12088062  1
  O2-  O212  1  -0.00626549  -0.15090999  0.35030746  1
  O2-  O213  1  0.01681581  -0.10429746  0.53122138  1
  O2-  O214  1  0.00921155  -0.14159452  0.68138092  1
  O2-  O215  1  0.00877753  0.64952835  -0.10841211  1
  O2-  O216  1  0.00166768  0.64990008  0.29437756  1
  O2-  O217  1  0.00177518  0.65277199  0.45099253  1
  O2-  O218  1  -0.00892576  0.66349315  0.63418169  1
  O2-  O219  1  0.24905057  0.12867384  0.12089066  1
  O2-  O220  1  0.25218291  0.09784912  0.30704471  1
  O2-  O221  1  0.25842187  0.13208085  0.46083569  1
  O2-  O222  1  0.20717973  0.13740977  0.75888855  1
  O2-  O223  1  0.24161597  0.38286600  0.04163982  1
  O2-  O224  1  0.24662239  0.37650376  0.20064537  1
  O2-  O225  1  0.24680050  0.38866223  0.39036181  1
  O2-  O226  1  0.25226632  0.35381030  0.85900170  1
  O2-  O227  1  0.50520915  -0.15953890  -0.11850147  1
  O2-  O228  1  0.49848667  -0.14857298  0.37324079  1
  O2-  O229  1  0.50938314  -0.10819581  0.54717146  1
  O2-  O230  1  0.49725952  -0.11151482  0.70540860  1
  O2-  O231  1  0.49928106  0.65249123  -0.10887197  1
  O2-  O232  1  0.49140677  0.65537819  0.37405478  1
  O2-  O233  1  0.51887470  0.60963883  0.54359841  1
  O2-  O234  1  0.50325705  0.60972150  0.70158957  1
  O2-  O235  1  0.75242502  0.09301445  -0.08111059  1
  O2-  O236  1  0.75262176  0.15406404  0.12822074  1
  O2-  O237  1  0.73210226  0.16099219  0.39963285  1
  O2-  O238  1  0.75235877  -0.10057690  0.88060511  1
  O2-  O239  1  0.75550780  0.40454142  -0.09124639  1
  O2-  O240  1  0.74764783  0.35153061  0.12102960  1
  O2-  O241  1  0.74602013  0.37322376  0.39391897  1
  O2-  O242  1  0.74543895  0.64702123  0.63759799  1
