# generated using pymatgen
data_Gd19Ta56(WO20)8
_symmetry_space_group_name_H-M   'P 1'
_cell_length_a   15.53476333
_cell_length_b   15.53868781
_cell_length_c   15.13757219
_cell_angle_alpha   89.80153103
_cell_angle_beta   90.06125337
_cell_angle_gamma   89.67027483
_symmetry_Int_Tables_number   1
_chemical_formula_structural   Gd19Ta56(WO20)8
_chemical_formula_sum   'Gd19 Ta56 W8 O160'
_cell_volume   3653.97149638
_cell_formula_units_Z   1
loop_
 _symmetry_equiv_pos_site_id
 _symmetry_equiv_pos_as_xyz
  1  'x, y, z'
loop_
 _atom_type_symbol
 _atom_type_oxidation_number
  Gd3+  3.0
  Ta5+  5.0
  W6+  6.0
  O2-  -2.0
loop_
 _atom_site_type_symbol
 _atom_site_label
 _atom_site_symmetry_multiplicity
 _atom_site_fract_x
 _atom_site_fract_y
 _atom_site_fract_z
 _atom_site_occupancy
  Gd3+  Gd0  1  0.02784107  0.74926923  0.02002508  1
  Gd3+  Gd1  1  0.25129670  0.74829312  0.50622263  1
  Gd3+  Gd2  1  0.01036543  0.25484323  0.25513579  1
  Gd3+  Gd3  1  0.26715753  0.25491835  0.74162365  1
  Gd3+  Gd4  1  0.01956884  0.25141992  -0.01287870  1
  Gd3+  Gd5  1  0.49031962  0.20907617  0.76583348  1
  Gd3+  Gd6  1  0.46410997  0.76216076  -0.01707267  1
  Gd3+  Gd7  1  0.74204939  0.25118767  0.25185927  1
  Gd3+  Gd8  1  0.78626736  0.24111797  -0.00126593  1
  Gd3+  Gd9  1  0.00532971  0.24440391  0.49884649  1
  Gd3+  Gd10  1  0.25249455  0.73835830  0.73864648  1
  Gd3+  Gd11  1  0.47058642  0.74690700  0.25021059  1
  Gd3+  Gd12  1  0.02732627  0.23353638  0.74830753  1
  Gd3+  Gd13  1  0.52580816  0.71840627  0.49592547  1
  Gd3+  Gd14  1  0.46970226  0.25469811  0.26885620  1
  Gd3+  Gd15  1  0.23228971  0.74508959  0.27751009  1
  Gd3+  Gd16  1  0.47825835  0.24949232  0.50915685  1
  Gd3+  Gd17  1  0.52150723  0.23014092  0.00849840  1
  Gd3+  Gd18  1  0.76304457  0.74174866  0.71654907  1
  Ta5+  Ta19  1  0.38480142  0.60336854  0.63546994  1
  Ta5+  Ta20  1  0.87573260  0.12532992  0.61579886  1
  Ta5+  Ta21  1  0.85509513  0.38799060  0.35571022  1
  Ta5+  Ta22  1  0.38013219  0.10049687  0.14622396  1
  Ta5+  Ta23  1  0.62743872  0.37957207  0.63357036  1
  Ta5+  Ta24  1  0.32121537  0.87325739  0.87474081  1
  Ta5+  Ta25  1  0.14440167  0.11698987  0.13077356  1
  Ta5+  Ta26  1  0.15316672  0.86877668  0.87669974  1
  Ta5+  Ta27  1  0.33170792  0.86426891  0.12683829  1
  Ta5+  Ta28  1  0.62373012  0.63965659  0.90446725  1
  Ta5+  Ta29  1  0.65436354  0.07563780  0.87703274  1
  Ta5+  Ta30  1  0.65665148  0.39578422  0.12907417  1
  Ta5+  Ta31  1  0.61808452  0.61245498  0.35029145  1
  Ta5+  Ta32  1  0.90995746  0.62903399  0.59874051  1
  Ta5+  Ta33  1  0.58040307  0.87969874  0.11298886  1
  Ta5+  Ta34  1  0.89671183  0.10907338  0.87166742  1
  Ta5+  Ta35  1  0.86860757  0.63289822  0.35834493  1
  Ta5+  Ta36  1  0.36753038  0.60656220  0.37767652  1
  Ta5+  Ta37  1  0.15488031  0.12572832  0.38695745  1
  Ta5+  Ta38  1  0.31682525  0.38111556  0.55927769  1
  Ta5+  Ta39  1  0.10743802  0.88676036  0.38658159  1
  Ta5+  Ta40  1  0.62202501  0.11885643  0.37900764  1
  Ta5+  Ta41  1  0.39558341  0.88220321  0.63829555  1
  Ta5+  Ta42  1  0.67562196  0.10530308  0.13159190  1
  Ta5+  Ta43  1  0.33040809  0.62205407  0.11027632  1
  Ta5+  Ta44  1  0.85889038  0.88321147  0.13043882  1
  Ta5+  Ta45  1  0.14683367  0.37514681  0.38148896  1
  Ta5+  Ta46  1  0.15101264  0.41333670  0.12516484  1
  Ta5+  Ta47  1  0.58776322  0.61023583  0.67575551  1
  Ta5+  Ta48  1  0.14156032  0.38552432  0.87004801  1
  Ta5+  Ta49  1  0.10210652  0.88071888  0.62767906  1
  Ta5+  Ta50  1  0.87016481  0.39730164  0.12695926  1
  Ta5+  Ta51  1  0.16400414  0.87194160  0.13065354  1
  Ta5+  Ta52  1  0.14869752  0.37838051  0.59932847  1
  Ta5+  Ta53  1  0.31447285  0.37227841  0.38416868  1
  Ta5+  Ta54  1  0.39277230  0.36489979  0.88782407  1
  Ta5+  Ta55  1  0.60136711  0.88206338  0.62914589  1
  Ta5+  Ta56  1  0.36654619  0.88663728  0.39024882  1
  Ta5+  Ta57  1  0.88436857  0.38404351  0.61000594  1
  Ta5+  Ta58  1  0.35552636  0.40873137  0.12589997  1
  Ta5+  Ta59  1  0.32078073  0.12570927  0.38852099  1
  Ta5+  Ta60  1  0.85655408  0.11900072  0.36096067  1
  Ta5+  Ta61  1  0.90153278  0.87869979  0.61881247  1
  Ta5+  Ta62  1  0.63938522  0.38849799  0.88652806  1
  Ta5+  Ta63  1  0.88700760  0.38329466  0.86144578  1
  Ta5+  Ta64  1  0.61759964  0.37451706  0.37811140  1
  Ta5+  Ta65  1  0.13030918  0.63318879  0.87833960  1
  Ta5+  Ta66  1  0.16254310  0.11735489  0.60615388  1
  Ta5+  Ta67  1  0.89327219  0.11682284  0.13616172  1
  Ta5+  Ta68  1  0.33324877  0.11780569  0.59468720  1
  Ta5+  Ta69  1  0.16417660  0.62049285  0.13681402  1
  Ta5+  Ta70  1  0.60236793  0.87984679  0.37427408  1
  Ta5+  Ta71  1  0.86377725  0.87591872  0.37689643  1
  Ta5+  Ta72  1  0.15467228  0.11196454  0.88259248  1
  Ta5+  Ta73  1  0.35312999  0.09104210  0.92132283  1
  Ta5+  Ta74  1  0.63745984  0.64165747  0.11322320  1
  W6+  W75  1  0.10051127  0.61735797  0.39814296  1
  W6+  W76  1  0.88342062  0.62732877  0.85418091  1
  W6+  W77  1  0.87389307  0.64722541  0.11209809  1
  W6+  W78  1  0.11008724  0.62130947  0.61827335  1
  W6+  W79  1  0.62296600  0.13279136  0.63406632  1
  W6+  W80  1  0.82233886  0.87426836  0.87505845  1
  W6+  W81  1  0.57866160  0.89135663  0.84845496  1
  W6+  W82  1  0.39443369  0.61319263  0.86159296  1
  O2-  O83  1  0.13625891  0.00050056  0.13243915  1
  O2-  O84  1  0.12679515  0.00708629  0.37082957  1
  O2-  O85  1  0.14563070  -0.00348599  0.62391233  1
  O2-  O86  1  0.13884109  -0.00607515  0.86351783  1
  O2-  O87  1  0.08570799  0.51550764  0.12328905  1
  O2-  O88  1  0.12321640  0.49148407  0.37983144  1
  O2-  O89  1  0.12451903  0.49292309  0.62065898  1
  O2-  O90  1  0.14301221  0.50515708  0.88414935  1
  O2-  O91  1  0.37099658  -0.01808447  0.15743161  1
  O2-  O92  1  0.32218232  -0.00273277  0.37560646  1
  O2-  O93  1  0.38126992  -0.00176484  0.61901178  1
  O2-  O94  1  0.36954689  -0.00644300  0.85419279  1
  O2-  O95  1  0.41027981  0.51725661  0.12787709  1
  O2-  O96  1  0.33602275  0.49538149  0.35470292  1
  O2-  O97  1  0.35480658  0.48878534  0.61593363  1
  O2-  O98  1  0.41124725  0.47776266  0.87285985  1
  O2-  O99  1  0.63161388  -0.00564766  0.12585364  1
  O2-  O100  1  0.64086493  -0.00104786  0.36137641  1
  O2-  O101  1  0.62010080  -0.00330290  0.62557499  1
  O2-  O102  1  0.70681680  -0.03455628  0.87512892  1
  O2-  O103  1  0.63548726  0.51300851  0.12548926  1
  O2-  O104  1  0.63420101  0.49136698  0.34156412  1
  O2-  O105  1  0.63981976  0.50618927  0.63742870  1
  O2-  O106  1  0.63774561  0.50506561  0.90326726  1
  O2-  O107  1  0.91650145  -0.00588292  0.13106389  1
  O2-  O108  1  0.83582975  0.00229730  0.36774557  1
  O2-  O109  1  0.87401905  0.00820634  0.60995086  1
  O2-  O110  1  0.88732220  -0.00771359  0.88185144  1
  O2-  O111  1  0.87474285  0.51207839  0.11181384  1
  O2-  O112  1  0.83704727  0.50538268  0.35700540  1
  O2-  O113  1  0.91568216  0.49708671  0.60537843  1
  O2-  O114  1  0.86497323  0.49841528  0.88618899  1
  O2-  O115  1  0.01980841  0.17147187  0.12848195  1
  O2-  O116  1  0.09475432  0.24894599  0.37806812  1
  O2-  O117  1  0.10750281  0.24687460  0.61501530  1
  O2-  O118  1  0.11785599  0.25582530  0.87108904  1
  O2-  O119  1  0.12764097  0.74775679  0.14527948  1
  O2-  O120  1  0.13456937  0.75572409  0.39154924  1
  O2-  O121  1  0.15886047  0.75817057  0.61682654  1
  O2-  O122  1  0.08368473  0.75284435  0.87925987  1
  O2-  O123  1  0.45796617  0.20592640  0.13422399  1
  O2-  O124  1  0.36936892  0.25016495  0.38134643  1
  O2-  O125  1  0.34685583  0.25899303  0.59012674  1
  O2-  O126  1  0.42282649  0.20301928  0.90266206  1
  O2-  O127  1  0.38612936  0.74153397  0.11535543  1
  O2-  O128  1  0.40424072  0.74982093  0.39593151  1
  O2-  O129  1  0.36127107  0.73752764  0.63100148  1
  O2-  O130  1  0.36769971  0.75203579  0.86062576  1
  O2-  O131  1  0.67740091  0.23565046  0.11155922  1
  O2-  O132  1  0.57167623  0.25074989  0.38123844  1
  O2-  O133  1  0.56378659  0.27047463  0.64032959  1
  O2-  O134  1  0.52796946  0.32614624  0.87922044  1
  O2-  O135  1  0.56860109  0.74730699  0.10461975  1
  O2-  O136  1  0.58439321  0.75441515  0.35814746  1
  O2-  O137  1  0.61886789  0.72087834  0.62898177  1
  O2-  O138  1  0.59247136  0.75712948  0.88758574  1
  O2-  O139  1  0.86106245  0.24710447  0.14398495  1
  O2-  O140  1  0.87585044  0.25323547  0.33409973  1
  O2-  O141  1  0.91914008  0.25581056  0.62482672  1
  O2-  O142  1  0.91124178  0.25231755  0.87131004  1
  O2-  O143  1  0.92286655  0.78032355  0.12770773  1
  O2-  O144  1  0.84283229  0.75647486  0.37385448  1
  O2-  O145  1  0.86565920  0.75342907  0.60662496  1
  O2-  O146  1  0.82159432  0.74422365  0.85384192  1
  O2-  O147  1  0.12808993  0.15313267  0.00661882  1
  O2-  O148  1  0.13711628  0.15158029  0.25232539  1
  O2-  O149  1  0.08239644  0.11941932  0.49933710  1
  O2-  O150  1  0.15013828  0.14231462  0.74308676  1
  O2-  O151  1  0.13706831  0.64421893  0.00744989  1
  O2-  O152  1  0.16023512  0.62021975  0.26691508  1
  O2-  O153  1  0.18089815  0.62054536  0.50465940  1
  O2-  O154  1  0.15012074  0.63508382  0.75466015  1
  O2-  O155  1  0.42895991  0.08558254  0.02436198  1
  O2-  O156  1  0.40043898  0.12223722  0.27055674  1
  O2-  O157  1  0.41237413  0.12079104  0.48784659  1
  O2-  O158  1  0.36766525  0.14691918  0.71441598  1
  O2-  O159  1  0.33604142  0.62296151  -0.01314370  1
  O2-  O160  1  0.35220704  0.64778087  0.25270910  1
  O2-  O161  1  0.35578485  0.62386462  0.50319863  1
  O2-  O162  1  0.32022268  0.60657437  0.74540654  1
  O2-  O163  1  0.62638757  0.11975885  -0.00373501  1
  O2-  O164  1  0.61574893  0.14454683  0.24585017  1
  O2-  O165  1  0.59183833  0.12747944  0.49741132  1
  O2-  O166  1  0.63254534  0.15378713  0.78003059  1
  O2-  O167  1  0.70121125  0.64851804  0.00327173  1
  O2-  O168  1  0.65234416  0.65695066  0.23660096  1
  O2-  O169  1  0.65086705  0.63562747  0.46301366  1
  O2-  O170  1  0.66136688  0.63199101  0.78001537  1
  O2-  O171  1  0.91534285  0.14360912  0.00368522  1
  O2-  O172  1  0.94207221  0.11638170  0.26519978  1
  O2-  O173  1  0.88618869  0.14132826  0.48246544  1
  O2-  O174  1  0.90354094  0.12944942  0.74342677  1
  O2-  O175  1  0.92290717  0.65560653  -0.01424957  1
  O2-  O176  1  0.82758978  0.64016411  0.23975248  1
  O2-  O177  1  0.84805382  0.62043423  0.48600865  1
  O2-  O178  1  0.84310804  0.61713760  0.71115404  1
  O2-  O179  1  0.11125487  0.37069864  0.01019421  1
  O2-  O180  1  0.12315530  0.36155772  0.23669802  1
  O2-  O181  1  0.07080071  0.37303794  0.49578991  1
  O2-  O182  1  0.15698432  0.36421629  0.74211773  1
  O2-  O183  1  0.13142902  0.86473571  0.00661940  1
  O2-  O184  1  0.15770269  0.87526946  0.26967215  1
  O2-  O185  1  0.16366313  0.88359915  0.49809358  1
  O2-  O186  1  0.14624088  0.85298179  0.74733841  1
  O2-  O187  1  0.41096387  0.35516417  0.02263585  1
  O2-  O188  1  0.37953787  0.36758092  0.24169972  1
  O2-  O189  1  0.42201060  0.38230295  0.47536017  1
  O2-  O190  1  0.39486852  0.32106030  0.76894675  1
  O2-  O191  1  0.35322876  0.87237921  -0.00104196  1
  O2-  O192  1  0.35541607  0.84469708  0.26453220  1
  O2-  O193  1  0.34048229  0.87005820  0.51421037  1
  O2-  O194  1  0.32103508  0.87270021  0.73722011  1
  O2-  O195  1  0.59858868  0.36188217  0.02301123  1
  O2-  O196  1  0.60319985  0.34581386  0.23695712  1
  O2-  O197  1  0.61181291  0.38049900  0.50229918  1
  O2-  O198  1  0.64224514  0.37874984  0.76212650  1
  O2-  O199  1  0.54276049  0.89064088  -0.00751444  1
  O2-  O200  1  0.56096465  0.87094276  0.23871870  1
  O2-  O201  1  0.63981518  0.86147710  0.49372928  1
  O2-  O202  1  0.65931396  0.85166560  0.73498025  1
  O2-  O203  1  0.91171265  0.35544256  0.01069139  1
  O2-  O204  1  0.93235502  0.38619303  0.24533269  1
  O2-  O205  1  0.88738845  0.36708513  0.47599350  1
  O2-  O206  1  0.86299204  0.37970770  0.73942214  1
  O2-  O207  1  0.80289816  0.88067515  0.02341443  1
  O2-  O208  1  0.81354403  0.88166005  0.24669074  1
  O2-  O209  1  0.84425660  0.88821666  0.49780524  1
  O2-  O210  1  0.83855005  0.86865268  0.72924390  1
  O2-  O211  1  0.02498865  0.12467054  -0.13323524  1
  O2-  O212  1  -0.01550538  -0.11601515  0.36418696  1
  O2-  O213  1  0.00707418  -0.15327656  0.54782930  1
  O2-  O214  1  -0.00024372  -0.08333925  0.69020156  1
  O2-  O215  1  0.01088024  0.38647816  -0.14824374  1
  O2-  O216  1  -0.01644364  0.63070166  0.33425098  1
  O2-  O217  1  0.01742539  0.62547683  0.51665464  1
  O2-  O218  1  0.00386897  0.66400948  0.67545191  1
  O2-  O219  1  0.25059070  0.05697659  -0.02412059  1
  O2-  O220  1  0.26660158  0.14205514  0.13206064  1
  O2-  O221  1  0.23929497  0.15722738  0.49579188  1
  O2-  O222  1  0.26668118  0.17002388  0.86277389  1
  O2-  O223  1  0.25015230  0.50027821  0.13240397  1
  O2-  O224  1  0.25446412  0.33929027  0.10587089  1
  O2-  O225  1  0.22204369  0.32721787  0.48323474  1
  O2-  O226  1  0.26747512  0.36020968  0.88915806  1
  O2-  O227  1  0.54753409  0.02612425  -0.14677571  1
  O2-  O228  1  0.48794392  -0.08771378  0.39558180  1
  O2-  O229  1  0.49657147  -0.16134699  0.56733138  1
  O2-  O230  1  0.50013308  -0.11279169  0.71868665  1
  O2-  O231  1  0.50954331  0.62227564  -0.05322938  1
  O2-  O232  1  0.49510643  0.60608656  0.35827920  1
  O2-  O233  1  0.50164658  0.59996868  0.57823438  1
  O2-  O234  1  0.48209069  0.60936556  0.74209734  1
  O2-  O235  1  0.78179446  0.09572181  0.06622837  1
  O2-  O236  1  0.78399859  0.11008308  0.22356932  1
  O2-  O237  1  0.73717500  0.16124932  0.38248508  1
  O2-  O238  1  0.77481779  0.13900663  0.88599899  1
  O2-  O239  1  0.75943398  0.38103097  0.05849641  1
  O2-  O240  1  0.76982610  0.39262597  0.21673180  1
  O2-  O241  1  0.73754603  0.34508542  0.37791881  1
  O2-  O242  1  0.75584390  0.34435711  0.89148935  1
