# generated using pymatgen
data_Gd19Ta56(WO20)8
_symmetry_space_group_name_H-M   'P 1'
_cell_length_a   15.61980402
_cell_length_b   15.49822380
_cell_length_c   15.23758781
_cell_angle_alpha   90.08587981
_cell_angle_beta   90.34954169
_cell_angle_gamma   90.16227973
_symmetry_Int_Tables_number   1
_chemical_formula_structural   Gd19Ta56(WO20)8
_chemical_formula_sum   'Gd19 Ta56 W8 O160'
_cell_volume   3688.61566969
_cell_formula_units_Z   1
loop_
 _symmetry_equiv_pos_site_id
 _symmetry_equiv_pos_as_xyz
  1  'x, y, z'
loop_
 _atom_type_symbol
 _atom_type_oxidation_number
  Gd3+  3.0
  Ta5+  5.0
  W6+  6.0
  O2-  -2.0
loop_
 _atom_site_type_symbol
 _atom_site_label
 _atom_site_symmetry_multiplicity
 _atom_site_fract_x
 _atom_site_fract_y
 _atom_site_fract_z
 _atom_site_occupancy
  Gd3+  Gd0  1  0.75654784  0.75596595  0.50497888  1
  Gd3+  Gd1  1  0.24723080  0.74722154  0.51060421  1
  Gd3+  Gd2  1  0.73446494  0.75670822  0.75456748  1
  Gd3+  Gd3  1  0.27939261  0.23460726  -0.01340025  1
  Gd3+  Gd4  1  0.48713646  0.25995846  0.78174378  1
  Gd3+  Gd5  1  0.50820345  0.24604343  0.27658350  1
  Gd3+  Gd6  1  0.04564921  0.73184276  -0.05188746  1
  Gd3+  Gd7  1  0.76359106  0.76743829  0.26638831  1
  Gd3+  Gd8  1  -0.01169943  0.72845686  0.46694566  1
  Gd3+  Gd9  1  0.26828524  0.19823225  0.74240991  1
  Gd3+  Gd10  1  0.49939751  0.23791844  0.02824626  1
  Gd3+  Gd11  1  0.01420813  0.26109221  0.24032519  1
  Gd3+  Gd12  1  -0.02452852  0.75109311  0.73989911  1
  Gd3+  Gd13  1  0.48773549  0.76136450  0.52984446  1
  Gd3+  Gd14  1  0.21329383  0.76556407  0.75072754  1
  Gd3+  Gd15  1  0.51624465  0.75709708  0.00670888  1
  Gd3+  Gd16  1  0.72659778  0.27582771  0.73976744  1
  Gd3+  Gd17  1  0.26132935  0.75127525  -0.01081439  1
  Gd3+  Gd18  1  -0.01687834  0.26643533  -0.00763360  1
  Ta5+  Ta19  1  0.38226386  0.40031954  0.87956701  1
  Ta5+  Ta20  1  0.36041073  0.61804774  0.12783871  1
  Ta5+  Ta21  1  0.18907396  0.36251400  0.34748060  1
  Ta5+  Ta22  1  0.85740617  0.89141252  0.87959986  1
  Ta5+  Ta23  1  0.63616906  0.37951507  0.40348639  1
  Ta5+  Ta24  1  0.11753346  0.11697460  0.10610309  1
  Ta5+  Ta25  1  0.86020002  0.11952591  0.13488383  1
  Ta5+  Ta26  1  0.89443359  0.65432211  0.13458800  1
  Ta5+  Ta27  1  0.88289211  0.37497421  0.37693588  1
  Ta5+  Ta28  1  0.60702772  0.12470492  0.89131747  1
  Ta5+  Ta29  1  0.09827480  0.92039414  0.62896547  1
  Ta5+  Ta30  1  0.62883031  0.62723118  0.88982861  1
  Ta5+  Ta31  1  0.62913126  0.62337976  0.39168647  1
  Ta5+  Ta32  1  0.12584448  0.87124885  0.35151953  1
  Ta5+  Ta33  1  0.85801268  0.38619134  0.62060756  1
  Ta5+  Ta34  1  0.79582284  0.54813603  0.33754997  1
  Ta5+  Ta35  1  0.37369622  0.60433044  0.63436659  1
  Ta5+  Ta36  1  0.62710927  0.39598309  0.15065968  1
  Ta5+  Ta37  1  0.62298981  0.89339437  0.87977500  1
  Ta5+  Ta38  1  0.10361741  0.16153015  0.59474425  1
  Ta5+  Ta39  1  0.12181134  0.37728857  0.10192522  1
  Ta5+  Ta40  1  0.61687499  0.87632117  0.14535210  1
  Ta5+  Ta41  1  0.36857709  0.88179118  0.38209082  1
  Ta5+  Ta42  1  0.39975468  0.36808257  0.62060206  1
  Ta5+  Ta43  1  0.44968589  0.06693761  0.87110697  1
  Ta5+  Ta44  1  0.65758867  0.09061788  0.14165784  1
  Ta5+  Ta45  1  0.84917740  0.91273963  0.13069659  1
  Ta5+  Ta46  1  0.13213647  0.61586469  0.13422507  1
  Ta5+  Ta47  1  0.62356977  0.38396523  0.89592657  1
  Ta5+  Ta48  1  0.38349391  0.62781070  0.37441516  1
  Ta5+  Ta49  1  0.35822802  0.37639322  0.37312088  1
  Ta5+  Ta50  1  0.09706010  0.12093113  0.85312881  1
  Ta5+  Ta51  1  0.58154373  0.92763777  0.64061848  1
  Ta5+  Ta52  1  0.83480234  0.13042624  0.87834889  1
  Ta5+  Ta53  1  0.08210677  0.54193562  0.60058343  1
  Ta5+  Ta54  1  0.35851258  0.37018568  0.14970848  1
  Ta5+  Ta55  1  0.16426360  0.32043407  0.58870028  1
  Ta5+  Ta56  1  0.89609984  0.89958229  0.61916464  1
  Ta5+  Ta57  1  0.38249492  0.93300373  0.63702653  1
  Ta5+  Ta58  1  0.43238650  0.11586601  0.63219276  1
  Ta5+  Ta59  1  0.56761050  0.37112889  0.62772095  1
  Ta5+  Ta60  1  0.38485990  0.88037770  0.85977270  1
  Ta5+  Ta61  1  0.63816608  0.12191946  0.39343999  1
  Ta5+  Ta62  1  0.62176097  0.61307188  0.63443726  1
  Ta5+  Ta63  1  0.12884744  0.93360503  0.86527046  1
  Ta5+  Ta64  1  0.86842919  0.40731112  0.12687877  1
  Ta5+  Ta65  1  0.14517496  0.12126595  0.35389421  1
  Ta5+  Ta66  1  0.88625466  0.90201793  0.38566817  1
  Ta5+  Ta67  1  0.34083336  0.11206476  0.18704228  1
  Ta5+  Ta68  1  0.88151058  0.13942091  0.39144127  1
  Ta5+  Ta69  1  0.59620097  0.13562097  0.63980546  1
  Ta5+  Ta70  1  0.38098484  0.87707535  0.13083114  1
  Ta5+  Ta71  1  0.36339399  0.12830642  0.39463497  1
  Ta5+  Ta72  1  0.14666109  0.59824506  0.37775900  1
  Ta5+  Ta73  1  0.38365788  0.61694997  0.87736139  1
  Ta5+  Ta74  1  0.86836926  0.62564954  0.88503259  1
  W6+  W75  1  0.84613673  0.37273174  0.88110778  1
  W6+  W76  1  0.62242012  0.88507185  0.39025903  1
  W6+  W77  1  0.10457345  0.58636148  0.78521341  1
  W6+  W78  1  0.13209717  0.86723199  0.10065101  1
  W6+  W79  1  0.63433305  0.62330802  0.14630779  1
  W6+  W80  1  0.85557509  0.14686329  0.63214304  1
  W6+  W81  1  0.87773852  0.60905843  0.62684231  1
  W6+  W82  1  0.13912365  0.35406457  0.83766207  1
  O2-  O83  1  0.12391337  -0.00066428  0.10223597  1
  O2-  O84  1  0.13398376  -0.00779701  0.36512958  1
  O2-  O85  1  0.12185650  0.02855081  0.58772661  1
  O2-  O86  1  0.19092281  0.04882517  0.88142655  1
  O2-  O87  1  0.12407940  0.50380511  0.08787395  1
  O2-  O88  1  0.14147893  0.47828959  0.37688884  1
  O2-  O89  1  0.08353969  0.42399688  0.57655329  1
  O2-  O90  1  0.12650566  0.47210357  0.85060088  1
  O2-  O91  1  0.35770120  0.00335050  0.12903328  1
  O2-  O92  1  0.37820740  -0.00009704  0.40476732  1
  O2-  O93  1  0.32409834  0.03626139  0.65843103  1
  O2-  O94  1  0.34379912  -0.01417824  0.89267309  1
  O2-  O95  1  0.36560450  0.49704775  0.13277750  1
  O2-  O96  1  0.36506795  0.50942051  0.37426597  1
  O2-  O97  1  0.35404052  0.49177600  0.60303324  1
  O2-  O98  1  0.33545524  0.51193943  0.92283329  1
  O2-  O99  1  0.57741482  -0.00463983  0.14745389  1
  O2-  O100  1  0.58853699  0.01385051  0.38099475  1
  O2-  O101  1  0.65326182  0.02210488  0.66310075  1
  O2-  O102  1  0.65892374  0.00947231  0.87706085  1
  O2-  O103  1  0.57397728  0.50132091  0.14332831  1
  O2-  O104  1  0.63887278  0.50620642  0.42413684  1
  O2-  O105  1  0.60948705  0.49677196  0.62860806  1
  O2-  O106  1  0.65204195  0.50799704  0.88342029  1
  O2-  O107  1  0.92601983  0.00631473  0.13524089  1
  O2-  O108  1  0.91704799  0.02078220  0.39904195  1
  O2-  O109  1  0.88121821  0.01465195  0.63196119  1
  O2-  O110  1  0.85816102  0.00885974  0.85052566  1
  O2-  O111  1  0.87185483  0.52795631  0.11895059  1
  O2-  O112  1  0.90828318  0.49560802  0.34897325  1
  O2-  O113  1  0.80814328  0.49434046  0.61276710  1
  O2-  O114  1  0.84838376  0.51177643  0.89132872  1
  O2-  O115  1  0.10267975  0.24815310  0.11712842  1
  O2-  O116  1  0.15120655  0.24364639  0.32018623  1
  O2-  O117  1  0.22027559  0.19732717  0.59874658  1
  O2-  O118  1  0.17976617  0.22305737  0.87056112  1
  O2-  O119  1  0.12841837  0.72770947  0.07214275  1
  O2-  O120  1  0.04101906  0.64586556  0.35768963  1
  O2-  O121  1  0.17950973  0.83479110  0.60498318  1
  O2-  O122  1  0.17526027  0.67884852  0.88153321  1
  O2-  O123  1  0.37545701  0.23036603  0.15111484  1
  O2-  O124  1  0.36859851  0.24800362  0.35493877  1
  O2-  O125  1  0.38443220  0.24577214  0.65656286  1
  O2-  O126  1  0.34093416  0.28316274  0.85827185  1
  O2-  O127  1  0.32480630  0.76529709  0.12876107  1
  O2-  O128  1  0.41913318  0.76638701  0.39154852  1
  O2-  O129  1  0.28974611  0.69412465  0.64442706  1
  O2-  O130  1  0.34601464  0.74056369  0.86288570  1
  O2-  O131  1  0.56476430  0.28536515  0.14919782  1
  O2-  O132  1  0.62095912  0.25005249  0.37853821  1
  O2-  O133  1  0.62605542  0.26027969  0.62700682  1
  O2-  O134  1  0.57947799  0.25809787  0.90763982  1
  O2-  O135  1  0.66988727  0.75826268  0.14613658  1
  O2-  O136  1  0.66809157  0.75052123  0.38065050  1
  O2-  O137  1  0.74092110  0.66456744  0.62245508  1
  O2-  O138  1  0.59183510  0.76047800  0.88121231  1
  O2-  O139  1  0.93825556  0.21080682  0.11930474  1
  O2-  O140  1  0.93400589  0.25760992  0.37017857  1
  O2-  O141  1  0.80585832  0.27379071  0.61164825  1
  O2-  O142  1  0.89479092  0.23785784  0.87674679  1
  O2-  O143  1  0.86821569  0.78142854  0.14842625  1
  O2-  O144  1  0.85937537  0.77335850  0.39463371  1
  O2-  O145  1  0.90398343  0.75168780  0.59937753  1
  O2-  O146  1  0.91410939  0.78000333  0.87937430  1
  O2-  O147  1  0.06551085  0.13761451  -0.01032727  1
  O2-  O148  1  0.08297548  0.11817145  0.23167129  1
  O2-  O149  1  0.09556391  0.14677862  0.46106865  1
  O2-  O150  1  0.10038164  0.14128775  0.72981633  1
  O2-  O151  1  0.24910508  0.62081746  0.07683158  1
  O2-  O152  1  0.17528579  0.60484457  0.24589148  1
  O2-  O153  1  0.14823431  0.61292424  0.50740038  1
  O2-  O154  1  0.09786663  0.69560612  0.69715334  1
  O2-  O155  1  0.40045445  0.14718112  -0.03531644  1
  O2-  O156  1  0.43226910  0.11210300  0.27276059  1
  O2-  O157  1  0.39639748  0.14655263  0.50880216  1
  O2-  O158  1  0.40495940  0.13194434  0.77264893  1
  O2-  O159  1  0.40599169  0.65534683  0.01407008  1
  O2-  O160  1  0.38221291  0.64649076  0.24662178  1
  O2-  O161  1  0.38051011  0.64998472  0.50728608  1
  O2-  O162  1  0.36254041  0.58985425  0.75974330  1
  O2-  O163  1  0.61425138  0.13004675  0.03186694  1
  O2-  O164  1  0.62018627  0.13523247  0.25149614  1
  O2-  O165  1  0.61987938  0.12770697  0.51301272  1
  O2-  O166  1  0.62077834  0.16718549  0.76858311  1
  O2-  O167  1  0.60642294  0.64119154  0.01202154  1
  O2-  O168  1  0.68521135  0.59255007  0.27759649  1
  O2-  O169  1  0.60975107  0.66951243  0.51784167  1
  O2-  O170  1  0.63450363  0.64301294  0.75564447  1
  O2-  O171  1  0.84293434  0.11848373  0.00233765  1
  O2-  O172  1  0.88952854  0.13181960  0.26098840  1
  O2-  O173  1  0.90359350  0.15814872  0.51050578  1
  O2-  O174  1  0.79915674  0.14888662  0.75408993  1
  O2-  O175  1  0.90098614  0.66298280  0.00817392  1
  O2-  O176  1  0.84519520  0.63734059  0.25419508  1
  O2-  O177  1  0.76975178  0.61982094  0.43258345  1
  O2-  O178  1  0.85236981  0.66012138  0.76026282  1
  O2-  O179  1  0.10519152  0.34664505  -0.02377860  1
  O2-  O180  1  0.10485939  0.38025396  0.22925832  1
  O2-  O181  1  0.19410828  0.33142020  0.46928058  1
  O2-  O182  1  0.19611087  0.32639166  0.71795308  1
  O2-  O183  1  0.18022424  0.87467873  -0.03270663  1
  O2-  O184  1  0.13265640  0.83717629  0.23746965  1
  O2-  O185  1  0.12012722  0.78193215  0.43997832  1
  O2-  O186  1  0.07923506  0.81907271  0.83751640  1
  O2-  O187  1  0.39377429  0.34637458  0.02171631  1
  O2-  O188  1  0.43330026  0.37197659  0.25171515  1
  O2-  O189  1  0.37949713  0.35898615  0.49208646  1
  O2-  O190  1  0.39923530  0.40175128  0.75585346  1
  O2-  O191  1  0.39261850  0.85004293  -0.00382155  1
  O2-  O192  1  0.37772052  0.88540827  0.25868763  1
  O2-  O193  1  0.36303044  0.85552587  0.52619580  1
  O2-  O194  1  0.33428432  0.86615447  0.74146340  1
  O2-  O195  1  0.63346901  0.37959212  0.02263863  1
  O2-  O196  1  0.60559592  0.38762898  0.28223996  1
  O2-  O197  1  0.56294157  0.36876640  0.49844962  1
  O2-  O198  1  0.60435989  0.36515028  0.76432094  1
  O2-  O199  1  0.61410735  0.87893867  0.01083262  1
  O2-  O200  1  0.66686503  0.88658612  0.25838605  1
  O2-  O201  1  0.60552532  0.86110067  0.53162809  1
  O2-  O202  1  0.63249940  0.87057258  0.74641894  1
  O2-  O203  1  0.99008990  0.38319021  0.09933746  1
  O2-  O204  1  0.89527884  0.35650837  0.24072136  1
  O2-  O205  1  0.90372734  0.38312293  0.49759845  1
  O2-  O206  1  0.85839376  0.37846613  0.74359414  1
  O2-  O207  1  0.85192426  0.90200991  0.00576207  1
  O2-  O208  1  0.84070750  0.90579102  0.26976756  1
  O2-  O209  1  0.82860954  0.89333640  0.50510828  1
  O2-  O210  1  0.84212751  0.85886686  0.73153410  1
  O2-  O211  1  0.03166634  0.00607679  -0.13888750  1
  O2-  O212  1  -0.00161547  -0.13392666  0.35936827  1
  O2-  O213  1  0.00216076  -0.11231353  0.54116912  1
  O2-  O214  1  -0.00125587  -0.10620783  0.70290219  1
  O2-  O215  1  -0.00670985  0.63118856  -0.13981439  1
  O2-  O216  1  0.01086602  0.63626924  0.15770961  1
  O2-  O217  1  -0.02161302  0.60051433  0.53512018  1
  O2-  O218  1  -0.00352952  0.54815569  0.69146439  1
  O2-  O219  1  0.23886587  0.13711407  0.09913172  1
  O2-  O220  1  0.26457594  0.10476805  0.28789741  1
  O2-  O221  1  0.25102650  -0.14203020  0.38638196  1
  O2-  O222  1  0.16348839  -0.07126128  0.74447281  1
  O2-  O223  1  0.24365250  0.34804713  0.09198070  1
  O2-  O224  1  0.27582374  0.38451854  0.25670717  1
  O2-  O225  1  0.25926057  0.66327060  0.38263496  1
  O2-  O226  1  0.17736405  0.54301025  0.67604454  1
  O2-  O227  1  0.49980056  -0.06990592  -0.13339438  1
  O2-  O228  1  0.49710217  -0.16751104  0.14021324  1
  O2-  O229  1  0.48069478  -0.00713298  0.57779554  1
  O2-  O230  1  0.48137974  -0.15785162  0.65559559  1
  O2-  O231  1  0.50015675  0.41098888  -0.10014770  1
  O2-  O232  1  0.50967912  0.62378558  0.37585413  1
  O2-  O233  1  0.49443160  0.64163750  0.64003939  1
  O2-  O234  1  0.50114683  0.60977437  0.87118811  1
  O2-  O235  1  0.75934783  0.00935767  0.13660210  1
  O2-  O236  1  0.75363452  0.17668683  0.14753022  1
  O2-  O237  1  0.76156973  0.12808199  0.38994632  1
  O2-  O238  1  0.74396817  -0.15025957  0.87714635  1
  O2-  O239  1  0.84494057  0.34934287  0.02144802  1
  O2-  O240  1  0.74672624  0.40158447  0.16582029  1
  O2-  O241  1  0.76426424  0.41125897  0.36642971  1
  O2-  O242  1  0.74862392  0.66994659  0.89269134  1
