# generated using pymatgen
data_Gd19Ta56(WO20)8
_symmetry_space_group_name_H-M   'P 1'
_cell_length_a   15.63736393
_cell_length_b   15.49342140
_cell_length_c   15.39493917
_cell_angle_alpha   90.18291670
_cell_angle_beta   90.16627356
_cell_angle_gamma   90.23961375
_symmetry_Int_Tables_number   1
_chemical_formula_structural   Gd19Ta56(WO20)8
_chemical_formula_sum   'Gd19 Ta56 W8 O160'
_cell_volume   3729.76094868
_cell_formula_units_Z   1
loop_
 _symmetry_equiv_pos_site_id
 _symmetry_equiv_pos_as_xyz
  1  'x, y, z'
loop_
 _atom_type_symbol
 _atom_type_oxidation_number
  Gd3+  3.0
  Ta5+  5.0
  W6+  6.0
  O2-  -2.0
loop_
 _atom_site_type_symbol
 _atom_site_label
 _atom_site_symmetry_multiplicity
 _atom_site_fract_x
 _atom_site_fract_y
 _atom_site_fract_z
 _atom_site_occupancy
  Gd3+  Gd0  1  0.26683478  0.76313840  -0.00210844  1
  Gd3+  Gd1  1  0.48872157  0.75253615  0.25328670  1
  Gd3+  Gd2  1  0.49688983  0.24530919  0.00183449  1
  Gd3+  Gd3  1  0.25378513  0.25338595  0.27872948  1
  Gd3+  Gd4  1  0.51276382  0.75608400  0.73031220  1
  Gd3+  Gd5  1  0.25579002  0.76379407  0.51187410  1
  Gd3+  Gd6  1  0.73436166  0.75463983  0.24602669  1
  Gd3+  Gd7  1  -0.00261704  0.24514955  0.75750772  1
  Gd3+  Gd8  1  -0.01772713  0.74349703  0.24300208  1
  Gd3+  Gd9  1  0.51231281  0.25401324  0.25125754  1
  Gd3+  Gd10  1  -0.00274585  0.73044690  0.75365436  1
  Gd3+  Gd11  1  0.23918155  0.76069780  0.75384532  1
  Gd3+  Gd12  1  -0.03771693  0.73031901  0.48508527  1
  Gd3+  Gd13  1  -0.00878350  0.25765666  0.48206649  1
  Gd3+  Gd14  1  0.25209783  0.75084775  0.25414393  1
  Gd3+  Gd15  1  0.52704251  0.26437175  0.49351684  1
  Gd3+  Gd16  1  0.73959331  0.74068150  0.72411263  1
  Gd3+  Gd17  1  0.00843580  0.73545825  -0.01165876  1
  Gd3+  Gd18  1  0.70418663  0.25625297  0.75592980  1
  Ta5+  Ta19  1  0.88268459  0.58662125  0.87471521  1
  Ta5+  Ta20  1  0.61081791  0.62176107  0.11659811  1
  Ta5+  Ta21  1  0.38036642  0.88380221  0.37842280  1
  Ta5+  Ta22  1  0.37612313  0.12236859  0.86876734  1
  Ta5+  Ta23  1  0.10771182  0.88025843  0.63548756  1
  Ta5+  Ta24  1  0.13802120  0.12915579  0.88164796  1
  Ta5+  Ta25  1  0.37426223  0.36825605  0.62681212  1
  Ta5+  Ta26  1  0.11630238  0.61556286  0.12847429  1
  Ta5+  Ta27  1  0.82723052  0.12575344  0.36761629  1
  Ta5+  Ta28  1  0.84972842  0.11853579  0.62424708  1
  Ta5+  Ta29  1  0.12929900  0.37186890  0.62596897  1
  Ta5+  Ta30  1  0.89515954  0.87533908  0.62813537  1
  Ta5+  Ta31  1  0.79962256  0.35711526  0.11265629  1
  Ta5+  Ta32  1  0.14294001  0.36040726  0.88161419  1
  Ta5+  Ta33  1  0.89076337  0.88577113  0.10497634  1
  Ta5+  Ta34  1  0.62059146  0.11241600  0.87823008  1
  Ta5+  Ta35  1  0.36846874  0.61643818  0.86161137  1
  Ta5+  Ta36  1  0.60904889  0.89041106  0.11139858  1
  Ta5+  Ta37  1  0.60646528  0.12104012  0.62311142  1
  Ta5+  Ta38  1  0.43750707  0.12552987  0.62777533  1
  Ta5+  Ta39  1  0.37499360  0.36820342  0.87167967  1
  Ta5+  Ta40  1  0.37619527  0.38623034  0.38649777  1
  Ta5+  Ta41  1  0.19367786  0.37753137  0.12576501  1
  Ta5+  Ta42  1  0.41418768  0.88144758  0.88191106  1
  Ta5+  Ta43  1  0.86293090  0.11272829  0.87841307  1
  Ta5+  Ta44  1  0.36248285  0.61510516  0.65395313  1
  Ta5+  Ta45  1  0.62529569  0.39137284  0.62286288  1
  Ta5+  Ta46  1  0.11228652  0.62127283  0.37694840  1
  Ta5+  Ta47  1  0.62838694  0.62057346  0.56198404  1
  Ta5+  Ta48  1  0.86631732  0.60708210  0.61976398  1
  Ta5+  Ta49  1  0.64705946  0.62240998  0.88072976  1
  Ta5+  Ta50  1  0.86535614  0.89327027  0.86653496  1
  Ta5+  Ta51  1  0.64561828  0.86979829  0.87479625  1
  Ta5+  Ta52  1  0.18762974  0.12962795  0.12306111  1
  Ta5+  Ta53  1  0.37158320  0.89100457  0.63303634  1
  Ta5+  Ta54  1  0.09579926  0.89684274  0.13060033  1
  Ta5+  Ta55  1  0.40599752  0.89451245  0.11592727  1
  Ta5+  Ta56  1  0.61648302  0.92102836  0.35275916  1
  Ta5+  Ta57  1  0.86557979  0.36594515  0.62099642  1
  Ta5+  Ta58  1  0.41705481  0.62243924  0.41862434  1
  Ta5+  Ta59  1  0.36371905  0.61831993  0.11864310  1
  Ta5+  Ta60  1  0.13023315  0.88583000  0.37861336  1
  Ta5+  Ta61  1  0.64485837  0.13265776  0.12275262  1
  Ta5+  Ta62  1  0.81504860  0.92387373  0.39616664  1
  Ta5+  Ta63  1  0.87286227  0.55482854  0.36377049  1
  Ta5+  Ta64  1  0.36021881  0.36760169  0.12635030  1
  Ta5+  Ta65  1  0.13683893  0.12449218  0.38018756  1
  Ta5+  Ta66  1  0.35496825  0.13321168  0.12696571  1
  Ta5+  Ta67  1  0.61685346  0.60906810  0.35165330  1
  Ta5+  Ta68  1  0.80993916  0.11820231  0.11915560  1
  Ta5+  Ta69  1  0.86036955  0.35188371  0.88460560  1
  Ta5+  Ta70  1  0.63480678  0.37573231  0.11933997  1
  Ta5+  Ta71  1  0.67186123  0.37947480  0.36756152  1
  Ta5+  Ta72  1  0.65840110  0.13484249  0.37317161  1
  Ta5+  Ta73  1  0.86701568  0.60233575  0.12321265  1
  Ta5+  Ta74  1  0.37989155  0.13069761  0.38818145  1
  W6+  W75  1  0.13759929  0.88809030  0.89822050  1
  W6+  W76  1  0.13642475  0.60800598  0.87967994  1
  W6+  W77  1  0.10718741  0.12905120  0.62278540  1
  W6+  W78  1  0.63820593  0.87599726  0.59546272  1
  W6+  W79  1  0.83405608  0.35990773  0.36585157  1
  W6+  W80  1  0.13128621  0.38083206  0.37558756  1
  W6+  W81  1  0.12163109  0.61929134  0.62532102  1
  W6+  W82  1  0.60579747  0.38681036  0.88204246  1
  O2-  O83  1  0.12128064  0.01373854  0.13132639  1
  O2-  O84  1  0.10111550  0.00090010  0.36610607  1
  O2-  O85  1  0.11062823  -0.00295047  0.62751187  1
  O2-  O86  1  0.09963374  0.01941919  0.89838839  1
  O2-  O87  1  0.15395806  0.50344943  0.13502204  1
  O2-  O88  1  0.15397250  0.51352848  0.38033979  1
  O2-  O89  1  0.10058189  0.48607129  0.63854839  1
  O2-  O90  1  0.11852206  0.47568690  0.86661090  1
  O2-  O91  1  0.35300129  0.00059952  0.13692065  1
  O2-  O92  1  0.37299204  0.00286183  0.37902505  1
  O2-  O93  1  0.40489697  0.00220711  0.61077221  1
  O2-  O94  1  0.41559637  0.00261511  0.87920144  1
  O2-  O95  1  0.34916774  0.50059183  0.12331392  1
  O2-  O96  1  0.36857345  0.51423833  0.38653815  1
  O2-  O97  1  0.36777879  0.49781276  0.63139000  1
  O2-  O98  1  0.36941459  0.49460067  0.87084505  1
  O2-  O99  1  0.64885518  0.00362715  0.11641536  1
  O2-  O100  1  0.57106863  0.02992256  0.36392941  1
  O2-  O101  1  0.62465101  0.00378640  0.61216513  1
  O2-  O102  1  0.59933935  -0.00898868  0.87523877  1
  O2-  O103  1  0.63529283  0.50536910  0.10625433  1
  O2-  O104  1  0.60377837  0.48999511  0.36566258  1
  O2-  O105  1  0.59397933  0.51423162  0.61199812  1
  O2-  O106  1  0.58497017  0.52203073  0.88473332  1
  O2-  O107  1  0.83647812  -0.01556045  0.13995484  1
  O2-  O108  1  0.89502102  0.00637257  0.36480697  1
  O2-  O109  1  0.87209408  -0.00410879  0.63917184  1
  O2-  O110  1  0.92140518  -0.00111995  0.85736067  1
  O2-  O111  1  0.83655800  0.49036144  0.10905548  1
  O2-  O112  1  0.94013221  0.46311927  0.34259127  1
  O2-  O113  1  0.88355107  0.49058262  0.64724278  1
  O2-  O114  1  0.90784834  0.47071284  0.86556562  1
  O2-  O115  1  0.17312177  0.25294349  0.14459164  1
  O2-  O116  1  0.10736643  0.24542679  0.36680427  1
  O2-  O117  1  0.06506450  0.25769392  0.62032756  1
  O2-  O118  1  0.07859269  0.24833739  0.88828982  1
  O2-  O119  1  0.07218939  0.75253837  0.12328168  1
  O2-  O120  1  0.04041304  0.80154395  0.37249126  1
  O2-  O121  1  0.15676726  0.75441312  0.62042812  1
  O2-  O122  1  0.14819577  0.74638686  0.90934852  1
  O2-  O123  1  0.41670898  0.24965008  0.13034640  1
  O2-  O124  1  0.42337305  0.25887785  0.38280481  1
  O2-  O125  1  0.41550632  0.25253722  0.61170600  1
  O2-  O126  1  0.41738970  0.24355370  0.87071570  1
  O2-  O127  1  0.37897319  0.76873704  0.11141690  1
  O2-  O128  1  0.38990637  0.73788814  0.38122372  1
  O2-  O129  1  0.35930238  0.75125026  0.65489386  1
  O2-  O130  1  0.35104268  0.75800399  0.86326872  1
  O2-  O131  1  0.59068606  0.25100200  0.12179807  1
  O2-  O132  1  0.61422069  0.26018891  0.36975521  1
  O2-  O133  1  0.60561717  0.26494337  0.63301319  1
  O2-  O134  1  0.62008222  0.24893649  0.88105068  1
  O2-  O135  1  0.61071373  0.75665302  0.14881704  1
  O2-  O136  1  0.61695017  0.74211530  0.33375075  1
  O2-  O137  1  0.60119007  0.73219459  0.60135957  1
  O2-  O138  1  0.70679472  0.75646490  0.86823363  1
  O2-  O139  1  0.82654842  0.23775751  0.09326959  1
  O2-  O140  1  0.88402185  0.23262673  0.37954724  1
  O2-  O141  1  0.89790582  0.24022291  0.61042092  1
  O2-  O142  1  0.89811063  0.23154109  0.89628037  1
  O2-  O143  1  0.86616118  0.76032671  0.14072345  1
  O2-  O144  1  0.98448785  0.63798393  0.35667463  1
  O2-  O145  1  0.85760094  0.75013154  0.60697376  1
  O2-  O146  1  0.93852517  0.79323578  0.87260894  1
  O2-  O147  1  0.16990177  0.14865938  0.00277320  1
  O2-  O148  1  0.17350660  0.12575419  0.25877354  1
  O2-  O149  1  0.07303166  0.13019511  0.48834574  1
  O2-  O150  1  0.10013147  0.14156152  0.75961718  1
  O2-  O151  1  0.23570055  0.66694488  0.11532157  1
  O2-  O152  1  0.12240709  0.66087019  0.25371881  1
  O2-  O153  1  0.08232799  0.64666473  0.49422467  1
  O2-  O154  1  0.12504845  0.65721708  0.75478292  1
  O2-  O155  1  0.37881419  0.13322309  -0.00161842  1
  O2-  O156  1  0.36976539  0.14688735  0.26089634  1
  O2-  O157  1  0.44450093  0.12906125  0.49207911  1
  O2-  O158  1  0.40697477  0.12378260  0.74663762  1
  O2-  O159  1  0.35551016  0.63634782  -0.01172952  1
  O2-  O160  1  0.35430804  0.65020515  0.23743391  1
  O2-  O161  1  0.34897946  0.64072098  0.52393473  1
  O2-  O162  1  0.28820291  0.61661443  0.75968876  1
  O2-  O163  1  0.58662318  0.12419141  -0.00040972  1
  O2-  O164  1  0.62987371  0.14450957  0.24703632  1
  O2-  O165  1  0.63279419  0.14664461  0.49722776  1
  O2-  O166  1  0.59762718  0.13327925  0.75616223  1
  O2-  O167  1  0.63142492  0.65872645  0.00135475  1
  O2-  O168  1  0.66847818  0.61502581  0.23536000  1
  O2-  O169  1  0.68917660  0.62889244  0.45471256  1
  O2-  O170  1  0.61938639  0.65840645  0.76502696  1
  O2-  O171  1  0.84797830  0.08856757  -0.00410594  1
  O2-  O172  1  0.82237757  0.13171189  0.24329235  1
  O2-  O173  1  0.84142111  0.11072716  0.50233014  1
  O2-  O174  1  0.89620838  0.13537265  0.74839485  1
  O2-  O175  1  0.88500538  0.63430880  -0.00266093  1
  O2-  O176  1  0.84526427  0.61998443  0.25537728  1
  O2-  O177  1  0.87440457  0.59853722  0.48899453  1
  O2-  O178  1  0.86278090  0.64298329  0.75732032  1
  O2-  O179  1  0.16209041  0.36638284  0.00292543  1
  O2-  O180  1  0.18848616  0.38205490  0.25442920  1
  O2-  O181  1  0.08686466  0.36984911  0.50536476  1
  O2-  O182  1  0.10970898  0.34637089  0.74864210  1
  O2-  O183  1  0.17633167  0.87088563  0.04116147  1
  O2-  O184  1  0.15014837  0.86303877  0.24347090  1
  O2-  O185  1  0.15107500  0.87454303  0.49935946  1
  O2-  O186  1  0.13921808  0.86216911  0.76012062  1
  O2-  O187  1  0.37706874  0.36102642  -0.00457264  1
  O2-  O188  1  0.38060067  0.36998603  0.26054106  1
  O2-  O189  1  0.42643791  0.38566744  0.50667047  1
  O2-  O190  1  0.40566623  0.37056683  0.74447214  1
  O2-  O191  1  0.35104516  0.88306851  -0.00885582  1
  O2-  O192  1  0.36437583  0.85439784  0.25274593  1
  O2-  O193  1  0.37148472  0.85800371  0.50503084  1
  O2-  O194  1  0.41779922  0.87976404  0.75080295  1
  O2-  O195  1  0.56934961  0.37431516  0.00890373  1
  O2-  O196  1  0.62517346  0.36852414  0.24746195  1
  O2-  O197  1  0.63071662  0.37718990  0.49260627  1
  O2-  O198  1  0.63740202  0.39092159  0.75001029  1
  O2-  O199  1  0.65381047  0.85927249  0.00024899  1
  O2-  O200  1  0.66973235  0.88933067  0.24301807  1
  O2-  O201  1  0.68402727  0.88342883  0.44803011  1
  O2-  O202  1  0.63111016  0.84776387  0.73878606  1
  O2-  O203  1  0.78843015  0.37158428  -0.02329713  1
  O2-  O204  1  0.81520858  0.35571831  0.23140955  1
  O2-  O205  1  0.88915179  0.37218063  0.50039651  1
  O2-  O206  1  0.85260118  0.33159442  0.75382615  1
  O2-  O207  1  0.84345306  0.87335064  -0.01096893  1
  O2-  O208  1  0.83642585  0.82518733  0.32713824  1
  O2-  O209  1  0.85475464  0.88793040  0.50399948  1
  O2-  O210  1  0.83881661  0.84921442  0.74342766  1
  O2-  O211  1  0.00031791  -0.11212697  0.03765244  1
  O2-  O212  1  -0.01854600  -0.11502319  0.19923901  1
  O2-  O213  1  0.00306910  -0.15094208  0.55783936  1
  O2-  O214  1  -0.00601032  -0.12600457  0.70802341  1
  O2-  O215  1  0.09175125  0.61326025  0.00833435  1
  O2-  O216  1  -0.01242586  0.60702657  0.15316453  1
  O2-  O217  1  -0.01642051  0.64992358  0.62769135  1
  O2-  O218  1  -0.00241126  0.63315910  0.86660026  1
  O2-  O219  1  0.25716980  0.12117448  -0.14789350  1
  O2-  O220  1  0.25371098  -0.14263405  0.37518318  1
  O2-  O221  1  0.25720155  0.14271075  0.41168273  1
  O2-  O222  1  0.25258971  -0.11140704  0.64011987  1
  O2-  O223  1  0.25814743  0.33681214  -0.14981765  1
  O2-  O224  1  0.21028293  0.69642406  0.38783731  1
  O2-  O225  1  0.26715390  0.34322724  0.40649233  1
  O2-  O226  1  0.25031350  0.35695906  0.62008830  1
  O2-  O227  1  0.50329342  -0.08694088  0.03980037  1
  O2-  O228  1  0.50851959  -0.11069711  0.19435406  1
  O2-  O229  1  0.50435723  -0.13224295  0.36842030  1
  O2-  O230  1  0.52181633  -0.18072882  0.87486519  1
  O2-  O231  1  0.48945530  0.62324952  0.12221829  1
  O2-  O232  1  0.49838346  0.61779108  0.31456466  1
  O2-  O233  1  0.52364643  0.62047146  0.47931113  1
  O2-  O234  1  0.44573795  0.62740084  0.75657371  1
  O2-  O235  1  0.75002530  -0.06826600  -0.14370702  1
  O2-  O236  1  0.73030343  0.01446609  0.35953464  1
  O2-  O237  1  0.73914996  0.15060808  0.65505838  1
  O2-  O238  1  0.74431835  0.12509480  0.85282535  1
  O2-  O239  1  0.75844940  0.57722218  -0.11903783  1
  O2-  O240  1  0.76969028  0.48655500  0.36802175  1
  O2-  O241  1  0.74749961  0.37334862  0.61942142  1
  O2-  O242  1  0.74077969  0.62029921  0.62490313  1
