# generated using pymatgen
data_Gd19Ta56(WO20)8
_symmetry_space_group_name_H-M   'P 1'
_cell_length_a   15.54030340
_cell_length_b   15.48400089
_cell_length_c   15.03031385
_cell_angle_alpha   90.01633826
_cell_angle_beta   89.86867316
_cell_angle_gamma   90.33646692
_symmetry_Int_Tables_number   1
_chemical_formula_structural   Gd19Ta56(WO20)8
_chemical_formula_sum   'Gd19 Ta56 W8 O160'
_cell_volume   3616.61338153
_cell_formula_units_Z   1
loop_
 _symmetry_equiv_pos_site_id
 _symmetry_equiv_pos_as_xyz
  1  'x, y, z'
loop_
 _atom_type_symbol
 _atom_type_oxidation_number
  Gd3+  3.0
  Ta5+  5.0
  W6+  6.0
  O2-  -2.0
loop_
 _atom_site_type_symbol
 _atom_site_label
 _atom_site_symmetry_multiplicity
 _atom_site_fract_x
 _atom_site_fract_y
 _atom_site_fract_z
 _atom_site_occupancy
  Gd3+  Gd0  1  0.25812892  0.27335567  0.25702433  1
  Gd3+  Gd1  1  0.54426671  0.25975702  0.48017103  1
  Gd3+  Gd2  1  -0.00001558  0.75339740  0.75476668  1
  Gd3+  Gd3  1  0.77355140  0.23628096  0.48490070  1
  Gd3+  Gd4  1  0.74025281  0.25941766  0.25160355  1
  Gd3+  Gd5  1  0.77224200  0.24616561  0.76469513  1
  Gd3+  Gd6  1  0.27931187  0.26612665  0.02083184  1
  Gd3+  Gd7  1  0.47803066  0.75659170  0.22923960  1
  Gd3+  Gd8  1  -0.02464741  0.21544897  0.24289325  1
  Gd3+  Gd9  1  0.26184133  0.75001306  0.74443404  1
  Gd3+  Gd10  1  0.25165229  0.24989970  0.75964668  1
  Gd3+  Gd11  1  0.24541146  0.26488912  0.50717102  1
  Gd3+  Gd12  1  0.48376218  0.24243726  0.76970172  1
  Gd3+  Gd13  1  -0.05051976  0.23751685  0.00788843  1
  Gd3+  Gd14  1  0.49710591  0.77273825  0.77974508  1
  Gd3+  Gd15  1  -0.00155971  0.74272717  0.46928581  1
  Gd3+  Gd16  1  0.47448205  0.75770099  0.50586527  1
  Gd3+  Gd17  1  0.00171215  0.75273900  0.02760788  1
  Gd3+  Gd18  1  0.50398456  0.23958517  0.19854924  1
  Ta5+  Ta19  1  0.37518854  0.10785015  0.88273260  1
  Ta5+  Ta20  1  0.15272295  0.64057624  0.14751812  1
  Ta5+  Ta21  1  0.63612793  0.86650813  0.11019421  1
  Ta5+  Ta22  1  0.40982105  0.12060354  0.61574063  1
  Ta5+  Ta23  1  0.40478384  0.38786749  0.38244960  1
  Ta5+  Ta24  1  0.09423469  0.12745623  0.64353510  1
  Ta5+  Ta25  1  0.67490742  0.87454074  0.87803263  1
  Ta5+  Ta26  1  0.82604600  0.09324778  0.10688032  1
  Ta5+  Ta27  1  0.62631434  0.64172961  0.63312436  1
  Ta5+  Ta28  1  0.61080211  0.08307253  0.37175847  1
  Ta5+  Ta29  1  0.64318576  0.64480052  0.11308915  1
  Ta5+  Ta30  1  0.31969918  0.87190769  0.13555353  1
  Ta5+  Ta31  1  0.89289415  0.10607660  0.62589081  1
  Ta5+  Ta32  1  0.82908258  0.83927425  0.35036238  1
  Ta5+  Ta33  1  0.34890781  0.62073566  0.61571759  1
  Ta5+  Ta34  1  0.16067492  0.43651190  0.12877237  1
  Ta5+  Ta35  1  0.42280694  0.38708508  0.62630562  1
  Ta5+  Ta36  1  0.61273959  0.38395980  0.85654780  1
  Ta5+  Ta37  1  0.81573040  0.62737780  0.10472927  1
  Ta5+  Ta38  1  0.33566539  0.62916374  0.38402929  1
  Ta5+  Ta39  1  0.85902319  0.86527529  0.88523807  1
  Ta5+  Ta40  1  0.92017326  0.37640702  0.85755022  1
  Ta5+  Ta41  1  0.66517281  0.42285232  0.37785995  1
  Ta5+  Ta42  1  0.63572526  0.39466088  0.63111678  1
  Ta5+  Ta43  1  0.86341301  0.62402896  0.61743441  1
  Ta5+  Ta44  1  0.62713137  0.88356974  0.62837325  1
  Ta5+  Ta45  1  0.61762190  0.12316316  0.62310458  1
  Ta5+  Ta46  1  0.40456747  0.40404837  0.12399371  1
  Ta5+  Ta47  1  0.34593737  0.07806508  0.13697369  1
  Ta5+  Ta48  1  0.14689906  0.86943078  0.88678299  1
  Ta5+  Ta49  1  0.34063629  0.88585675  0.61149621  1
  Ta5+  Ta50  1  0.84906308  0.60690596  0.35750307  1
  Ta5+  Ta51  1  0.15392543  0.87689316  0.14409125  1
  Ta5+  Ta52  1  0.62388886  0.65080324  0.37369268  1
  Ta5+  Ta53  1  0.86491902  0.86049300  0.61508152  1
  Ta5+  Ta54  1  0.61000377  0.88727616  0.36920297  1
  Ta5+  Ta55  1  0.16201551  0.87627495  0.40175432  1
  Ta5+  Ta56  1  0.90827283  0.10214663  0.84883043  1
  Ta5+  Ta57  1  0.11757283  0.12249366  0.39458602  1
  Ta5+  Ta58  1  0.32843836  0.62964307  0.12860540  1
  Ta5+  Ta59  1  0.65523025  0.39829748  0.10954013  1
  Ta5+  Ta60  1  0.62595976  0.11534190  0.87003503  1
  Ta5+  Ta61  1  0.12543231  0.38380848  0.87641769  1
  Ta5+  Ta62  1  0.31846324  0.87635017  0.88553767  1
  Ta5+  Ta63  1  0.13767787  0.11557970  0.88744670  1
  Ta5+  Ta64  1  0.87611559  0.07906020  0.36726974  1
  Ta5+  Ta65  1  0.88548397  0.61697709  0.87991499  1
  Ta5+  Ta66  1  0.80606312  0.84824917  0.09236306  1
  Ta5+  Ta67  1  0.13309160  0.09884928  0.13286057  1
  Ta5+  Ta68  1  0.13536181  0.61758405  0.62925925  1
  Ta5+  Ta69  1  0.12683019  0.88319252  0.62603800  1
  Ta5+  Ta70  1  0.09947276  0.37679829  0.64854968  1
  Ta5+  Ta71  1  0.32998975  0.88004859  0.38298732  1
  Ta5+  Ta72  1  0.13234592  0.63354881  0.88754493  1
  Ta5+  Ta73  1  0.89684237  0.40401726  0.35687980  1
  Ta5+  Ta74  1  0.64260963  0.62862682  0.86676467  1
  W6+  W75  1  0.66566903  0.11723855  0.11752672  1
  W6+  W76  1  0.85942209  0.37214076  0.61168794  1
  W6+  W77  1  0.82356043  0.37545889  0.10006853  1
  W6+  W78  1  0.37550713  0.12526052  0.37821047  1
  W6+  W79  1  0.12038742  0.38680359  0.38041979  1
  W6+  W80  1  0.38950445  0.38761579  0.86905478  1
  W6+  W81  1  0.36767653  0.62186890  0.87529331  1
  W6+  W82  1  0.17574525  0.62254947  0.40434234  1
  O2-  O83  1  0.07926316  -0.00821604  0.13273208  1
  O2-  O84  1  0.13650109  0.00632609  0.40444433  1
  O2-  O85  1  0.11401078  0.00998524  0.62362541  1
  O2-  O86  1  0.13897819  -0.00393797  0.88241812  1
  O2-  O87  1  0.07886982  0.52449870  0.13403032  1
  O2-  O88  1  0.18576063  0.49160865  0.38774428  1
  O2-  O89  1  0.09888820  0.49976680  0.64469523  1
  O2-  O90  1  0.13224370  0.50466091  0.88324407  1
  O2-  O91  1  0.40689937  -0.02262446  0.14908730  1
  O2-  O92  1  0.33467207  0.00283981  0.37432951  1
  O2-  O93  1  0.37291405  0.00550111  0.62825190  1
  O2-  O94  1  0.33420118  0.00037026  0.84921748  1
  O2-  O95  1  0.40552017  0.52193083  0.15012486  1
  O2-  O96  1  0.37552417  0.50203317  0.37373959  1
  O2-  O97  1  0.39207926  0.50432103  0.63680211  1
  O2-  O98  1  0.41297364  0.51541026  0.84335078  1
  O2-  O99  1  0.64142308  -0.01469533  0.12005747  1
  O2-  O100  1  0.53035791  -0.01143856  0.36642262  1
  O2-  O101  1  0.65124117  0.00502445  0.61272522  1
  O2-  O102  1  0.67142882  0.00304281  0.86691218  1
  O2-  O103  1  0.64092211  0.51931652  0.11639111  1
  O2-  O104  1  0.60039792  0.52978902  0.38299583  1
  O2-  O105  1  0.63324631  0.52013937  0.63483677  1
  O2-  O106  1  0.62088699  0.50615821  0.84940425  1
  O2-  O107  1  0.82489686  -0.02477047  0.09744496  1
  O2-  O108  1  0.87442476  -0.04241690  0.36453508  1
  O2-  O109  1  0.89732135  -0.02053990  0.61587162  1
  O2-  O110  1  0.90323183  -0.01785510  0.85845253  1
  O2-  O111  1  0.81644801  0.50859126  0.08635639  1
  O2-  O112  1  0.94243960  0.51928349  0.35115496  1
  O2-  O113  1  0.85204745  0.50766012  0.61431719  1
  O2-  O114  1  0.92116925  0.49857080  0.86860241  1
  O2-  O115  1  0.04199607  0.18410753  0.11213408  1
  O2-  O116  1  0.16317966  0.25029770  0.37956514  1
  O2-  O117  1  0.14708205  0.24898278  0.65183995  1
  O2-  O118  1  0.17057927  0.25535820  0.88614045  1
  O2-  O119  1  0.10619000  0.75984402  0.14649367  1
  O2-  O120  1  0.14147152  0.75402444  0.41422505  1
  O2-  O121  1  0.14094665  0.75072654  0.63808838  1
  O2-  O122  1  0.08440084  0.75393481  0.88488061  1
  O2-  O123  1  0.40252582  0.26308624  0.10266028  1
  O2-  O124  1  0.34534315  0.26735916  0.38420077  1
  O2-  O125  1  0.44637810  0.25213317  0.61370790  1
  O2-  O126  1  0.35999437  0.24080954  0.89125439  1
  O2-  O127  1  0.36022883  0.75469159  0.12553797  1
  O2-  O128  1  0.34772219  0.75041906  0.41066025  1
  O2-  O129  1  0.33788059  0.75392461  0.60288846  1
  O2-  O130  1  0.36482618  0.75543962  0.87856628  1
  O2-  O131  1  0.64408727  0.26072625  0.13718564  1
  O2-  O132  1  0.67350783  0.29182678  0.38544709  1
  O2-  O133  1  0.63639720  0.25287923  0.60699647  1
  O2-  O134  1  0.60847897  0.25257685  0.84845271  1
  O2-  O135  1  0.56837670  0.75267969  0.11162794  1
  O2-  O136  1  0.54598008  0.75715020  0.37314070  1
  O2-  O137  1  0.56254436  0.76577223  0.63845509  1
  O2-  O138  1  0.64563901  0.75574645  0.84191754  1
  O2-  O139  1  0.85926115  0.23024540  0.13106788  1
  O2-  O140  1  0.83419750  0.20088850  0.35195797  1
  O2-  O141  1  0.83537052  0.22588953  0.62535472  1
  O2-  O142  1  0.89851333  0.23493464  0.84692099  1
  O2-  O143  1  0.87581635  0.74200677  0.11369898  1
  O2-  O144  1  0.89604688  0.73163979  0.34795504  1
  O2-  O145  1  0.93427452  0.74785590  0.61365616  1
  O2-  O146  1  0.91132642  0.74316294  0.87968552  1
  O2-  O147  1  0.17663625  0.12438503  0.00817400  1
  O2-  O148  1  0.11598334  0.13249242  0.25983646  1
  O2-  O149  1  0.14944294  0.14707680  0.51796947  1
  O2-  O150  1  0.16571262  0.12483831  0.75947486  1
  O2-  O151  1  0.13135787  0.64529492  0.01146599  1
  O2-  O152  1  0.15784009  0.63568958  0.27151948  1
  O2-  O153  1  0.07633682  0.62788268  0.51735446  1
  O2-  O154  1  0.08905636  0.63510875  0.75586272  1
  O2-  O155  1  0.35793663  0.10154129  0.01190689  1
  O2-  O156  1  0.39367954  0.14058860  0.23714674  1
  O2-  O157  1  0.33708808  0.14560207  0.51707969  1
  O2-  O158  1  0.36346182  0.14851501  0.74243682  1
  O2-  O159  1  0.33935217  0.62174036  0.00527618  1
  O2-  O160  1  0.36666870  0.64918042  0.26346567  1
  O2-  O161  1  0.41096658  0.62110100  0.50149920  1
  O2-  O162  1  0.39720769  0.66450398  0.73189124  1
  O2-  O163  1  0.66906782  0.14482532  -0.02163972  1
  O2-  O164  1  0.66424095  0.12442421  0.26857408  1
  O2-  O165  1  0.65918733  0.13543443  0.47950957  1
  O2-  O166  1  0.66947543  0.13663333  0.74316664  1
  O2-  O167  1  0.61225907  0.64092350  -0.01562421  1
  O2-  O168  1  0.62584822  0.65649600  0.24900605  1
  O2-  O169  1  0.59466002  0.65756566  0.51118306  1
  O2-  O170  1  0.57374494  0.64057608  0.75004700  1
  O2-  O171  1  0.86379224  0.11622720  -0.01984972  1
  O2-  O172  1  0.88354311  0.09175368  0.23213457  1
  O2-  O173  1  0.84467220  0.09902911  0.49646885  1
  O2-  O174  1  0.83225044  0.10355584  0.74344743  1
  O2-  O175  1  0.91569518  0.62543597  0.00277990  1
  O2-  O176  1  0.81889031  0.61557244  0.23764623  1
  O2-  O177  1  0.88900715  0.63164937  0.49000546  1
  O2-  O178  1  0.90078983  0.63226106  0.74103067  1
  O2-  O179  1  0.17017534  0.38366024  0.01205333  1
  O2-  O180  1  0.13425943  0.36706065  0.23222015  1
  O2-  O181  1  0.14617443  0.37168547  0.52852560  1
  O2-  O182  1  0.18678125  0.38159970  0.75679203  1
  O2-  O183  1  0.13029275  0.86396087  0.01267247  1
  O2-  O184  1  0.14919382  0.87995922  0.27688581  1
  O2-  O185  1  0.06333448  0.86984139  0.51542312  1
  O2-  O186  1  0.07963836  0.87795992  0.74765895  1
  O2-  O187  1  0.37085929  0.40415319  0.00476711  1
  O2-  O188  1  0.40190658  0.35528326  0.25673430  1
  O2-  O189  1  0.36103050  0.37428189  0.51316985  1
  O2-  O190  1  0.36564700  0.34196661  0.73128472  1
  O2-  O191  1  0.32728883  0.88991780  0.00724564  1
  O2-  O192  1  0.36741324  0.85525852  0.26613457  1
  O2-  O193  1  0.40568451  0.88728883  0.49941337  1
  O2-  O194  1  0.38554797  0.85749119  0.73744181  1
  O2-  O195  1  0.63810742  0.38117242  -0.02065872  1
  O2-  O196  1  0.66620947  0.40031969  0.25184616  1
  O2-  O197  1  0.68933954  0.39864711  0.51234432  1
  O2-  O198  1  0.68961995  0.36982267  0.74607874  1
  O2-  O199  1  0.60818527  0.87062868  -0.01691471  1
  O2-  O200  1  0.59685568  0.86105842  0.24578291  1
  O2-  O201  1  0.58869072  0.87205690  0.50381938  1
  O2-  O202  1  0.59807861  0.89166946  0.75305244  1
  O2-  O203  1  0.84987382  0.35496422  -0.03939943  1
  O2-  O204  1  0.84751270  0.37001194  0.24864550  1
  O2-  O205  1  0.86448419  0.35466232  0.46737238  1
  O2-  O206  1  0.85452448  0.37086078  0.75169674  1
  O2-  O207  1  0.91780954  0.86815601  -0.00002549  1
  O2-  O208  1  0.80921289  0.85116775  0.23020622  1
  O2-  O209  1  0.86866590  0.83714509  0.48866776  1
  O2-  O210  1  0.87555053  0.84506801  0.74424353  1
  O2-  O211  1  0.02018762  0.13604036  -0.09068251  1
  O2-  O212  1  -0.00698405  0.12315280  0.37948557  1
  O2-  O213  1  -0.00668719  0.15404116  0.57085895  1
  O2-  O214  1  -0.00904621  0.10906031  0.72738325  1
  O2-  O215  1  0.02082422  0.34813107  -0.05636420  1
  O2-  O216  1  -0.00646916  0.32852696  0.34381524  1
  O2-  O217  1  -0.00902070  0.34459085  0.61490607  1
  O2-  O218  1  0.03222445  0.37122153  0.78362415  1
  O2-  O219  1  0.24081788  0.00564664  0.14579923  1
  O2-  O220  1  0.24547900  0.17490581  0.14793127  1
  O2-  O221  1  0.23675349  -0.11111468  0.52073579  1
  O2-  O222  1  0.23707508  -0.10822845  0.68769775  1
  O2-  O223  1  0.23951311  0.53366135  0.13522531  1
  O2-  O224  1  0.27705603  0.36848216  0.14491075  1
  O2-  O225  1  0.24073547  0.60949365  0.53601676  1
  O2-  O226  1  0.24603400  0.60839072  0.69773207  1
  O2-  O227  1  0.50220018  0.11160158  -0.12004291  1
  O2-  O228  1  0.51689200  0.17221558  0.35836316  1
  O2-  O229  1  0.51332302  0.11192147  0.53654849  1
  O2-  O230  1  0.51824888  0.11274846  0.69941874  1
  O2-  O231  1  0.52593612  0.38010262  0.13285857  1
  O2-  O232  1  0.52575081  0.37777465  0.38415137  1
  O2-  O233  1  0.52885629  0.39365366  0.55694080  1
  O2-  O234  1  0.53231131  0.38051919  0.72416120  1
  O2-  O235  1  0.76369596  -0.17928733  -0.03957498  1
  O2-  O236  1  0.69202807  -0.01745963  0.38013519  1
  O2-  O237  1  0.71492750  -0.18744109  0.38519783  1
  O2-  O238  1  0.74225182  -0.15025977  0.62076618  1
  O2-  O239  1  0.76462747  0.62015660  -0.13076835  1
  O2-  O240  1  0.77823550  0.48129999  0.37333893  1
  O2-  O241  1  0.73968591  0.64880280  0.40493258  1
  O2-  O242  1  0.74681714  0.66682192  0.63011951  1
