# generated using pymatgen
data_Gd19Ta56(WO20)8
_symmetry_space_group_name_H-M   'P 1'
_cell_length_a   15.55701222
_cell_length_b   15.57416658
_cell_length_c   15.34947214
_cell_angle_alpha   89.83323645
_cell_angle_beta   89.96939981
_cell_angle_gamma   90.03257433
_symmetry_Int_Tables_number   1
_chemical_formula_structural   Gd19Ta56(WO20)8
_chemical_formula_sum   'Gd19 Ta56 W8 O160'
_cell_volume   3718.96833997
_cell_formula_units_Z   1
loop_
 _symmetry_equiv_pos_site_id
 _symmetry_equiv_pos_as_xyz
  1  'x, y, z'
loop_
 _atom_type_symbol
 _atom_type_oxidation_number
  Gd3+  3.0
  Ta5+  5.0
  W6+  6.0
  O2-  -2.0
loop_
 _atom_site_type_symbol
 _atom_site_label
 _atom_site_symmetry_multiplicity
 _atom_site_fract_x
 _atom_site_fract_y
 _atom_site_fract_z
 _atom_site_occupancy
  Gd3+  Gd0  1  0.74855303  0.23116123  0.50444888  1
  Gd3+  Gd1  1  0.51133965  0.76666780  0.74155198  1
  Gd3+  Gd2  1  0.26573928  0.23597596  0.75285547  1
  Gd3+  Gd3  1  0.73183213  0.23436396  0.75316866  1
  Gd3+  Gd4  1  -0.01383401  0.25616980  0.24657979  1
  Gd3+  Gd5  1  0.25810620  0.74313374  0.23579916  1
  Gd3+  Gd6  1  0.49225568  0.75447987  0.27175562  1
  Gd3+  Gd7  1  -0.00083660  0.73403567  0.26417458  1
  Gd3+  Gd8  1  0.27393755  0.74534833  0.00159856  1
  Gd3+  Gd9  1  -0.03077947  0.25316361  0.76701898  1
  Gd3+  Gd10  1  0.00062238  0.22407236  -0.00142791  1
  Gd3+  Gd11  1  0.49849044  0.28151351  0.76504846  1
  Gd3+  Gd12  1  0.73099876  0.71786284  -0.00109285  1
  Gd3+  Gd13  1  0.25600980  0.24161642  0.49858652  1
  Gd3+  Gd14  1  0.74720491  0.25646169  0.25307528  1
  Gd3+  Gd15  1  0.26685344  0.24631405  -0.00502891  1
  Gd3+  Gd16  1  0.00395076  0.75092368  0.73075531  1
  Gd3+  Gd17  1  0.76417438  0.22976709  -0.01781992  1
  Gd3+  Gd18  1  0.75456900  0.72595621  0.26253393  1
  Ta5+  Ta19  1  0.62525979  0.11362340  0.37570440  1
  Ta5+  Ta20  1  0.37512890  0.63453217  0.62129375  1
  Ta5+  Ta21  1  0.87384769  0.87132672  0.61539416  1
  Ta5+  Ta22  1  0.87532696  0.11326119  0.37881593  1
  Ta5+  Ta23  1  0.82975003  0.85704916  0.12467033  1
  Ta5+  Ta24  1  0.88254027  0.61013857  0.12963209  1
  Ta5+  Ta25  1  0.58234433  0.42726789  0.14362866  1
  Ta5+  Ta26  1  0.65645300  0.87008012  0.12643474  1
  Ta5+  Ta27  1  0.12414252  0.61730852  0.11535225  1
  Ta5+  Ta28  1  0.57931748  0.62641701  0.87745338  1
  Ta5+  Ta29  1  0.33877174  0.39008245  0.62526655  1
  Ta5+  Ta30  1  0.11272462  0.37246661  0.12078965  1
  Ta5+  Ta31  1  0.14719424  0.63800440  0.86189245  1
  Ta5+  Ta32  1  0.79742730  0.03206816  0.80917685  1
  Ta5+  Ta33  1  0.13824780  0.87228494  0.60720584  1
  Ta5+  Ta34  1  0.87437325  0.62183764  0.86911976  1
  Ta5+  Ta35  1  0.64626573  0.63212565  0.63198918  1
  Ta5+  Ta36  1  0.12060003  0.10735719  0.13403361  1
  Ta5+  Ta37  1  0.34229277  0.62377556  0.37658645  1
  Ta5+  Ta38  1  0.38866042  0.13315962  0.37473641  1
  Ta5+  Ta39  1  0.13327150  0.86534267  0.86672274  1
  Ta5+  Ta40  1  0.86582478  0.61862511  0.61997909  1
  Ta5+  Ta41  1  0.12371024  0.37601993  0.38134289  1
  Ta5+  Ta42  1  0.60546215  0.11851184  0.87938120  1
  Ta5+  Ta43  1  0.87664375  0.10731449  0.63742861  1
  Ta5+  Ta44  1  0.11894663  0.12299416  0.36305792  1
  Ta5+  Ta45  1  0.65723799  0.38434070  0.62927912  1
  Ta5+  Ta46  1  0.37297983  0.39389839  0.88667050  1
  Ta5+  Ta47  1  0.36957546  0.38530063  0.37180851  1
  Ta5+  Ta48  1  0.14762376  0.62482554  0.61246984  1
  Ta5+  Ta49  1  0.36720440  0.88375735  0.86323520  1
  Ta5+  Ta50  1  0.40088127  0.12014551  0.87961241  1
  Ta5+  Ta51  1  0.40733389  0.60814218  0.12272399  1
  Ta5+  Ta52  1  0.63374378  0.11635683  0.12437467  1
  Ta5+  Ta53  1  0.90970124  0.08576004  0.13939583  1
  Ta5+  Ta54  1  0.38141500  0.88643519  0.61335188  1
  Ta5+  Ta55  1  0.63253975  0.89030156  0.62092798  1
  Ta5+  Ta56  1  0.40837499  0.63140828  0.87299305  1
  Ta5+  Ta57  1  0.41484335  0.13353569  0.61927073  1
  Ta5+  Ta58  1  0.85587860  0.61953610  0.41848997  1
  Ta5+  Ta59  1  0.36058903  0.89235706  0.36785591  1
  Ta5+  Ta60  1  0.58067076  0.13179150  0.62122666  1
  Ta5+  Ta61  1  0.12029661  0.39482544  0.87266250  1
  Ta5+  Ta62  1  0.40464179  0.12981261  0.12668098  1
  Ta5+  Ta63  1  0.35760166  0.37922257  0.14073684  1
  Ta5+  Ta64  1  0.66765763  0.87222124  0.86982758  1
  Ta5+  Ta65  1  0.62878536  0.87479884  0.37998260  1
  Ta5+  Ta66  1  0.61946803  0.61434501  0.38995552  1
  Ta5+  Ta67  1  0.11994945  0.11826889  0.61781077  1
  Ta5+  Ta68  1  0.87593350  0.39683416  0.89321098  1
  Ta5+  Ta69  1  0.60743995  0.36900702  0.37934840  1
  Ta5+  Ta70  1  0.16953969  0.38198270  0.63078982  1
  Ta5+  Ta71  1  0.82708344  0.37748850  0.63780034  1
  Ta5+  Ta72  1  0.87805196  0.37847809  0.39013512  1
  Ta5+  Ta73  1  0.12779983  0.87448451  0.35496620  1
  Ta5+  Ta74  1  0.87248068  0.87321633  0.37922370  1
  W6+  W75  1  0.10766598  0.86980353  0.11345720  1
  W6+  W76  1  0.89030498  0.40853217  0.12853263  1
  W6+  W77  1  0.17958814  0.60734045  0.36126143  1
  W6+  W78  1  0.62919500  0.38520619  0.89593417  1
  W6+  W79  1  0.57716718  0.63040433  0.13303673  1
  W6+  W80  1  0.83258976  0.86066980  0.86670196  1
  W6+  W81  1  0.40116317  0.87745838  0.11924290  1
  W6+  W82  1  0.14366296  0.09885020  0.87561971  1
  O2-  O83  1  0.15027262  -0.00756631  0.13473696  1
  O2-  O84  1  0.11450327  0.00334147  0.36138827  1
  O2-  O85  1  0.11039055  -0.00712598  0.60358699  1
  O2-  O86  1  0.09515790  -0.02300967  0.88041505  1
  O2-  O87  1  0.09913352  0.49436352  0.10558279  1
  O2-  O88  1  0.19309546  0.46947484  0.36406614  1
  O2-  O89  1  0.14765040  0.50532319  0.64042951  1
  O2-  O90  1  0.13135214  0.51396119  0.86869590  1
  O2-  O91  1  0.40968521  0.01179130  0.11973899  1
  O2-  O92  1  0.34616848  0.01500142  0.37208835  1
  O2-  O93  1  0.40364931  0.00564500  0.62133297  1
  O2-  O94  1  0.35371918  0.00379022  0.85929356  1
  O2-  O95  1  0.34023782  0.50063613  0.13783498  1
  O2-  O96  1  0.38708240  0.50433400  0.36739258  1
  O2-  O97  1  0.36495762  0.51332142  0.62448884  1
  O2-  O98  1  0.36127205  0.51229646  0.87009748  1
  O2-  O99  1  0.65588146  -0.00058833  0.13876208  1
  O2-  O100  1  0.59854945  -0.00243747  0.36688304  1
  O2-  O101  1  0.59997392  0.00738693  0.62381807  1
  O2-  O102  1  0.67198094  0.00215130  0.84849939  1
  O2-  O103  1  0.65026064  0.52160498  0.16913618  1
  O2-  O104  1  0.61343154  0.48989555  0.38221251  1
  O2-  O105  1  0.65349624  0.50571755  0.62941027  1
  O2-  O106  1  0.61428331  0.51415375  0.88532296  1
  O2-  O107  1  0.86375451  -0.02205251  0.15215460  1
  O2-  O108  1  0.89991939  -0.00326953  0.35382948  1
  O2-  O109  1  0.91475750  -0.00987512  0.62827932  1
  O2-  O110  1  0.87799438  -0.01055748  0.88397805  1
  O2-  O111  1  0.81616471  0.51562683  0.15102484  1
  O2-  O112  1  0.86931439  0.49878372  0.38490122  1
  O2-  O113  1  0.85905166  0.49862445  0.63884865  1
  O2-  O114  1  0.84442408  0.50737436  0.84457356  1
  O2-  O115  1  0.09183879  0.24404901  0.13292454  1
  O2-  O116  1  0.15584121  0.25597651  0.37439637  1
  O2-  O117  1  0.16743117  0.24062567  0.62369877  1
  O2-  O118  1  0.06208405  0.20029674  0.86327411  1
  O2-  O119  1  0.15899974  0.74686107  0.12815958  1
  O2-  O120  1  0.13391968  0.74494635  0.33761393  1
  O2-  O121  1  0.09460277  0.75066632  0.60901953  1
  O2-  O122  1  0.07649465  0.74883275  0.86692915  1
  O2-  O123  1  0.34594915  0.24661763  0.12138506  1
  O2-  O124  1  0.34355192  0.24774698  0.37791526  1
  O2-  O125  1  0.35240490  0.25476496  0.62022311  1
  O2-  O126  1  0.36071684  0.26089433  0.87580961  1
  O2-  O127  1  0.35858990  0.74281942  0.12415868  1
  O2-  O128  1  0.36229336  0.75683657  0.36013830  1
  O2-  O129  1  0.42201211  0.76452444  0.61707842  1
  O2-  O130  1  0.41725441  0.76309562  0.86834883  1
  O2-  O131  1  0.71009462  0.21442604  0.12001376  1
  O2-  O132  1  0.66533241  0.25304944  0.37698548  1
  O2-  O133  1  0.65535188  0.24506239  0.62449982  1
  O2-  O134  1  0.65153177  0.25088038  0.88635280  1
  O2-  O135  1  0.66117328  0.74078494  0.14016350  1
  O2-  O136  1  0.63155823  0.74717499  0.37798142  1
  O2-  O137  1  0.61557872  0.75892389  0.62789251  1
  O2-  O138  1  0.62210493  0.75339158  0.85874050  1
  O2-  O139  1  0.86147939  0.14976347  0.24255584  1
  O2-  O140  1  0.84949323  0.24712553  0.38338099  1
  O2-  O141  1  0.84173643  0.23860168  0.63268703  1
  O2-  O142  1  0.89469041  0.26669656  0.90775918  1
  O2-  O143  1  0.82899862  0.72456368  0.12286756  1
  O2-  O144  1  0.85762284  0.74338317  0.39828785  1
  O2-  O145  1  0.90021127  0.74840767  0.61104107  1
  O2-  O146  1  0.80622527  0.72057854  0.86285669  1
  O2-  O147  1  0.16503647  0.13991120  0.01794970  1
  O2-  O148  1  0.17541007  0.13550010  0.25159336  1
  O2-  O149  1  0.15539818  0.12682777  0.48859909  1
  O2-  O150  1  0.16388590  0.10809237  0.73187131  1
  O2-  O151  1  0.15364207  0.63831429  -0.00419753  1
  O2-  O152  1  0.19325338  0.60751477  0.21666622  1
  O2-  O153  1  0.15115480  0.61524825  0.49467803  1
  O2-  O154  1  0.10863777  0.64160946  0.74236775  1
  O2-  O155  1  0.36799261  0.13334410  0.00070170  1
  O2-  O156  1  0.38401219  0.13324375  0.24879788  1
  O2-  O157  1  0.35777446  0.13115901  0.50076539  1
  O2-  O158  1  0.40103266  0.15069942  0.75042013  1
  O2-  O159  1  0.37736106  0.63362202  0.00217582  1
  O2-  O160  1  0.38535340  0.63803191  0.24885542  1
  O2-  O161  1  0.37769194  0.63675912  0.49413873  1
  O2-  O162  1  0.41118133  0.64179910  0.74140856  1
  O2-  O163  1  0.64691144  0.11360312  -0.00162417  1
  O2-  O164  1  0.63514128  0.14304589  0.25149192  1
  O2-  O165  1  0.63426916  0.13226032  0.50083033  1
  O2-  O166  1  0.59749574  0.14992031  0.75098994  1
  O2-  O167  1  0.60095459  0.65328455  -0.00095143  1
  O2-  O168  1  0.56133814  0.62677424  0.28062926  1
  O2-  O169  1  0.59551680  0.62496959  0.51145936  1
  O2-  O170  1  0.58598988  0.62815904  0.73893551  1
  O2-  O171  1  0.85175876  0.13197818  0.04548585  1
  O2-  O172  1  0.75240671  0.10200782  0.37478530  1
  O2-  O173  1  0.86477429  0.11751777  0.50564277  1
  O2-  O174  1  0.89582762  0.12558337  0.76462914  1
  O2-  O175  1  0.87429059  0.61930295  -0.00370054  1
  O2-  O176  1  0.88237942  0.64193244  0.26407427  1
  O2-  O177  1  0.93978419  0.61167394  0.51144717  1
  O2-  O178  1  0.91797541  0.63252447  0.74382101  1
  O2-  O179  1  0.09026719  0.34701145  -0.00957891  1
  O2-  O180  1  0.08816891  0.37070297  0.24647110  1
  O2-  O181  1  0.14451601  0.37270150  0.50450422  1
  O2-  O182  1  0.15188444  0.34831988  0.76081282  1
  O2-  O183  1  0.16306821  0.84573156  -0.01410272  1
  O2-  O184  1  0.05693947  0.86965189  0.25044741  1
  O2-  O185  1  0.13034480  0.86570041  0.47922327  1
  O2-  O186  1  0.10472438  0.86514068  0.73240413  1
  O2-  O187  1  0.37665520  0.37887377  0.01199142  1
  O2-  O188  1  0.31361376  0.37061462  0.26340877  1
  O2-  O189  1  0.32966028  0.37948356  0.48885817  1
  O2-  O190  1  0.36115367  0.36962457  0.75224042  1
  O2-  O191  1  0.35630246  0.86974516  -0.01259477  1
  O2-  O192  1  0.42527370  0.88641118  0.26228272  1
  O2-  O193  1  0.39470169  0.88493229  0.48664940  1
  O2-  O194  1  0.41220837  0.87939090  0.74083836  1
  O2-  O195  1  0.61301533  0.37950801  0.04015792  1
  O2-  O196  1  0.63737326  0.36261298  0.24952253  1
  O2-  O197  1  0.64264236  0.36447039  0.49883065  1
  O2-  O198  1  0.63177369  0.35845913  0.75565662  1
  O2-  O199  1  0.64903235  0.86742722  -0.00510961  1
  O2-  O200  1  0.61275853  0.86103972  0.25293458  1
  O2-  O201  1  0.59361965  0.87781027  0.50072228  1
  O2-  O202  1  0.60873656  0.88167131  0.74577359  1
  O2-  O203  1  0.92655518  0.27964583  0.11675241  1
  O2-  O204  1  0.85964139  0.36004853  0.26378942  1
  O2-  O205  1  0.82938049  0.36718988  0.50382506  1
  O2-  O206  1  0.84217649  0.34664143  0.76484186  1
  O2-  O207  1  0.83534104  0.85486121  0.00479588  1
  O2-  O208  1  0.87530483  0.83003616  0.25486033  1
  O2-  O209  1  0.91866401  0.88107916  0.49418930  1
  O2-  O210  1  0.89283099  0.85439662  0.73727294  1
  O2-  O211  1  0.01184472  0.08825415  0.05944681  1
  O2-  O212  1  0.01695347  0.10976873  0.21600868  1
  O2-  O213  1  0.00108638  0.15766829  0.37689316  1
  O2-  O214  1  0.00533788  0.15200198  0.63040891  1
  O2-  O215  1  -0.07623090  0.43140517  -0.00179156  1
  O2-  O216  1  0.00691550  0.65483911  0.13207952  1
  O2-  O217  1  -0.00224677  0.36163877  0.39741609  1
  O2-  O218  1  -0.00091128  0.38472553  0.83589855  1
  O2-  O219  1  0.26149117  0.14525268  -0.13077471  1
  O2-  O220  1  0.24408718  -0.12045996  0.31510358  1
  O2-  O221  1  0.25882873  -0.12632795  0.61959503  1
  O2-  O222  1  0.25166769  -0.14320930  0.83049873  1
  O2-  O223  1  0.23958191  0.37023675  -0.09561004  1
  O2-  O224  1  0.22910959  0.36224229  0.10555219  1
  O2-  O225  1  0.25918254  0.66776341  0.64093895  1
  O2-  O226  1  0.26251778  0.66950006  0.86182346  1
  O2-  O227  1  0.50710588  0.04322695  -0.10934351  1
  O2-  O228  1  0.52042014  0.16407608  0.11525875  1
  O2-  O229  1  0.50567601  0.15252412  0.38359747  1
  O2-  O230  1  0.50348700  0.19694182  0.88795587  1
  O2-  O231  1  0.49860133  0.51944874  0.10366306  1
  O2-  O232  1  0.47352842  0.36924558  0.18020503  1
  O2-  O233  1  0.48877650  0.34940296  0.37549312  1
  O2-  O234  1  0.49422645  0.38223240  0.86945184  1
  O2-  O235  1  0.75045281  0.13634740  -0.13704955  1
  O2-  O236  1  0.75058114  -0.11266010  0.38357414  1
  O2-  O237  1  0.75453262  -0.11534387  0.60564206  1
  O2-  O238  1  0.76424640  0.07856983  0.68243081  1
  O2-  O239  1  0.76157886  0.37410110  -0.06627964  1
  O2-  O240  1  0.73670126  0.61292106  0.35344226  1
  O2-  O241  1  0.77845937  0.61830449  0.51683418  1
  O2-  O242  1  0.75734015  0.65462091  0.67501026  1
