# generated using pymatgen
data_Gd19Ta56(WO20)8
_symmetry_space_group_name_H-M   'P 1'
_cell_length_a   15.62385441
_cell_length_b   15.48417906
_cell_length_c   15.32529736
_cell_angle_alpha   89.85702458
_cell_angle_beta   89.83786184
_cell_angle_gamma   90.00091388
_symmetry_Int_Tables_number   1
_chemical_formula_structural   Gd19Ta56(WO20)8
_chemical_formula_sum   'Gd19 Ta56 W8 O160'
_cell_volume   3707.50877096
_cell_formula_units_Z   1
loop_
 _symmetry_equiv_pos_site_id
 _symmetry_equiv_pos_as_xyz
  1  'x, y, z'
loop_
 _atom_type_symbol
 _atom_type_oxidation_number
  Gd3+  3.0
  Ta5+  5.0
  W6+  6.0
  O2-  -2.0
loop_
 _atom_site_type_symbol
 _atom_site_label
 _atom_site_symmetry_multiplicity
 _atom_site_fract_x
 _atom_site_fract_y
 _atom_site_fract_z
 _atom_site_occupancy
  Gd3+  Gd0  1  0.48574213  0.74027482  0.25444878  1
  Gd3+  Gd1  1  -0.03996359  0.25846234  -0.02652767  1
  Gd3+  Gd2  1  0.76758382  0.73842905  0.72395180  1
  Gd3+  Gd3  1  0.25300622  0.73257721  0.76760650  1
  Gd3+  Gd4  1  0.25571101  0.74082012  0.51241384  1
  Gd3+  Gd5  1  0.74918841  0.24211799  0.22333395  1
  Gd3+  Gd6  1  0.75875429  0.77290998  0.24434112  1
  Gd3+  Gd7  1  0.76780030  0.22628604  0.49130394  1
  Gd3+  Gd8  1  0.53262918  0.24228121  0.77756636  1
  Gd3+  Gd9  1  0.50211842  0.73322751  -0.03740581  1
  Gd3+  Gd10  1  0.50385364  0.74269322  0.51557315  1
  Gd3+  Gd11  1  0.50869055  0.25317555  0.50454952  1
  Gd3+  Gd12  1  -0.00850363  0.23596991  0.22541749  1
  Gd3+  Gd13  1  0.25983541  0.23744606  0.24351467  1
  Gd3+  Gd14  1  0.01045248  0.26838709  0.58168708  1
  Gd3+  Gd15  1  0.25996117  0.25957787  0.50599632  1
  Gd3+  Gd16  1  0.25005369  0.75351361  0.24408917  1
  Gd3+  Gd17  1  0.20634346  0.24337456  0.81441202  1
  Gd3+  Gd18  1  0.02055779  0.76251050  0.46795176  1
  Ta5+  Ta19  1  0.12546315  0.88258595  0.12384442  1
  Ta5+  Ta20  1  0.86787873  0.11599572  0.09635195  1
  Ta5+  Ta21  1  0.65631694  0.37290432  0.88530971  1
  Ta5+  Ta22  1  0.90285582  0.63277876  0.60801620  1
  Ta5+  Ta23  1  0.34935409  0.87423882  0.37430707  1
  Ta5+  Ta24  1  0.06916206  0.63756488  0.88473704  1
  Ta5+  Ta25  1  0.88486861  0.88504246  0.10918611  1
  Ta5+  Ta26  1  0.36631577  0.11731598  0.85468043  1
  Ta5+  Ta27  1  0.37300787  0.60276796  0.37189376  1
  Ta5+  Ta28  1  0.39001576  0.86513227  0.64057050  1
  Ta5+  Ta29  1  0.68595508  0.11418951  0.86906962  1
  Ta5+  Ta30  1  0.87169525  0.39493940  0.84383211  1
  Ta5+  Ta31  1  0.38179756  0.11398766  0.63461255  1
  Ta5+  Ta32  1  0.88402490  0.89358978  0.62280204  1
  Ta5+  Ta33  1  0.12457872  0.87470903  0.64655206  1
  Ta5+  Ta34  1  0.62306870  0.61078595  0.62939766  1
  Ta5+  Ta35  1  0.36339334  0.58842902  0.87205362  1
  Ta5+  Ta36  1  0.60832900  0.60451256  0.37590524  1
  Ta5+  Ta37  1  0.61811280  0.61524295  0.11958781  1
  Ta5+  Ta38  1  0.37182581  0.61381720  0.11853533  1
  Ta5+  Ta39  1  0.39976972  0.87330456  0.11905347  1
  Ta5+  Ta40  1  0.10209127  0.62877234  0.12744838  1
  Ta5+  Ta41  1  0.65450763  0.37116198  0.37591987  1
  Ta5+  Ta42  1  0.65400623  0.37004437  0.63191373  1
  Ta5+  Ta43  1  0.88649845  0.10374772  0.36179007  1
  Ta5+  Ta44  1  0.11347486  0.62663031  0.63785933  1
  Ta5+  Ta45  1  0.63508518  0.11676940  0.36789572  1
  Ta5+  Ta46  1  0.11191034  0.39500249  0.90178643  1
  Ta5+  Ta47  1  0.41442548  0.40932393  0.36577051  1
  Ta5+  Ta48  1  0.37968996  0.12108659  0.10632365  1
  Ta5+  Ta49  1  0.87032993  0.13712280  0.67258349  1
  Ta5+  Ta50  1  0.86182850  0.63466701  0.11072494  1
  Ta5+  Ta51  1  0.83394442  0.87927599  0.42748133  1
  Ta5+  Ta52  1  0.56715401  0.86972785  0.11153381  1
  Ta5+  Ta53  1  0.89061925  0.37480213  0.36979979  1
  Ta5+  Ta54  1  0.86831829  0.39166275  0.11314031  1
  Ta5+  Ta55  1  0.61963892  0.10965603  0.10964675  1
  Ta5+  Ta56  1  0.39619370  0.11309684  0.37021939  1
  Ta5+  Ta57  1  0.61515897  0.36647967  0.11966130  1
  Ta5+  Ta58  1  0.38265077  0.60453006  0.63376947  1
  Ta5+  Ta59  1  0.36616440  0.39276589  0.87058317  1
  Ta5+  Ta60  1  0.12187112  0.38676857  0.14731753  1
  Ta5+  Ta61  1  0.85369516  0.62306493  0.37277980  1
  Ta5+  Ta62  1  0.11786720  0.87073611  0.89763899  1
  Ta5+  Ta63  1  0.65746426  0.86671188  0.87107127  1
  Ta5+  Ta64  1  0.09768748  0.36672889  0.39549938  1
  Ta5+  Ta65  1  0.14405820  0.12446092  0.08231007  1
  Ta5+  Ta66  1  0.82526073  0.88592265  0.86924902  1
  Ta5+  Ta67  1  0.90325204  0.64230337  0.86489698  1
  Ta5+  Ta68  1  0.59835114  0.87320044  0.36582807  1
  Ta5+  Ta69  1  0.17753271  0.39062723  0.65805603  1
  Ta5+  Ta70  1  0.63350956  0.11504360  0.62687939  1
  Ta5+  Ta71  1  0.38246504  0.37768896  0.66049746  1
  Ta5+  Ta72  1  0.14237994  0.61063050  0.37064027  1
  Ta5+  Ta73  1  0.07933019  0.11829116  0.42230179  1
  Ta5+  Ta74  1  0.17024230  0.11828599  0.65704214  1
  W6+  W75  1  0.65310129  0.62006050  0.86883205  1
  W6+  W76  1  0.17730308  0.88792360  0.38316829  1
  W6+  W77  1  0.63973575  0.87008927  0.61480898  1
  W6+  W78  1  0.37311410  0.86434231  0.86633135  1
  W6+  W79  1  0.84964702  0.13386885  0.83693810  1
  W6+  W80  1  0.06875103  0.11421745  0.89909931  1
  W6+  W81  1  0.81242167  0.39863266  0.59798732  1
  W6+  W82  1  0.37284075  0.37966149  0.12075850  1
  O2-  O83  1  0.11937035  0.00641691  0.11111299  1
  O2-  O84  1  0.14700603  0.02529313  0.40675494  1
  O2-  O85  1  0.15888531  -0.00611215  0.64387062  1
  O2-  O86  1  0.06710336  -0.02391047  0.90181557  1
  O2-  O87  1  0.12904922  0.50678425  0.15664975  1
  O2-  O88  1  0.11893392  0.48744023  0.38709793  1
  O2-  O89  1  0.14098164  0.50518429  0.63912309  1
  O2-  O90  1  0.07753668  0.50777241  0.89280672  1
  O2-  O91  1  0.38211508  -0.00293224  0.11000901  1
  O2-  O92  1  0.36518821  -0.00003991  0.39669840  1
  O2-  O93  1  0.38959635  -0.00701136  0.63234531  1
  O2-  O94  1  0.36079320  -0.00032702  0.85873435  1
  O2-  O95  1  0.32554501  0.50367890  0.11992892  1
  O2-  O96  1  0.32824338  0.48705497  0.40591468  1
  O2-  O97  1  0.42478506  0.48359554  0.61771321  1
  O2-  O98  1  0.44449833  0.50088614  0.85683205  1
  O2-  O99  1  0.60379849  -0.01086185  0.13057081  1
  O2-  O100  1  0.61219901  -0.00302190  0.36916394  1
  O2-  O101  1  0.60560635  0.00167139  0.61124217  1
  O2-  O102  1  0.67043710  -0.01028626  0.87088292  1
  O2-  O103  1  0.62767533  0.49512038  0.12311660  1
  O2-  O104  1  0.66032733  0.49261486  0.38408409  1
  O2-  O105  1  0.62157142  0.48589945  0.61879900  1
  O2-  O106  1  0.66453296  0.49247340  0.88145238  1
  O2-  O107  1  0.92001433  0.00829619  0.11084897  1
  O2-  O108  1  0.87563699  -0.02210207  0.36542928  1
  O2-  O109  1  0.88089750  0.01431227  0.63964402  1
  O2-  O110  1  0.85679378  -0.00064277  0.85385693  1
  O2-  O111  1  0.85777695  0.50938033  0.13880051  1
  O2-  O112  1  0.87500356  0.50095843  0.36455920  1
  O2-  O113  1  0.83600360  0.53597302  0.58912718  1
  O2-  O114  1  0.89215188  0.51352062  0.85905857  1
  O2-  O115  1  0.00302306  0.37060895  0.13842524  1
  O2-  O116  1  0.12125112  0.23508483  0.39032491  1
  O2-  O117  1  0.18211208  0.25411861  0.66172644  1
  O2-  O118  1  0.08749469  0.26269325  0.90350933  1
  O2-  O119  1  0.14603406  0.74513261  0.14168950  1
  O2-  O120  1  0.16379467  0.74441263  0.37648611  1
  O2-  O121  1  0.17677264  0.75056071  0.64036390  1
  O2-  O122  1  0.05682350  0.76803256  0.90670130  1
  O2-  O123  1  0.35224181  0.24538194  0.13093203  1
  O2-  O124  1  0.29712834  0.18509768  0.38136247  1
  O2-  O125  1  0.39568138  0.25516879  0.62668630  1
  O2-  O126  1  0.34540304  0.25081014  0.85337259  1
  O2-  O127  1  0.35435699  0.74192310  0.13290819  1
  O2-  O128  1  0.36168848  0.73653360  0.36213423  1
  O2-  O129  1  0.35238968  0.73328611  0.64025341  1
  O2-  O130  1  0.38462685  0.71766296  0.85400154  1
  O2-  O131  1  0.64016642  0.24128560  0.12576249  1
  O2-  O132  1  0.68574252  0.24457030  0.36183067  1
  O2-  O133  1  0.58902968  0.24360478  0.63887962  1
  O2-  O134  1  0.64075923  0.23842433  0.87441309  1
  O2-  O135  1  0.55290921  0.73282702  0.11574093  1
  O2-  O136  1  0.56949905  0.73188643  0.37760949  1
  O2-  O137  1  0.66272826  0.73150862  0.61173633  1
  O2-  O138  1  0.60646454  0.74309182  0.85921423  1
  O2-  O139  1  0.88985897  0.24618463  0.11553542  1
  O2-  O140  1  0.88023183  0.23776475  0.38002656  1
  O2-  O141  1  0.86482067  0.25771150  0.59962347  1
  O2-  O142  1  0.90694979  0.27141241  0.84064695  1
  O2-  O143  1  0.85766086  0.76024200  0.12520052  1
  O2-  O144  1  0.87167658  0.77064924  0.37880461  1
  O2-  O145  1  0.85725035  0.75442058  0.60269164  1
  O2-  O146  1  0.86336438  0.76084336  0.86684582  1
  O2-  O147  1  0.02270948  0.14073728  0.04414259  1
  O2-  O148  1  0.12455096  0.23502862  0.15608070  1
  O2-  O149  1  0.10782670  0.15344276  0.54651146  1
  O2-  O150  1  0.12749801  0.12447914  0.77267095  1
  O2-  O151  1  0.11950685  0.62879038  0.00775832  1
  O2-  O152  1  0.07871926  0.63155110  0.27032183  1
  O2-  O153  1  0.13711416  0.63699006  0.49895832  1
  O2-  O154  1  0.11085965  0.64640800  0.76393722  1
  O2-  O155  1  0.37765472  0.12814252  -0.01873869  1
  O2-  O156  1  0.38705221  0.11801598  0.25003373  1
  O2-  O157  1  0.42671436  0.12978254  0.51403314  1
  O2-  O158  1  0.44604431  0.12771385  0.74863881  1
  O2-  O159  1  0.39781106  0.61960435  -0.00542548  1
  O2-  O160  1  0.40543578  0.61242834  0.24444168  1
  O2-  O161  1  0.38072337  0.63496371  0.50069507  1
  O2-  O162  1  0.32506590  0.59152947  0.74381078  1
  O2-  O163  1  0.64171367  0.11034878  -0.01064688  1
  O2-  O164  1  0.64776546  0.12464143  0.24591701  1
  O2-  O165  1  0.62605656  0.15023273  0.49734483  1
  O2-  O166  1  0.63353420  0.11708552  0.75368323  1
  O2-  O167  1  0.60184105  0.62538732  -0.00315266  1
  O2-  O168  1  0.58945077  0.62271254  0.24950066  1
  O2-  O169  1  0.58897474  0.61678893  0.49928927  1
  O2-  O170  1  0.68745864  0.61093287  0.73545276  1
  O2-  O171  1  0.86134264  0.14404716  -0.02139029  1
  O2-  O172  1  0.86716752  0.13688881  0.23859518  1
  O2-  O173  1  0.76519564  0.10358403  0.39752499  1
  O2-  O174  1  0.98691812  0.16111222  0.67252192  1
  O2-  O175  1  0.85812240  0.62949679  -0.00906214  1
  O2-  O176  1  0.86607502  0.65018987  0.25507846  1
  O2-  O177  1  0.93197944  0.64050123  0.46894998  1
  O2-  O178  1  0.89637946  0.64179477  0.73354478  1
  O2-  O179  1  0.15141835  0.38240648  0.02730153  1
  O2-  O180  1  0.16920083  0.35940341  0.26581760  1
  O2-  O181  1  0.13476526  0.34842491  0.52050737  1
  O2-  O182  1  0.12761521  0.37640835  0.77658576  1
  O2-  O183  1  0.17774170  0.86637504  0.01159525  1
  O2-  O184  1  0.17205116  0.88418778  0.23713144  1
  O2-  O185  1  0.13483823  0.85418388  0.52088356  1
  O2-  O186  1  0.14613451  0.85422663  0.77268058  1
  O2-  O187  1  0.38997089  0.37156205  -0.01520172  1
  O2-  O188  1  0.36168131  0.36352746  0.26758437  1
  O2-  O189  1  0.38615078  0.32375137  0.45045693  1
  O2-  O190  1  0.44789868  0.36145764  0.76928771  1
  O2-  O191  1  0.41247449  0.84706711  -0.00448353  1
  O2-  O192  1  0.34987026  0.86998727  0.24525421  1
  O2-  O193  1  0.37456170  0.84347270  0.50893669  1
  O2-  O194  1  0.31621754  0.86496132  0.73862470  1
  O2-  O195  1  0.59748533  0.36619095  -0.00486394  1
  O2-  O196  1  0.66329278  0.36751783  0.25110714  1
  O2-  O197  1  0.63694184  0.33484970  0.50487898  1
  O2-  O198  1  0.63142645  0.36354990  0.75891711  1
  O2-  O199  1  0.60596528  0.85791533  -0.00659920  1
  O2-  O200  1  0.61728152  0.83394958  0.23893063  1
  O2-  O201  1  0.58939984  0.85918061  0.48851666  1
  O2-  O202  1  0.67338884  0.85624559  0.74398743  1
  O2-  O203  1  0.90395842  0.39256326  -0.00596028  1
  O2-  O204  1  0.85371314  0.35359145  0.24898454  1
  O2-  O205  1  0.78369549  0.37179273  0.43856215  1
  O2-  O206  1  0.84078585  0.39864007  0.72933620  1
  O2-  O207  1  0.83208287  0.88993496  0.00100964  1
  O2-  O208  1  0.81167150  0.89899558  0.20465147  1
  O2-  O209  1  0.93960308  0.87774527  0.50028660  1
  O2-  O210  1  0.84549295  0.86782785  0.73625707  1
  O2-  O211  1  0.00803141  -0.14443327  0.11748490  1
  O2-  O212  1  0.01389607  0.11664409  0.31114750  1
  O2-  O213  1  -0.03884088  0.10619721  0.46729465  1
  O2-  O214  1  0.00730553  -0.11931164  0.65762893  1
  O2-  O215  1  -0.01590701  0.63495436  0.11977677  1
  O2-  O216  1  0.00673754  0.35396545  0.30763792  1
  O2-  O217  1  -0.01896834  0.36549645  0.46317744  1
  O2-  O218  1  0.01787304  0.70242488  0.60303753  1
  O2-  O219  1  0.18988365  0.13059135  -0.02842391  1
  O2-  O220  1  0.25002389  0.11834587  0.14893845  1
  O2-  O221  1  0.27019601  0.12796881  0.57255163  1
  O2-  O222  1  0.28716644  0.12457867  0.73470865  1
  O2-  O223  1  0.28512164  0.48776456  -0.11019732  1
  O2-  O224  1  0.25218701  0.60870010  0.31926445  1
  O2-  O225  1  0.28133007  0.38683665  0.58112946  1
  O2-  O226  1  0.28670332  0.38029567  0.74537638  1
  O2-  O227  1  0.50059694  0.13608607  0.11461734  1
  O2-  O228  1  0.47788685  -0.12843573  0.34996939  1
  O2-  O229  1  0.51439980  0.16109788  0.37142164  1
  O2-  O230  1  0.50612880  -0.16591186  0.64137004  1
  O2-  O231  1  0.50247566  0.36246359  0.15347494  1
  O2-  O232  1  0.48350168  0.53239739  0.37494448  1
  O2-  O233  1  0.53213501  0.35693219  0.37505927  1
  O2-  O234  1  0.50301457  0.64143264  0.64753068  1
  O2-  O235  1  0.75307734  0.10380534  0.11860173  1
  O2-  O236  1  0.72615610  -0.14779107  0.36927874  1
  O2-  O237  1  0.77661203  -0.10213470  0.54091201  1
  O2-  O238  1  0.75235148  0.13303738  0.61254053  1
  O2-  O239  1  0.75344621  0.36157724  0.10304595  1
  O2-  O240  1  0.73155461  0.65252080  0.13935388  1
  O2-  O241  1  0.73227194  0.64736982  0.37497643  1
  O2-  O242  1  0.77044422  0.35381497  0.90659374  1
