# generated using pymatgen
data_Gd19Ta56(WO20)8
_symmetry_space_group_name_H-M   'P 1'
_cell_length_a   15.60080681
_cell_length_b   15.58144068
_cell_length_c   15.22285688
_cell_angle_alpha   90.08104322
_cell_angle_beta   89.96479960
_cell_angle_gamma   89.94909689
_symmetry_Int_Tables_number   1
_chemical_formula_structural   Gd19Ta56(WO20)8
_chemical_formula_sum   'Gd19 Ta56 W8 O160'
_cell_volume   3700.41255349
_cell_formula_units_Z   1
loop_
 _symmetry_equiv_pos_site_id
 _symmetry_equiv_pos_as_xyz
  1  'x, y, z'
loop_
 _atom_type_symbol
 _atom_type_oxidation_number
  Gd3+  3.0
  Ta5+  5.0
  W6+  6.0
  O2-  -2.0
loop_
 _atom_site_type_symbol
 _atom_site_label
 _atom_site_symmetry_multiplicity
 _atom_site_fract_x
 _atom_site_fract_y
 _atom_site_fract_z
 _atom_site_occupancy
  Gd3+  Gd0  1  0.23920616  0.24930778  -0.00381446  1
  Gd3+  Gd1  1  0.75973295  0.24603375  -0.00941480  1
  Gd3+  Gd2  1  0.24553023  0.25358209  0.25437503  1
  Gd3+  Gd3  1  0.02770868  0.24310253  0.51347896  1
  Gd3+  Gd4  1  0.48886794  0.24921248  0.70077849  1
  Gd3+  Gd5  1  0.51080940  0.75105932  0.25571170  1
  Gd3+  Gd6  1  0.75210205  0.75103142  -0.00388824  1
  Gd3+  Gd7  1  0.48480779  0.75337815  0.53885242  1
  Gd3+  Gd8  1  0.46128669  0.26680668  -0.02476452  1
  Gd3+  Gd9  1  0.25043908  0.24972099  0.50765364  1
  Gd3+  Gd10  1  -0.00707078  0.76943956  0.01026290  1
  Gd3+  Gd11  1  0.23395635  0.73849546  0.22499296  1
  Gd3+  Gd12  1  0.25782245  0.75713776  -0.00937419  1
  Gd3+  Gd13  1  0.00574844  0.74575174  0.28228044  1
  Gd3+  Gd14  1  0.77826581  0.75330277  0.73349300  1
  Gd3+  Gd15  1  0.23651421  0.74805358  0.73757033  1
  Gd3+  Gd16  1  0.74633112  0.25097797  0.51040564  1
  Gd3+  Gd17  1  0.73988087  0.25697042  0.25316630  1
  Gd3+  Gd18  1  0.74829862  0.74920174  0.25000335  1
  Ta5+  Ta19  1  0.67408511  0.87233828  0.59196721  1
  Ta5+  Ta20  1  0.34329344  0.12526420  0.85409355  1
  Ta5+  Ta21  1  0.31262336  0.11843268  0.64857610  1
  Ta5+  Ta22  1  0.63019371  0.62038130  0.85499633  1
  Ta5+  Ta23  1  0.63262634  0.61466852  0.12103819  1
  Ta5+  Ta24  1  0.09204817  0.86813851  0.62538018  1
  Ta5+  Ta25  1  0.38191948  0.88352306  0.12211776  1
  Ta5+  Ta26  1  0.88675330  0.88741838  0.87106908  1
  Ta5+  Ta27  1  0.64261849  0.61741488  0.38552692  1
  Ta5+  Ta28  1  0.32994254  0.62060325  0.60083396  1
  Ta5+  Ta29  1  0.88763023  0.62144155  0.86654321  1
  Ta5+  Ta30  1  0.12468831  0.88755537  0.86975421  1
  Ta5+  Ta31  1  0.93193044  0.63229996  0.62623451  1
  Ta5+  Ta32  1  0.12977009  0.10840395  0.37440165  1
  Ta5+  Ta33  1  0.31809083  0.88611161  0.60010945  1
  Ta5+  Ta34  1  0.88605636  0.12618285  0.37879920  1
  Ta5+  Ta35  1  0.14495396  0.10757084  0.63815152  1
  Ta5+  Ta36  1  0.85293635  0.62151672  0.39454707  1
  Ta5+  Ta37  1  0.61657657  0.12640067  0.11221570  1
  Ta5+  Ta38  1  0.38724902  0.62652390  0.85291199  1
  Ta5+  Ta39  1  0.64348048  0.88170312  0.37942135  1
  Ta5+  Ta40  1  0.85410687  0.88048996  0.39262167  1
  Ta5+  Ta41  1  0.12114635  0.38135108  0.11986895  1
  Ta5+  Ta42  1  0.16044585  0.12584628  0.84866916  1
  Ta5+  Ta43  1  0.60141582  0.37818896  0.11699583  1
  Ta5+  Ta44  1  0.39739651  0.62172718  0.11245631  1
  Ta5+  Ta45  1  0.60977776  0.12245051  0.36987968  1
  Ta5+  Ta46  1  0.35534568  0.38969705  0.12175721  1
  Ta5+  Ta47  1  0.13089799  0.88684875  0.12513453  1
  Ta5+  Ta48  1  0.12353067  0.12513540  0.11889323  1
  Ta5+  Ta49  1  0.89028058  0.13130520  0.64187763  1
  Ta5+  Ta50  1  0.87554625  0.38237576  0.13131443  1
  Ta5+  Ta51  1  0.88085585  0.37519388  0.38696702  1
  Ta5+  Ta52  1  0.12557486  0.61657612  0.88402802  1
  Ta5+  Ta53  1  0.92685777  0.88265376  0.62887237  1
  Ta5+  Ta54  1  0.32648933  0.38581916  0.84886382  1
  Ta5+  Ta55  1  0.36638912  0.12203305  0.38340248  1
  Ta5+  Ta56  1  0.87875810  0.12165678  0.13458223  1
  Ta5+  Ta57  1  0.15648539  0.86560505  0.39496376  1
  Ta5+  Ta58  1  0.14424250  0.37630150  0.64971968  1
  Ta5+  Ta59  1  0.36656196  0.62526738  0.38707376  1
  Ta5+  Ta60  1  0.37610868  0.12929945  0.12203975  1
  Ta5+  Ta61  1  0.31533612  0.38152403  0.64805518  1
  Ta5+  Ta62  1  0.09673957  0.61702867  0.63595631  1
  Ta5+  Ta63  1  0.61000580  0.37216295  0.85457595  1
  Ta5+  Ta64  1  0.67660500  0.62615753  0.59669551  1
  Ta5+  Ta65  1  0.62123342  0.87261861  0.85077802  1
  Ta5+  Ta66  1  0.91120790  0.38354825  0.63767688  1
  Ta5+  Ta67  1  0.88663931  0.61539318  0.13566585  1
  Ta5+  Ta68  1  0.37788966  0.87993391  0.85434283  1
  Ta5+  Ta69  1  0.15763306  0.37761341  0.85453261  1
  Ta5+  Ta70  1  0.12629529  0.37966518  0.38281802  1
  Ta5+  Ta71  1  0.11392625  0.61202072  0.09975327  1
  Ta5+  Ta72  1  0.36748197  0.87644904  0.38619329  1
  Ta5+  Ta73  1  0.60005222  0.37833885  0.37534725  1
  Ta5+  Ta74  1  0.62207044  0.87778005  0.11431735  1
  W6+  W75  1  0.91181299  0.13544389  0.89084093  1
  W6+  W76  1  0.62592280  0.38169873  0.60127209  1
  W6+  W77  1  0.85827116  0.38807959  0.88132453  1
  W6+  W78  1  0.59755481  0.12206805  0.85611710  1
  W6+  W79  1  0.15579173  0.61168697  0.40592853  1
  W6+  W80  1  0.35327511  0.38678987  0.38402006  1
  W6+  W81  1  0.63527256  0.11646559  0.60478958  1
  W6+  W82  1  0.88118475  0.87818431  0.14173821  1
  O2-  O83  1  0.14245911  0.00570625  0.13816230  1
  O2-  O84  1  0.14783507  -0.01148639  0.36445819  1
  O2-  O85  1  0.11984962  -0.01056666  0.63206514  1
  O2-  O86  1  0.16521767  -0.00038900  0.85856573  1
  O2-  O87  1  0.15488005  0.49900291  0.12641869  1
  O2-  O88  1  0.18488593  0.48185885  0.38423732  1
  O2-  O89  1  0.12539378  0.49412904  0.64796835  1
  O2-  O90  1  0.12881779  0.49692518  0.88239968  1
  O2-  O91  1  0.38702368  0.00251032  0.12287431  1
  O2-  O92  1  0.37109536  -0.00429680  0.37007895  1
  O2-  O93  1  0.34460023  0.00125264  0.61947097  1
  O2-  O94  1  0.36389453  -0.00277847  0.85782952  1
  O2-  O95  1  0.34226678  0.51626217  0.11883213  1
  O2-  O96  1  0.39777603  0.51421120  0.37042052  1
  O2-  O97  1  0.31818965  0.50635910  0.63430587  1
  O2-  O98  1  0.35195168  0.51356751  0.85669634  1
  O2-  O99  1  0.62053080  0.00104290  0.11172595  1
  O2-  O100  1  0.60397462  -0.00366207  0.37195394  1
  O2-  O101  1  0.67447053  -0.01122317  0.61028287  1
  O2-  O102  1  0.63438553  -0.01097265  0.85333476  1
  O2-  O103  1  0.65198775  0.48897181  0.11150825  1
  O2-  O104  1  0.59869571  0.50517639  0.38033107  1
  O2-  O105  1  0.65618260  0.51071099  0.60393932  1
  O2-  O106  1  0.62416724  0.49787731  0.85819885  1
  O2-  O107  1  0.85068483  0.00949671  0.15021209  1
  O2-  O108  1  0.85714025  0.01116917  0.38894670  1
  O2-  O109  1  0.90750538  0.01351242  0.62250094  1
  O2-  O110  1  0.90180779  0.00155690  0.88730380  1
  O2-  O111  1  0.84388462  0.49991022  0.14986275  1
  O2-  O112  1  0.86807628  0.49427000  0.39140002  1
  O2-  O113  1  0.92567989  0.50054796  0.62066108  1
  O2-  O114  1  0.82696568  0.52130873  0.88659028  1
  O2-  O115  1  0.15002034  0.25213705  0.12098834  1
  O2-  O116  1  0.14781282  0.24400855  0.38769130  1
  O2-  O117  1  0.13595252  0.24089413  0.61708538  1
  O2-  O118  1  0.14955823  0.24940792  0.87858055  1
  O2-  O119  1  0.13588323  0.75108222  0.09174169  1
  O2-  O120  1  0.11925956  0.74489910  0.38401208  1
  O2-  O121  1  0.12776414  0.74191023  0.62758720  1
  O2-  O122  1  0.15280432  0.75014051  0.88315178  1
  O2-  O123  1  0.34925351  0.25763720  0.11702636  1
  O2-  O124  1  0.33136064  0.24735820  0.37914461  1
  O2-  O125  1  0.34735086  0.24548082  0.63082884  1
  O2-  O126  1  0.35077469  0.25536983  0.87571231  1
  O2-  O127  1  0.34763938  0.73988300  0.11928024  1
  O2-  O128  1  0.42530177  0.74780200  0.38855899  1
  O2-  O129  1  0.32482418  0.75384786  0.59509827  1
  O2-  O130  1  0.33602194  0.74943868  0.86025957  1
  O2-  O131  1  0.65667699  0.26166343  0.11977664  1
  O2-  O132  1  0.64041560  0.24975484  0.36829600  1
  O2-  O133  1  0.60792011  0.24887123  0.58217294  1
  O2-  O134  1  0.54683361  0.25665494  0.85812176  1
  O2-  O135  1  0.61255564  0.74043591  0.12545327  1
  O2-  O136  1  0.63475773  0.74856606  0.35461020  1
  O2-  O137  1  0.72074105  0.75038822  0.59337441  1
  O2-  O138  1  0.67566424  0.74868855  0.86163105  1
  O2-  O139  1  0.84031557  0.25454368  0.13066645  1
  O2-  O140  1  0.82506068  0.24979373  0.38249891  1
  O2-  O141  1  0.94372185  0.25448881  0.63304426  1
  O2-  O142  1  0.88255423  0.26000991  0.91140359  1
  O2-  O143  1  0.92406373  0.74183714  0.14615627  1
  O2-  O144  1  0.83837013  0.75130109  0.37691755  1
  O2-  O145  1  0.90859961  0.75734605  0.64693684  1
  O2-  O146  1  0.85097482  0.74594677  0.86939012  1
  O2-  O147  1  0.15096005  0.12286345  -0.00430119  1
  O2-  O148  1  0.15152916  0.13656160  0.24793816  1
  O2-  O149  1  0.11163991  0.11631355  0.50284129  1
  O2-  O150  1  0.08580414  0.12692037  0.75103523  1
  O2-  O151  1  0.04891010  0.63968493  -0.00829759  1
  O2-  O152  1  0.11071816  0.65432637  0.21983070  1
  O2-  O153  1  0.08406236  0.60375910  0.51270341  1
  O2-  O154  1  0.15911484  0.62636427  0.76104588  1
  O2-  O155  1  0.36351346  0.13453834  -0.00819312  1
  O2-  O156  1  0.35287280  0.13477956  0.24779203  1
  O2-  O157  1  0.33238856  0.12269802  0.50249754  1
  O2-  O158  1  0.40978961  0.13533366  0.74774888  1
  O2-  O159  1  0.38158915  0.64436882  -0.01593580  1
  O2-  O160  1  0.41313091  0.64248207  0.24024864  1
  O2-  O161  1  0.42366378  0.62367743  0.51274501  1
  O2-  O162  1  0.36290188  0.64543415  0.72842521  1
  O2-  O163  1  0.64859613  0.14169192  -0.00693104  1
  O2-  O164  1  0.64443531  0.12846356  0.24513822  1
  O2-  O165  1  0.68832652  0.11991380  0.46563570  1
  O2-  O166  1  0.58350623  0.13907117  0.72429108  1
  O2-  O167  1  0.65737575  0.62964309  -0.01841082  1
  O2-  O168  1  0.60179846  0.62126939  0.24490307  1
  O2-  O169  1  0.59341503  0.65804248  0.49920829  1
  O2-  O170  1  0.66837530  0.63758034  0.73199493  1
  O2-  O171  1  0.84215603  0.12689978  0.01590933  1
  O2-  O172  1  0.83868475  0.14436425  0.25763068  1
  O2-  O173  1  0.90091175  0.15455168  0.50141303  1
  O2-  O174  1  0.90469554  0.13303426  0.76107323  1
  O2-  O175  1  0.87620202  0.64904471  0.00669933  1
  O2-  O176  1  0.90616932  0.63094342  0.27064242  1
  O2-  O177  1  0.90875056  0.64119148  0.50131664  1
  O2-  O178  1  0.85864153  0.62488110  0.74235235  1
  O2-  O179  1  0.15177030  0.37159452  -0.00151024  1
  O2-  O180  1  0.13238785  0.36289769  0.25017508  1
  O2-  O181  1  0.12162637  0.36654422  0.51225063  1
  O2-  O182  1  0.07892513  0.35585656  0.75668347  1
  O2-  O183  1  0.15676399  0.88444500  -0.00387502  1
  O2-  O184  1  0.11670113  0.84683707  0.24917421  1
  O2-  O185  1  0.08910282  0.87536076  0.49533396  1
  O2-  O186  1  0.14202828  0.86090767  0.74859696  1
  O2-  O187  1  0.35319009  0.37742505  -0.00965122  1
  O2-  O188  1  0.33248085  0.37861971  0.24415913  1
  O2-  O189  1  0.32284607  0.37514947  0.51794194  1
  O2-  O190  1  0.40502320  0.36666479  0.74557032  1
  O2-  O191  1  0.36134939  0.86848657  -0.01301674  1
  O2-  O192  1  0.40916039  0.86018850  0.24898009  1
  O2-  O193  1  0.41514513  0.87785295  0.50609992  1
  O2-  O194  1  0.34129927  0.86675262  0.73200136  1
  O2-  O195  1  0.58197944  0.36439332  -0.01045402  1
  O2-  O196  1  0.62939562  0.37457431  0.24955147  1
  O2-  O197  1  0.68182676  0.37905130  0.46906184  1
  O2-  O198  1  0.58851046  0.36745155  0.73364007  1
  O2-  O199  1  0.64411459  0.86050033  -0.01661220  1
  O2-  O200  1  0.60067835  0.87049726  0.24395795  1
  O2-  O201  1  0.58896788  0.84967959  0.49497861  1
  O2-  O202  1  0.65428794  0.85264747  0.72645411  1
  O2-  O203  1  0.81634556  0.38341301  0.02290890  1
  O2-  O204  1  0.84490416  0.36535364  0.25813343  1
  O2-  O205  1  0.86593462  0.35545432  0.51334782  1
  O2-  O206  1  0.86338557  0.38303193  0.74705735  1
  O2-  O207  1  0.86379524  0.85313378  -0.00159470  1
  O2-  O208  1  0.92322281  0.87062320  0.28546770  1
  O2-  O209  1  0.90960104  0.87143945  0.50066235  1
  O2-  O210  1  0.85391204  0.88442119  0.74928688  1
  O2-  O211  1  0.01078064  -0.11157605  0.10159166  1
  O2-  O212  1  -0.00115988  0.13147211  0.13338504  1
  O2-  O213  1  0.00261339  0.12994139  0.35370545  1
  O2-  O214  1  0.00367920  -0.15855729  0.87599478  1
  O2-  O215  1  -0.00284406  0.56749320  0.12453602  1
  O2-  O216  1  -0.00532597  0.37604194  0.11969618  1
  O2-  O217  1  -0.00344558  0.34344582  0.38230526  1
  O2-  O218  1  0.00374617  0.61972636  0.84217357  1
  O2-  O219  1  0.25808555  -0.12922231  0.14112084  1
  O2-  O220  1  0.26650730  -0.16967360  0.32838455  1
  O2-  O221  1  0.26095549  -0.11431365  0.47470498  1
  O2-  O222  1  0.25078327  0.15921295  0.76155689  1
  O2-  O223  1  0.20336069  0.61844053  -0.00134090  1
  O2-  O224  1  0.26296372  0.63652788  0.32072132  1
  O2-  O225  1  0.27250307  0.62018704  0.48032367  1
  O2-  O226  1  0.24000079  0.33543370  0.75066502  1
  O2-  O227  1  0.50013607  -0.14321675  0.09566456  1
  O2-  O228  1  0.50019261  0.16083210  0.11168448  1
  O2-  O229  1  0.49244089  0.13997629  0.38207382  1
  O2-  O230  1  0.50085372  -0.14404696  0.85050911  1
  O2-  O231  1  0.51279289  0.59608525  0.08888832  1
  O2-  O232  1  0.48283122  0.38264559  0.13080820  1
  O2-  O233  1  0.48887781  0.35235794  0.39312724  1
  O2-  O234  1  0.51137629  0.64087725  0.84996005  1
  O2-  O235  1  0.74412077  -0.15785558  0.12977285  1
  O2-  O236  1  0.74918328  -0.11339034  0.30998848  1
  O2-  O237  1  0.73754233  -0.11409624  0.47009610  1
  O2-  O238  1  0.77356479  0.15751801  0.62678288  1
  O2-  O239  1  0.75706616  0.65185100  0.13217545  1
  O2-  O240  1  0.74697507  0.61264709  0.31420687  1
  O2-  O241  1  0.74022396  0.61134438  0.47310954  1
  O2-  O242  1  0.72012227  0.33346756  0.87196207  1
