# generated using pymatgen
data_Gd19Ta56(WO20)8
_symmetry_space_group_name_H-M   'P 1'
_cell_length_a   15.51116642
_cell_length_b   15.50417829
_cell_length_c   15.36490788
_cell_angle_alpha   90.12928005
_cell_angle_beta   90.14935092
_cell_angle_gamma   90.03227170
_symmetry_Int_Tables_number   1
_chemical_formula_structural   Gd19Ta56(WO20)8
_chemical_formula_sum   'Gd19 Ta56 W8 O160'
_cell_volume   3695.05171387
_cell_formula_units_Z   1
loop_
 _symmetry_equiv_pos_site_id
 _symmetry_equiv_pos_as_xyz
  1  'x, y, z'
loop_
 _atom_type_symbol
 _atom_type_oxidation_number
  Gd3+  3.0
  Ta5+  5.0
  W6+  6.0
  O2-  -2.0
loop_
 _atom_site_type_symbol
 _atom_site_label
 _atom_site_symmetry_multiplicity
 _atom_site_fract_x
 _atom_site_fract_y
 _atom_site_fract_z
 _atom_site_occupancy
  Gd3+  Gd0  1  0.47683487  0.74730944  0.76239163  1
  Gd3+  Gd1  1  -0.01549255  0.72174200  0.26509424  1
  Gd3+  Gd2  1  0.74489387  0.76686645  0.49763426  1
  Gd3+  Gd3  1  0.02850092  0.76003664  -0.02047134  1
  Gd3+  Gd4  1  0.74291872  0.75647046  0.76110689  1
  Gd3+  Gd5  1  0.25860446  0.25301034  -0.00170381  1
  Gd3+  Gd6  1  0.49167755  0.25190763  0.50464073  1
  Gd3+  Gd7  1  0.49900048  0.72849952  0.50595871  1
  Gd3+  Gd8  1  0.50848434  0.24630158  0.26048803  1
  Gd3+  Gd9  1  0.26005893  0.26185428  0.25519102  1
  Gd3+  Gd10  1  0.49753797  0.72937724  0.00536702  1
  Gd3+  Gd11  1  -0.01357129  0.24398244  0.25815071  1
  Gd3+  Gd12  1  0.73605871  0.23712561  0.02508124  1
  Gd3+  Gd13  1  0.26901167  0.74589129  0.26161283  1
  Gd3+  Gd14  1  0.48844801  0.25426332  0.75696097  1
  Gd3+  Gd15  1  0.23231365  0.25256935  0.50290771  1
  Gd3+  Gd16  1  0.00408314  0.24599388  0.75981732  1
  Gd3+  Gd17  1  0.73901452  0.24710693  0.47640525  1
  Gd3+  Gd18  1  -0.00409292  0.24997394  0.50299111  1
  Ta5+  Ta19  1  0.86491823  0.87288842  0.89162718  1
  Ta5+  Ta20  1  0.38832519  0.87088660  0.13215324  1
  Ta5+  Ta21  1  0.18478082  0.87334214  0.87356961  1
  Ta5+  Ta22  1  0.38006930  0.39010788  0.87928174  1
  Ta5+  Ta23  1  0.61968867  0.62131096  0.63716388  1
  Ta5+  Ta24  1  0.60595036  0.88960350  0.63926101  1
  Ta5+  Ta25  1  0.12789438  0.63599631  0.12865452  1
  Ta5+  Ta26  1  0.61551581  0.87601562  0.88485456  1
  Ta5+  Ta27  1  0.36139995  0.11367482  0.38120984  1
  Ta5+  Ta28  1  0.12448436  0.11600524  0.63148619  1
  Ta5+  Ta29  1  0.89851692  0.11857493  0.88461467  1
  Ta5+  Ta30  1  0.13900630  0.11545153  0.37469261  1
  Ta5+  Ta31  1  0.84925675  0.12948046  0.63914856  1
  Ta5+  Ta32  1  0.88471007  0.38155438  0.89065828  1
  Ta5+  Ta33  1  0.13363843  0.86750978  0.38936740  1
  Ta5+  Ta34  1  0.39669846  0.11517330  0.88303059  1
  Ta5+  Ta35  1  0.65832289  0.62472858  0.37332357  1
  Ta5+  Ta36  1  0.64534534  0.13272915  0.64630607  1
  Ta5+  Ta37  1  0.11941876  0.38313630  0.88338315  1
  Ta5+  Ta38  1  0.36072391  0.11193455  0.63116749  1
  Ta5+  Ta39  1  0.61859286  0.11212949  0.38454351  1
  Ta5+  Ta40  1  0.12454762  0.86366996  0.63244240  1
  Ta5+  Ta41  1  0.36506056  0.86965691  0.62840626  1
  Ta5+  Ta42  1  0.87078800  0.62952222  0.62872174  1
  Ta5+  Ta43  1  0.41412761  0.86694374  0.37885756  1
  Ta5+  Ta44  1  0.37203630  0.61495409  0.63662021  1
  Ta5+  Ta45  1  0.63798267  0.38398705  0.14918982  1
  Ta5+  Ta46  1  0.37664736  0.11804520  0.12874323  1
  Ta5+  Ta47  1  0.38180803  0.59796861  0.38292881  1
  Ta5+  Ta48  1  0.11738713  0.11923004  0.12618172  1
  Ta5+  Ta49  1  0.35320611  0.87375796  0.88430490  1
  Ta5+  Ta50  1  0.87969086  0.88395532  0.63449368  1
  Ta5+  Ta51  1  0.88391262  0.38304523  0.12396946  1
  Ta5+  Ta52  1  0.82778540  0.61995298  0.37172503  1
  Ta5+  Ta53  1  0.11455356  0.61348163  0.63071718  1
  Ta5+  Ta54  1  0.56627143  0.11797128  0.88933035  1
  Ta5+  Ta55  1  0.64942069  0.61383855  0.88363139  1
  Ta5+  Ta56  1  0.61865442  0.10718076  0.13083393  1
  Ta5+  Ta57  1  0.87368589  0.38616429  0.37769981  1
  Ta5+  Ta58  1  0.88796144  0.87209985  0.13911315  1
  Ta5+  Ta59  1  0.87053140  0.38357785  0.63726727  1
  Ta5+  Ta60  1  0.58404952  0.87075825  0.38110740  1
  Ta5+  Ta61  1  0.37432554  0.61356921  0.13006885  1
  Ta5+  Ta62  1  0.63328389  0.37517945  0.63334330  1
  Ta5+  Ta63  1  0.34616047  0.37619339  0.63903647  1
  Ta5+  Ta64  1  0.13993844  0.11727036  0.88295739  1
  Ta5+  Ta65  1  0.83257265  0.62793446  0.12576379  1
  Ta5+  Ta66  1  0.63255299  0.38392275  0.35423340  1
  Ta5+  Ta67  1  0.13140337  0.38963480  0.13149000  1
  Ta5+  Ta68  1  0.87742184  0.11424886  0.38175961  1
  Ta5+  Ta69  1  0.66431189  0.62445246  0.12486355  1
  Ta5+  Ta70  1  0.32374473  0.62873818  0.88220140  1
  Ta5+  Ta71  1  0.39173662  0.40090820  0.39265088  1
  Ta5+  Ta72  1  0.61349938  0.37456226  0.89304384  1
  Ta5+  Ta73  1  0.87197101  0.63035957  0.89101039  1
  Ta5+  Ta74  1  0.14756538  0.87547141  0.12924741  1
  W6+  W75  1  0.61544084  0.85864971  0.13612908  1
  W6+  W76  1  0.11833043  0.39129659  0.38058893  1
  W6+  W77  1  0.16199807  0.63137012  0.87084627  1
  W6+  W78  1  0.38126074  0.38173751  0.13119930  1
  W6+  W79  1  0.86710478  0.11325770  0.12446601  1
  W6+  W80  1  0.13626782  0.63566528  0.39680531  1
  W6+  W81  1  0.14228749  0.38388278  0.63989529  1
  W6+  W82  1  0.88766529  0.87041507  0.37787840  1
  O2-  O83  1  0.14955832  -0.00160339  0.14085033  1
  O2-  O84  1  0.12028482  -0.00433040  0.37952519  1
  O2-  O85  1  0.10658163  -0.00093996  0.62359742  1
  O2-  O86  1  0.16401883  0.00059229  0.87598968  1
  O2-  O87  1  0.12115267  0.51170567  0.13259814  1
  O2-  O88  1  0.10813391  0.51058725  0.37378305  1
  O2-  O89  1  0.07338018  0.49737690  0.63105785  1
  O2-  O90  1  0.15344088  0.49493214  0.88076589  1
  O2-  O91  1  0.36892141  -0.00265434  0.14481475  1
  O2-  O92  1  0.39005444  -0.00136517  0.37205783  1
  O2-  O93  1  0.33465694  -0.00591770  0.63172359  1
  O2-  O94  1  0.37484226  -0.00546062  0.87423573  1
  O2-  O95  1  0.42663116  0.50693694  0.13264329  1
  O2-  O96  1  0.30508161  0.48923977  0.39604843  1
  O2-  O97  1  0.34146764  0.50003985  0.65237171  1
  O2-  O98  1  0.33975057  0.50396229  0.86613376  1
  O2-  O99  1  0.61968198  -0.01025967  0.12112135  1
  O2-  O100  1  0.59600361  -0.00183764  0.41078001  1
  O2-  O101  1  0.61824505  0.01330278  0.62868139  1
  O2-  O102  1  0.58688809  -0.00837846  0.89054397  1
  O2-  O103  1  0.64858798  0.50173041  0.11620023  1
  O2-  O104  1  0.63310151  0.49895317  0.39032107  1
  O2-  O105  1  0.63836056  0.49413875  0.62225250  1
  O2-  O106  1  0.65963393  0.49340433  0.88336775  1
  O2-  O107  1  0.83789013  -0.02102093  0.13508944  1
  O2-  O108  1  0.90197516  -0.00034101  0.39495629  1
  O2-  O109  1  0.87268268  0.00503200  0.63811427  1
  O2-  O110  1  0.89018985  -0.00737840  0.88568568  1
  O2-  O111  1  0.84715298  0.49809641  0.10966034  1
  O2-  O112  1  0.88370917  0.50524291  0.39333350  1
  O2-  O113  1  0.85927133  0.50489888  0.63004275  1
  O2-  O114  1  0.87284600  0.50768320  0.89294743  1
  O2-  O115  1  0.15829369  0.24217100  0.13064320  1
  O2-  O116  1  0.16128764  0.25148667  0.37431173  1
  O2-  O117  1  0.07899982  0.23961824  0.63415145  1
  O2-  O118  1  0.15209821  0.25081654  0.87765175  1
  O2-  O119  1  0.07365173  0.76365855  0.13018180  1
  O2-  O120  1  0.06610360  0.76467046  0.39170629  1
  O2-  O121  1  0.12570417  0.74470774  0.63289138  1
  O2-  O122  1  0.12694338  0.76328194  0.86715968  1
  O2-  O123  1  0.33812298  0.24503384  0.12531316  1
  O2-  O124  1  0.34803591  0.26108155  0.41230788  1
  O2-  O125  1  0.39158769  0.25105632  0.62646487  1
  O2-  O126  1  0.37822752  0.25640941  0.87466397  1
  O2-  O127  1  0.40972820  0.73884331  0.13074191  1
  O2-  O128  1  0.41077798  0.72807428  0.38485505  1
  O2-  O129  1  0.40107720  0.74444511  0.62054726  1
  O2-  O130  1  0.39586126  0.74394723  0.89019208  1
  O2-  O131  1  0.61527030  0.25761500  0.14295194  1
  O2-  O132  1  0.64407713  0.25105093  0.36001183  1
  O2-  O133  1  0.58035061  0.24726702  0.64067660  1
  O2-  O134  1  0.58108357  0.25181790  0.88375162  1
  O2-  O135  1  0.59430082  0.73112007  0.13179378  1
  O2-  O136  1  0.61858663  0.74751078  0.38482139  1
  O2-  O137  1  0.59797259  0.75267806  0.65500059  1
  O2-  O138  1  0.59514057  0.74169894  0.85964167  1
  O2-  O139  1  0.87236096  0.25576439  0.13301458  1
  O2-  O140  1  0.85647112  0.24937063  0.38566944  1
  O2-  O141  1  0.90256962  0.25025382  0.64627432  1
  O2-  O142  1  0.89312347  0.24967901  0.87106737  1
  O2-  O143  1  0.84291114  0.75758702  0.14615658  1
  O2-  O144  1  0.86728527  0.73951156  0.36878769  1
  O2-  O145  1  0.81995066  0.75663435  0.63165547  1
  O2-  O146  1  0.92089387  0.75792072  0.87146386  1
  O2-  O147  1  0.16994805  0.12480468  0.00723104  1
  O2-  O148  1  0.09482362  0.13711344  0.25075770  1
  O2-  O149  1  0.10956745  0.14112270  0.50656282  1
  O2-  O150  1  0.09985316  0.12680794  0.75625648  1
  O2-  O151  1  0.11758762  0.64495311  0.00471966  1
  O2-  O152  1  0.11847820  0.65881823  0.25607058  1
  O2-  O153  1  0.17413780  0.60981875  0.52715168  1
  O2-  O154  1  0.17559867  0.61056813  0.73469222  1
  O2-  O155  1  0.35244835  0.12334264  0.00580399  1
  O2-  O156  1  0.38769478  0.15792950  0.25808067  1
  O2-  O157  1  0.41390123  0.11707134  0.52062821  1
  O2-  O158  1  0.40549145  0.12464459  0.74591905  1
  O2-  O159  1  0.36655891  0.62243834  0.00262423  1
  O2-  O160  1  0.35505744  0.61985643  0.26072299  1
  O2-  O161  1  0.40361138  0.60922641  0.51099958  1
  O2-  O162  1  0.36277263  0.64873645  0.75947002  1
  O2-  O163  1  0.62606300  0.13382073  0.00318394  1
  O2-  O164  1  0.73625538  0.13892734  0.13969592  1
  O2-  O165  1  0.61048187  0.15786872  0.50839095  1
  O2-  O166  1  0.58661894  0.12425507  0.76020548  1
  O2-  O167  1  0.60710880  0.62773042  0.00024086  1
  O2-  O168  1  0.65975457  0.62353253  0.25191772  1
  O2-  O169  1  0.62780603  0.64383221  0.51279165  1
  O2-  O170  1  0.67019529  0.62124482  0.75236545  1
  O2-  O171  1  0.83022562  0.13055682  -0.01369855  1
  O2-  O172  1  0.89137063  0.12558139  0.26033172  1
  O2-  O173  1  0.89663844  0.13951537  0.51830753  1
  O2-  O174  1  0.90874079  0.11984743  0.75744490  1
  O2-  O175  1  0.90183535  0.65003193  0.01098291  1
  O2-  O176  1  0.86054704  0.61537951  0.24745070  1
  O2-  O177  1  0.82430569  0.63660336  0.51012616  1
  O2-  O178  1  0.85314454  0.63918908  0.75406408  1
  O2-  O179  1  0.15517072  0.36438528  0.00828582  1
  O2-  O180  1  0.10078976  0.35575642  0.24996042  1
  O2-  O181  1  0.10551805  0.35126998  0.50553381  1
  O2-  O182  1  0.07966188  0.37051902  0.76434388  1
  O2-  O183  1  0.13654671  0.87071639  0.00216129  1
  O2-  O184  1  0.15954126  0.85386494  0.26520949  1
  O2-  O185  1  0.16512092  0.87348187  0.51221083  1
  O2-  O186  1  0.17620229  0.88062771  0.74193141  1
  O2-  O187  1  0.34311363  0.37793148  -0.00202609  1
  O2-  O188  1  0.38050966  0.35264616  0.27181325  1
  O2-  O189  1  0.41716718  0.38710555  0.51964284  1
  O2-  O190  1  0.41841169  0.38154103  0.75104175  1
  O2-  O191  1  0.39457304  0.86989308  0.00807209  1
  O2-  O192  1  0.36889010  0.85217951  0.26006527  1
  O2-  O193  1  0.40033658  0.86859941  0.50464882  1
  O2-  O194  1  0.35862594  0.84931974  0.75423763  1
  O2-  O195  1  0.65061276  0.36184775  0.01173103  1
  O2-  O196  1  0.55353813  0.39321785  0.23956403  1
  O2-  O197  1  0.62079802  0.34613653  0.51069573  1
  O2-  O198  1  0.61003992  0.36803362  0.75787264  1
  O2-  O199  1  0.59119492  0.84484009  0.00342220  1
  O2-  O200  1  0.60064295  0.87891627  0.26262495  1
  O2-  O201  1  0.62420073  0.85682716  0.51740135  1
  O2-  O202  1  0.65741327  0.88175431  0.75545841  1
  O2-  O203  1  0.83137445  0.35787417  0.00135689  1
  O2-  O204  1  0.88687321  0.38401384  0.25183201  1
  O2-  O205  1  0.89590844  0.36741489  0.51563207  1
  O2-  O206  1  0.89554372  0.38213911  0.76034813  1
  O2-  O207  1  0.91173695  0.86069736  0.01211765  1
  O2-  O208  1  0.94818752  0.86321088  0.25022566  1
  O2-  O209  1  0.84379436  0.87261635  0.51385977  1
  O2-  O210  1  0.84796562  0.86850299  0.75601453  1
  O2-  O211  1  0.01604732  0.12422361  -0.08973050  1
  O2-  O212  1  0.00400513  0.11842976  0.09761624  1
  O2-  O213  1  0.00545024  0.15676046  0.38219292  1
  O2-  O214  1  -0.00314673  -0.13650027  0.63752992  1
  O2-  O215  1  0.00135638  0.38251845  -0.07810647  1
  O2-  O216  1  0.00189442  0.38065660  0.10495515  1
  O2-  O217  1  -0.00669258  0.33693582  0.37657761  1
  O2-  O218  1  -0.01346201  0.64870509  0.61846627  1
  O2-  O219  1  0.26208124  -0.16429199  0.12762576  1
  O2-  O220  1  0.24670528  0.11615425  0.30177179  1
  O2-  O221  1  0.25866399  0.11094341  0.45747843  1
  O2-  O222  1  0.24333271  0.15208758  0.63522273  1
  O2-  O223  1  0.24870551  0.65048033  0.13337360  1
  O2-  O224  1  0.24988950  0.39067229  0.16375391  1
  O2-  O225  1  0.25309054  0.38655322  0.55458933  1
  O2-  O226  1  0.25217074  0.33937261  0.70961787  1
  O2-  O227  1  0.49439147  0.13783252  0.12152277  1
  O2-  O228  1  0.59957421  0.11393810  0.25972029  1
  O2-  O229  1  0.49222401  0.15751852  0.38344665  1
  O2-  O230  1  0.48817052  -0.10522085  0.65738202  1
  O2-  O231  1  0.49795735  0.40896596  -0.09009090  1
  O2-  O232  1  0.46065982  0.50604565  0.36680068  1
  O2-  O233  1  0.51113842  0.34193927  0.38395288  1
  O2-  O234  1  0.49953910  0.60645301  0.66106446  1
  O2-  O235  1  0.74542753  -0.13820248  -0.09861779  1
  O2-  O236  1  0.74710016  0.11357195  0.38861433  1
  O2-  O237  1  0.74747189  0.11299892  0.56742797  1
  O2-  O238  1  0.74762090  0.16445979  0.71369164  1
  O2-  O239  1  0.75646243  0.68200500  -0.10169907  1
  O2-  O240  1  0.71174915  0.38085798  0.24899813  1
  O2-  O241  1  0.75320918  0.38013653  0.41073697  1
  O2-  O242  1  0.75306350  0.34580004  0.63262939  1
