# generated using pymatgen
data_Gd19Ta56(WO20)8
_symmetry_space_group_name_H-M   'P 1'
_cell_length_a   15.47017464
_cell_length_b   15.44586730
_cell_length_c   15.39084467
_cell_angle_alpha   89.95351622
_cell_angle_beta   89.88812403
_cell_angle_gamma   90.14566918
_symmetry_Int_Tables_number   1
_chemical_formula_structural   Gd19Ta56(WO20)8
_chemical_formula_sum   'Gd19 Ta56 W8 O160'
_cell_volume   3677.62628583
_cell_formula_units_Z   1
loop_
 _symmetry_equiv_pos_site_id
 _symmetry_equiv_pos_as_xyz
  1  'x, y, z'
loop_
 _atom_type_symbol
 _atom_type_oxidation_number
  Gd3+  3.0
  Ta5+  5.0
  W6+  6.0
  O2-  -2.0
loop_
 _atom_site_type_symbol
 _atom_site_label
 _atom_site_symmetry_multiplicity
 _atom_site_fract_x
 _atom_site_fract_y
 _atom_site_fract_z
 _atom_site_occupancy
  Gd3+  Gd0  1  0.27522183  0.25562933  0.25511571  1
  Gd3+  Gd1  1  0.48650426  0.76245955  0.46459026  1
  Gd3+  Gd2  1  0.01523921  0.75541821  0.74831324  1
  Gd3+  Gd3  1  0.24688226  0.26322731  0.73693915  1
  Gd3+  Gd4  1  0.72270650  0.23984474  0.74562650  1
  Gd3+  Gd5  1  0.71895306  0.75154582  0.49183023  1
  Gd3+  Gd6  1  0.72364381  0.74705432  0.26134571  1
  Gd3+  Gd7  1  0.28323554  0.74116425  0.26525216  1
  Gd3+  Gd8  1  -0.00485239  0.26195391  0.75752971  1
  Gd3+  Gd9  1  0.24583668  0.25612519  0.00465485  1
  Gd3+  Gd10  1  -0.00697906  0.25774946  0.00578021  1
  Gd3+  Gd11  1  0.73860510  0.23596939  0.00367406  1
  Gd3+  Gd12  1  0.03632968  0.76710846  -0.00647900  1
  Gd3+  Gd13  1  0.70717307  0.24302974  0.24421913  1
  Gd3+  Gd14  1  0.71380520  0.71664103  0.02579886  1
  Gd3+  Gd15  1  0.50074422  0.21799900  0.00537025  1
  Gd3+  Gd16  1  0.52057422  0.74633697  0.72672812  1
  Gd3+  Gd17  1  0.28418280  0.75308447  -0.00192145  1
  Gd3+  Gd18  1  0.25181810  0.76222949  0.77547061  1
  Ta5+  Ta19  1  0.39535956  0.12162450  0.37936190  1
  Ta5+  Ta20  1  0.87601809  0.87475182  0.61573644  1
  Ta5+  Ta21  1  0.58055947  0.36353244  0.37421975  1
  Ta5+  Ta22  1  0.10500197  0.11545448  0.12887170  1
  Ta5+  Ta23  1  0.08896729  0.38251116  0.61424086  1
  Ta5+  Ta24  1  0.14161613  0.88238446  0.12994112  1
  Ta5+  Ta25  1  0.58717275  0.05772040  0.13231326  1
  Ta5+  Ta26  1  0.88938756  0.12996212  0.62003864  1
  Ta5+  Ta27  1  0.15393271  0.59352354  0.87673670  1
  Ta5+  Ta28  1  0.40466307  0.61314688  0.60789377  1
  Ta5+  Ta29  1  0.11182649  0.12510235  0.62649724  1
  Ta5+  Ta30  1  0.41112845  0.37079572  0.37993856  1
  Ta5+  Ta31  1  0.84407508  0.13088087  0.37939851  1
  Ta5+  Ta32  1  0.11699338  0.39921138  0.87603184  1
  Ta5+  Ta33  1  0.41411122  0.36366999  0.62488722  1
  Ta5+  Ta34  1  0.58451279  0.85587148  0.12788020  1
  Ta5+  Ta35  1  0.61065528  0.39841193  0.12172632  1
  Ta5+  Ta36  1  0.35259247  0.10668042  0.12553915  1
  Ta5+  Ta37  1  0.87550126  0.88062080  0.36549611  1
  Ta5+  Ta38  1  0.89621883  0.62169581  0.12837623  1
  Ta5+  Ta39  1  0.12298075  0.87589752  0.37670749  1
  Ta5+  Ta40  1  0.60940881  0.61333763  0.87772178  1
  Ta5+  Ta41  1  0.41698102  0.87356435  0.12669175  1
  Ta5+  Ta42  1  0.62548290  0.89184401  0.62468271  1
  Ta5+  Ta43  1  0.39748894  0.39389150  0.12531987  1
  Ta5+  Ta44  1  0.86574190  0.86973109  0.87853064  1
  Ta5+  Ta45  1  0.40413137  0.89440100  0.62091093  1
  Ta5+  Ta46  1  0.38026385  0.37640709  0.87408698  1
  Ta5+  Ta47  1  0.37946321  0.90658776  0.36434538  1
  Ta5+  Ta48  1  0.36368916  0.11655743  0.86509561  1
  Ta5+  Ta49  1  0.86397597  0.38567619  0.86404200  1
  Ta5+  Ta50  1  0.58083196  0.35456504  0.61653330  1
  Ta5+  Ta51  1  0.64048337  0.55661141  0.37804624  1
  Ta5+  Ta52  1  0.10262606  0.37756537  0.13949933  1
  Ta5+  Ta53  1  0.40284801  0.61976548  0.86439223  1
  Ta5+  Ta54  1  0.43800410  0.56880174  0.35594972  1
  Ta5+  Ta55  1  0.56515994  0.12271959  0.37421722  1
  Ta5+  Ta56  1  0.13152038  0.12635109  0.37852197  1
  Ta5+  Ta57  1  0.87427715  0.63311292  0.61993318  1
  Ta5+  Ta58  1  0.15752902  0.62359647  0.62601950  1
  Ta5+  Ta59  1  0.39764090  0.62047329  0.12095237  1
  Ta5+  Ta60  1  0.57714190  0.13603615  0.62181822  1
  Ta5+  Ta61  1  0.15669204  0.88266941  0.62433965  1
  Ta5+  Ta62  1  0.16616416  0.94599101  0.87511391  1
  Ta5+  Ta63  1  0.85284284  0.38430662  0.12889361  1
  Ta5+  Ta64  1  0.40797037  0.14297194  0.62254258  1
  Ta5+  Ta65  1  0.11791264  0.63506101  0.37966914  1
  Ta5+  Ta66  1  0.61827129  0.37423291  0.87137589  1
  Ta5+  Ta67  1  0.41547670  0.87783643  0.87570420  1
  Ta5+  Ta68  1  0.63331342  0.59884513  0.62420682  1
  Ta5+  Ta69  1  0.62455345  0.89838083  0.36825716  1
  Ta5+  Ta70  1  0.91010218  0.93998950  0.11853459  1
  Ta5+  Ta71  1  0.86326116  0.63111663  0.87433880  1
  Ta5+  Ta72  1  0.91847367  0.38931841  0.61285489  1
  Ta5+  Ta73  1  0.61826676  0.86403814  0.88246196  1
  Ta5+  Ta74  1  0.13829987  0.62263076  0.12966187  1
  W6+  W75  1  0.56317246  0.59859452  0.13958710  1
  W6+  W76  1  0.11924368  0.13256045  0.86624598  1
  W6+  W77  1  0.88388290  0.13615883  0.12996070  1
  W6+  W78  1  0.61418002  0.10862444  0.87548531  1
  W6+  W79  1  0.82729374  0.38104779  0.38549307  1
  W6+  W80  1  0.87455822  0.62330416  0.37153500  1
  W6+  W81  1  0.86499322  0.12194160  0.85778035  1
  W6+  W82  1  0.14780059  0.38082845  0.37202759  1
  O2-  O83  1  0.16133687  0.00110654  0.11916971  1
  O2-  O84  1  0.14253423  -0.00378588  0.37425589  1
  O2-  O85  1  0.11172102  -0.00695392  0.63667261  1
  O2-  O86  1  0.06506537  0.00481031  0.85159671  1
  O2-  O87  1  0.11013418  0.50597230  0.14675786  1
  O2-  O88  1  0.13660431  0.51814962  0.36683483  1
  O2-  O89  1  0.12410848  0.50921106  0.63206770  1
  O2-  O90  1  0.05766056  0.51596638  0.86381050  1
  O2-  O91  1  0.35114938  -0.00914815  0.10429695  1
  O2-  O92  1  0.32323095  0.01099883  0.38065455  1
  O2-  O93  1  0.41287768  0.01270050  0.63380334  1
  O2-  O94  1  0.39810766  -0.00166120  0.87657406  1
  O2-  O95  1  0.34796995  0.50270493  0.10641398  1
  O2-  O96  1  0.35068324  0.49032810  0.37979639  1
  O2-  O97  1  0.41034896  0.49374569  0.61725115  1
  O2-  O98  1  0.40312220  0.49682973  0.87483470  1
  O2-  O99  1  0.65693321  -0.03469329  0.10185368  1
  O2-  O100  1  0.64043649  0.01651611  0.38210746  1
  O2-  O101  1  0.59994631  0.00725722  0.62370423  1
  O2-  O102  1  0.58575315  -0.02205585  0.89151861  1
  O2-  O103  1  0.67055407  0.50407803  0.12981837  1
  O2-  O104  1  0.69561508  0.44855747  0.38879923  1
  O2-  O105  1  0.60552048  0.48176907  0.61785303  1
  O2-  O106  1  0.58648765  0.49349144  0.87202824  1
  O2-  O107  1  0.82458039  0.01625338  0.08937891  1
  O2-  O108  1  0.85861640  0.00264476  0.38079615  1
  O2-  O109  1  0.89138805  -0.00698797  0.61914094  1
  O2-  O110  1  0.86472310  -0.01395135  0.87419994  1
  O2-  O111  1  0.86194916  0.50766261  0.09766056  1
  O2-  O112  1  0.86978337  0.50152068  0.39432095  1
  O2-  O113  1  0.92273161  0.52540643  0.60752401  1
  O2-  O114  1  0.87449818  0.51244829  0.88725381  1
  O2-  O115  1  0.08956908  0.24892196  0.12853007  1
  O2-  O116  1  0.17245697  0.24210085  0.37035564  1
  O2-  O117  1  0.10118563  0.25363393  0.63366561  1
  O2-  O118  1  0.15516164  0.27335634  0.88045301  1
  O2-  O119  1  0.16528105  0.76349948  0.08796945  1
  O2-  O120  1  0.17583622  0.75739842  0.37887844  1
  O2-  O121  1  0.12837044  0.75777168  0.64270152  1
  O2-  O122  1  0.15007678  0.73051524  0.89312054  1
  O2-  O123  1  0.34361056  0.27300246  0.12296559  1
  O2-  O124  1  0.37879696  0.24937984  0.36178618  1
  O2-  O125  1  0.34261846  0.25530157  0.62511139  1
  O2-  O126  1  0.32387225  0.25064198  0.86982508  1
  O2-  O127  1  0.37145510  0.75008899  0.13376107  1
  O2-  O128  1  0.36663677  0.77508097  0.37842942  1
  O2-  O129  1  0.42498056  0.75116654  0.60399753  1
  O2-  O130  1  0.38745096  0.75005787  0.85235529  1
  O2-  O131  1  0.64339007  0.26801972  0.11497023  1
  O2-  O132  1  0.58379452  0.24077081  0.33711996  1
  O2-  O133  1  0.65101841  0.24197336  0.61662021  1
  O2-  O134  1  0.64139389  0.24701986  0.88622605  1
  O2-  O135  1  0.62250033  0.72896258  0.14851336  1
  O2-  O136  1  0.61780454  0.75609598  0.38177799  1
  O2-  O137  1  0.61986026  0.73794390  0.60757016  1
  O2-  O138  1  0.58270989  0.73909405  0.86535582  1
  O2-  O139  1  0.81702387  0.25798215  0.13318745  1
  O2-  O140  1  0.78895225  0.24512628  0.37743317  1
  O2-  O141  1  0.90611346  0.25636976  0.63819114  1
  O2-  O142  1  0.85733886  0.25828499  0.83027722  1
  O2-  O143  1  0.80248120  0.70148617  0.14310057  1
  O2-  O144  1  0.85628109  0.75481630  0.33814166  1
  O2-  O145  1  0.93658942  0.75088274  0.62503537  1
  O2-  O146  1  0.94337037  0.75406284  0.87814138  1
  O2-  O147  1  0.08731450  0.13878560  0.00344019  1
  O2-  O148  1  0.10382274  0.12173942  0.25326624  1
  O2-  O149  1  0.11634381  0.12583991  0.50316779  1
  O2-  O150  1  0.17279053  0.13513574  0.73613053  1
  O2-  O151  1  0.13544684  0.60631132  -0.00134399  1
  O2-  O152  1  0.13805284  0.66001272  0.25027341  1
  O2-  O153  1  0.14233694  0.64111008  0.50630512  1
  O2-  O154  1  0.12240181  0.64146820  0.75430377  1
  O2-  O155  1  0.35518532  0.14752980  -0.00224974  1
  O2-  O156  1  0.34740014  0.12248215  0.24885647  1
  O2-  O157  1  0.38713182  0.13396735  0.50158519  1
  O2-  O158  1  0.35054141  0.13559420  0.74467968  1
  O2-  O159  1  0.38609700  0.64229458  -0.00782419  1
  O2-  O160  1  0.38133852  0.62267931  0.25542172  1
  O2-  O161  1  0.43594024  0.62016154  0.47898443  1
  O2-  O162  1  0.42468822  0.62578748  0.73533163  1
  O2-  O163  1  0.60883370  0.11814104  0.02115107  1
  O2-  O164  1  0.62333222  0.11142670  0.23619251  1
  O2-  O165  1  0.57480423  0.13973931  0.49408949  1
  O2-  O166  1  0.61907198  0.13630984  0.74500736  1
  O2-  O167  1  0.60515336  0.62251469  0.00376188  1
  O2-  O168  1  0.55604243  0.59453131  0.28950060  1
  O2-  O169  1  0.65137279  0.60833360  0.49124321  1
  O2-  O170  1  0.60832757  0.61836486  0.74527263  1
  O2-  O171  1  0.88949375  0.16209887  -0.01008598  1
  O2-  O172  1  0.88148257  0.14001323  0.26683841  1
  O2-  O173  1  0.89040331  0.14053935  0.49789035  1
  O2-  O174  1  0.81403461  0.12293771  0.72107759  1
  O2-  O175  1  0.87436755  0.66152200  -0.00490445  1
  O2-  O176  1  0.91687211  0.60361557  0.24305029  1
  O2-  O177  1  0.84006700  0.66373188  0.50377604  1
  O2-  O178  1  0.90805109  0.64481605  0.75468188  1
  O2-  O179  1  0.12726775  0.37790093  0.01500915  1
  O2-  O180  1  0.17897634  0.36767443  0.23488709  1
  O2-  O181  1  0.11275883  0.37848808  0.49798719  1
  O2-  O182  1  0.11633343  0.37528327  0.75257789  1
  O2-  O183  1  0.12914818  0.89392786  -0.01806432  1
  O2-  O184  1  0.16219593  0.86364578  0.24894573  1
  O2-  O185  1  0.13570454  0.87302750  0.50376189  1
  O2-  O186  1  0.14172406  0.86974226  0.76741647  1
  O2-  O187  1  0.33544131  0.37358299  -0.00758689  1
  O2-  O188  1  0.37901515  0.37805004  0.24607664  1
  O2-  O189  1  0.40539794  0.35991629  0.50155871  1
  O2-  O190  1  0.35369786  0.37315547  0.75106827  1
  O2-  O191  1  0.40011702  0.84986964  0.00149530  1
  O2-  O192  1  0.34696580  0.87910145  0.24308063  1
  O2-  O193  1  0.40464656  0.89212053  0.49604708  1
  O2-  O194  1  0.42974589  0.87098305  0.74544076  1
  O2-  O195  1  0.65375764  0.38078072  -0.00377660  1
  O2-  O196  1  0.62529290  0.37209840  0.24580095  1
  O2-  O197  1  0.59571521  0.34047480  0.49287357  1
  O2-  O198  1  0.60240772  0.35034931  0.74796537  1
  O2-  O199  1  0.61609049  0.82665822  0.00713934  1
  O2-  O200  1  0.64658071  0.87420441  0.24677668  1
  O2-  O201  1  0.60487310  0.87389013  0.49973921  1
  O2-  O202  1  0.62676846  0.86368193  0.74959124  1
  O2-  O203  1  0.84839604  0.35269774  -0.00674738  1
  O2-  O204  1  0.81537594  0.38600143  0.24450279  1
  O2-  O205  1  0.85932986  0.36753558  0.51008256  1
  O2-  O206  1  0.91042315  0.39990085  0.74592794  1
  O2-  O207  1  0.90577218  0.86793013  0.00543660  1
  O2-  O208  1  0.87546212  0.89940042  0.22912729  1
  O2-  O209  1  0.89131113  0.86053721  0.49361104  1
  O2-  O210  1  0.89508920  0.85678487  0.75208386  1
  O2-  O211  1  -0.00898856  0.03558500  0.13032978  1
  O2-  O212  1  0.02278359  -0.14022672  0.12306601  1
  O2-  O213  1  0.00515002  -0.13103314  0.35808644  1
  O2-  O214  1  -0.00250252  0.12080887  0.68599426  1
  O2-  O215  1  -0.02425934  0.37373202  0.12756503  1
  O2-  O216  1  0.01299178  0.66767342  0.10353850  1
  O2-  O217  1  0.00323429  0.65479156  0.39246739  1
  O2-  O218  1  -0.00617951  0.35146244  0.89119657  1
  O2-  O219  1  0.23786451  0.04739848  -0.11351066  1
  O2-  O220  1  0.23021424  0.15355192  0.12140515  1
  O2-  O221  1  0.27707337  -0.13515303  0.64466264  1
  O2-  O222  1  0.27620972  -0.13360595  0.87701096  1
  O2-  O223  1  0.21506665  0.47586914  -0.11701103  1
  O2-  O224  1  0.25895583  0.63389898  0.12590079  1
  O2-  O225  1  0.27812047  0.63107462  0.63183097  1
  O2-  O226  1  0.27449892  0.62710119  0.83987383  1
  O2-  O227  1  0.47465699  0.13502852  0.12528285  1
  O2-  O228  1  0.50748656  -0.03510611  0.17032400  1
  O2-  O229  1  0.50090874  -0.10311101  0.35119948  1
  O2-  O230  1  0.48144430  0.15113506  0.87227418  1
  O2-  O231  1  0.49844271  0.34514607  0.06886095  1
  O2-  O232  1  0.50641406  0.46941818  0.15690860  1
  O2-  O233  1  0.52854418  0.48609525  0.40904430  1
  O2-  O234  1  0.49244874  0.33631784  0.89217665  1
  O2-  O235  1  0.74223872  0.12025736  -0.09476064  1
  O2-  O236  1  0.74928764  -0.13357667  0.39157174  1
  O2-  O237  1  0.75503947  -0.14318802  0.61272976  1
  O2-  O238  1  0.75091713  -0.16779659  0.89306275  1
  O2-  O239  1  0.74355017  0.39087769  -0.16056647  1
  O2-  O240  1  0.73848929  0.61774681  0.33027078  1
  O2-  O241  1  0.75907340  0.61440580  0.65232287  1
  O2-  O242  1  0.74203163  0.64272209  0.87481537  1
