# generated using pymatgen
data_Gd19Ta56(WO20)8
_symmetry_space_group_name_H-M   'P 1'
_cell_length_a   15.55309766
_cell_length_b   15.42945505
_cell_length_c   15.18101578
_cell_angle_alpha   90.47214757
_cell_angle_beta   89.98438266
_cell_angle_gamma   90.06534027
_symmetry_Int_Tables_number   1
_chemical_formula_structural   Gd19Ta56(WO20)8
_chemical_formula_sum   'Gd19 Ta56 W8 O160'
_cell_volume   3642.95053962
_cell_formula_units_Z   1
loop_
 _symmetry_equiv_pos_site_id
 _symmetry_equiv_pos_as_xyz
  1  'x, y, z'
loop_
 _atom_type_symbol
 _atom_type_oxidation_number
  Gd3+  3.0
  Ta5+  5.0
  W6+  6.0
  O2-  -2.0
loop_
 _atom_site_type_symbol
 _atom_site_label
 _atom_site_symmetry_multiplicity
 _atom_site_fract_x
 _atom_site_fract_y
 _atom_site_fract_z
 _atom_site_occupancy
  Gd3+  Gd0  1  0.25723246  0.74597486  0.49371297  1
  Gd3+  Gd1  1  -0.01426333  0.72840746  -0.00778295  1
  Gd3+  Gd2  1  0.01292055  0.28152859  0.26532332  1
  Gd3+  Gd3  1  -0.03623898  0.73449460  0.76008339  1
  Gd3+  Gd4  1  0.50109368  0.74419163  0.24487993  1
  Gd3+  Gd5  1  0.02407575  0.27006856  0.52525121  1
  Gd3+  Gd6  1  0.24490345  0.24297434  0.75061718  1
  Gd3+  Gd7  1  -0.00623616  0.75404454  0.52484169  1
  Gd3+  Gd8  1  0.75549895  0.22641026  0.22527807  1
  Gd3+  Gd9  1  0.48134822  0.23810799  0.74942497  1
  Gd3+  Gd10  1  0.49539176  0.76216531  0.75105326  1
  Gd3+  Gd11  1  0.01183140  0.27757104  -0.02163445  1
  Gd3+  Gd12  1  0.26304232  0.74525565  -0.01988273  1
  Gd3+  Gd13  1  0.73750466  0.75820513  0.24741569  1
  Gd3+  Gd14  1  0.50332439  0.26730639  0.27000405  1
  Gd3+  Gd15  1  0.51929543  0.73896647  -0.00743291  1
  Gd3+  Gd16  1  0.53438847  0.76541037  0.51109249  1
  Gd3+  Gd17  1  0.24622954  0.22209623  0.24566523  1
  Gd3+  Gd18  1  0.76036695  0.77688916  0.51705960  1
  Ta5+  Ta19  1  0.41877635  0.60874496  0.37745530  1
  Ta5+  Ta20  1  0.10500633  0.61568527  0.37820873  1
  Ta5+  Ta21  1  0.39336315  0.88094289  0.36994212  1
  Ta5+  Ta22  1  0.11883314  0.61440049  0.86218017  1
  Ta5+  Ta23  1  0.88252767  0.13861331  0.38865623  1
  Ta5+  Ta24  1  0.38520579  0.12199178  0.12403397  1
  Ta5+  Ta25  1  0.17694851  0.38220925  0.88084986  1
  Ta5+  Ta26  1  0.36316100  0.88626034  0.12851835  1
  Ta5+  Ta27  1  0.33974698  0.37726750  0.37249946  1
  Ta5+  Ta28  1  0.62872358  0.13680981  0.63239072  1
  Ta5+  Ta29  1  0.59137503  0.35237426  0.61259224  1
  Ta5+  Ta30  1  0.34623633  0.62327071  0.13421892  1
  Ta5+  Ta31  1  0.38392632  0.62950835  0.61618243  1
  Ta5+  Ta32  1  0.11918662  0.11949821  0.87159709  1
  Ta5+  Ta33  1  0.18455122  0.38417976  0.61635119  1
  Ta5+  Ta34  1  0.35322432  0.10035798  0.61967332  1
  Ta5+  Ta35  1  0.62452928  0.36369713  0.12235033  1
  Ta5+  Ta36  1  0.59946975  0.91856449  0.36523371  1
  Ta5+  Ta37  1  0.83476027  0.91020989  0.12296076  1
  Ta5+  Ta38  1  0.16169785  0.37944119  0.13150476  1
  Ta5+  Ta39  1  0.36266322  0.89582773  0.86235217  1
  Ta5+  Ta40  1  0.87975690  0.89367085  0.37501887  1
  Ta5+  Ta41  1  0.59144405  0.14110549  0.10634305  1
  Ta5+  Ta42  1  0.12212435  0.87780744  0.11853497  1
  Ta5+  Ta43  1  0.15134200  0.12039130  0.61453007  1
  Ta5+  Ta44  1  0.35828377  0.35690123  0.88869697  1
  Ta5+  Ta45  1  0.85354599  0.37199231  0.86097519  1
  Ta5+  Ta46  1  0.66882185  0.35386894  0.39327165  1
  Ta5+  Ta47  1  0.58974217  0.37534521  0.87788385  1
  Ta5+  Ta48  1  0.64085843  0.92285913  0.12042299  1
  Ta5+  Ta49  1  0.12306307  0.10902448  0.37221579  1
  Ta5+  Ta50  1  0.13601238  0.61878533  0.64045993  1
  Ta5+  Ta51  1  0.62503207  0.59827841  0.35874158  1
  Ta5+  Ta52  1  0.81474871  0.57612546  0.62801090  1
  Ta5+  Ta53  1  0.37803977  0.09763819  0.87415192  1
  Ta5+  Ta54  1  0.88606328  0.12499750  0.87470509  1
  Ta5+  Ta55  1  0.64902350  0.59248484  0.11519665  1
  Ta5+  Ta56  1  0.62655498  0.57693608  0.58354241  1
  Ta5+  Ta57  1  0.87177454  0.36846975  0.12566057  1
  Ta5+  Ta58  1  0.35267650  0.37395649  0.62331099  1
  Ta5+  Ta59  1  0.10152972  0.12097514  0.12345257  1
  Ta5+  Ta60  1  0.39363709  0.90392439  0.60541117  1
  Ta5+  Ta61  1  0.12194556  0.86601484  0.36827849  1
  Ta5+  Ta62  1  0.11016553  0.62528702  0.12444249  1
  Ta5+  Ta63  1  0.93550012  0.12980203  0.13057531  1
  Ta5+  Ta64  1  0.12861229  0.87953946  0.87126328  1
  Ta5+  Ta65  1  0.89478154  0.88976597  0.89322504  1
  Ta5+  Ta66  1  0.17290747  0.38393880  0.37008399  1
  Ta5+  Ta67  1  0.87256826  0.60710264  0.15682955  1
  Ta5+  Ta68  1  0.64786212  0.89597865  0.67826610  1
  Ta5+  Ta69  1  0.90192735  0.13153642  0.64301304  1
  Ta5+  Ta70  1  0.88199106  0.34975872  0.66142245  1
  Ta5+  Ta71  1  0.84263231  0.34353577  0.40138608  1
  Ta5+  Ta72  1  0.90538780  0.57657726  0.40119104  1
  Ta5+  Ta73  1  0.33212717  0.37313799  0.13495911  1
  Ta5+  Ta74  1  0.85117467  0.90281434  0.65868261  1
  W6+  W75  1  0.54459001  0.56005681  0.87388347  1
  W6+  W76  1  0.58651195  0.97408566  0.90375506  1
  W6+  W77  1  0.66047538  0.16424284  0.39141118  1
  W6+  W78  1  0.32152841  0.56905762  0.80317849  1
  W6+  W79  1  0.64716118  0.16787004  0.90422511  1
  W6+  W80  1  0.36484160  0.12295889  0.38023825  1
  W6+  W81  1  0.12102337  0.88360697  0.62654644  1
  W6+  W82  1  0.93820340  0.52657037  0.79075135  1
  O2-  O83  1  0.08287868  -0.00943910  0.10126675  1
  O2-  O84  1  0.15367269  -0.01672494  0.38986239  1
  O2-  O85  1  0.11262221  0.00867132  0.59649757  1
  O2-  O86  1  0.14009259  0.00229505  0.89928189  1
  O2-  O87  1  0.14321104  0.51057223  0.11551296  1
  O2-  O88  1  0.17759179  0.51868851  0.38020957  1
  O2-  O89  1  0.13630549  0.50113711  0.60672949  1
  O2-  O90  1  0.11900991  0.49410967  0.88829999  1
  O2-  O91  1  0.41344966  -0.00650668  0.13395640  1
  O2-  O92  1  0.36459122  -0.00482078  0.36709667  1
  O2-  O93  1  0.44289737  0.01563645  0.58196166  1
  O2-  O94  1  0.45403691  -0.01532105  0.88454528  1
  O2-  O95  1  0.33832459  0.50649735  0.13227401  1
  O2-  O96  1  0.36728380  0.50146362  0.36235949  1
  O2-  O97  1  0.37129549  0.50848108  0.62528407  1
  O2-  O98  1  0.28503742  0.46103271  0.88224856  1
  O2-  O99  1  0.58293909  0.02505127  0.15610808  1
  O2-  O100  1  0.63576337  0.02858944  0.37991254  1
  O2-  O101  1  0.62360949  0.01413255  0.64553893  1
  O2-  O102  1  0.67991118  0.04745183  0.87102108  1
  O2-  O103  1  0.59712790  0.48396034  0.14352426  1
  O2-  O104  1  0.65856179  0.48177898  0.38290263  1
  O2-  O105  1  0.56238818  0.47260607  0.59469482  1
  O2-  O106  1  0.64427972  0.48337977  0.85026537  1
  O2-  O107  1  0.90530046  0.01151470  0.13669175  1
  O2-  O108  1  0.84994306  0.01097265  0.38646229  1
  O2-  O109  1  0.91438727  0.00617106  0.63699264  1
  O2-  O110  1  0.85142801  0.00590764  0.90333656  1
  O2-  O111  1  0.90048275  0.47893358  0.16050273  1
  O2-  O112  1  0.84401984  0.46909933  0.40830247  1
  O2-  O113  1  0.88856017  0.48074852  0.65484540  1
  O2-  O114  1  0.83171610  0.48898634  0.87046693  1
  O2-  O115  1  0.13079310  0.25118543  0.15159443  1
  O2-  O116  1  0.13571038  0.24780445  0.34928945  1
  O2-  O117  1  0.14387742  0.25523784  0.63434236  1
  O2-  O118  1  0.12872763  0.25568478  0.85884183  1
  O2-  O119  1  0.06241958  0.76617816  0.12030391  1
  O2-  O120  1  0.16847205  0.74069289  0.37023165  1
  O2-  O121  1  0.07926344  0.74426387  0.64896980  1
  O2-  O122  1  0.08758668  0.74853359  0.85426456  1
  O2-  O123  1  0.35570828  0.24406088  0.13606852  1
  O2-  O124  1  0.37099024  0.25109205  0.35112655  1
  O2-  O125  1  0.35519077  0.23660208  0.64610056  1
  O2-  O126  1  0.35237792  0.22624012  0.86299455  1
  O2-  O127  1  0.43531340  0.78445673  0.11870956  1
  O2-  O128  1  0.43246137  0.74514540  0.38764203  1
  O2-  O129  1  0.39692774  0.76401748  0.58196466  1
  O2-  O130  1  0.43243190  0.79477279  0.88277538  1
  O2-  O131  1  0.54302950  0.26853110  0.11852434  1
  O2-  O132  1  0.57252332  0.26706404  0.39772988  1
  O2-  O133  1  0.54285079  0.23227429  0.60629020  1
  O2-  O134  1  0.54660610  0.25319521  0.88834996  1
  O2-  O135  1  0.60233430  0.70534166  0.14026069  1
  O2-  O136  1  0.61634470  0.72745134  0.33756764  1
  O2-  O137  1  0.65122613  0.78261981  0.62253237  1
  O2-  O138  1  0.56324282  0.68757907  0.85696850  1
  O2-  O139  1  0.95207405  0.26998563  0.12347472  1
  O2-  O140  1  0.94723571  0.25603021  0.39619172  1
  O2-  O141  1  0.95790215  0.24588735  0.66670672  1
  O2-  O142  1  0.90503573  0.25065295  0.87344979  1
  O2-  O143  1  0.85930379  0.72610538  0.16114217  1
  O2-  O144  1  0.80806279  0.78916604  0.37491917  1
  O2-  O145  1  0.88191691  0.78183601  0.63785574  1
  O2-  O146  1  0.87962508  0.76597612  0.88560397  1
  O2-  O147  1  0.10283643  0.15455548  -0.00471215  1
  O2-  O148  1  0.15083924  0.10037025  0.24547267  1
  O2-  O149  1  0.12059887  0.15725325  0.49326993  1
  O2-  O150  1  0.16209724  0.11569677  0.74828022  1
  O2-  O151  1  0.12099195  0.65521932  -0.00388310  1
  O2-  O152  1  0.09519016  0.62856744  0.25021152  1
  O2-  O153  1  0.11152564  0.64490993  0.50859078  1
  O2-  O154  1  0.04455176  0.60485749  0.73614725  1
  O2-  O155  1  0.37186071  0.11554929  0.00050058  1
  O2-  O156  1  0.33832610  0.11009009  0.24386616  1
  O2-  O157  1  0.33196600  0.13776316  0.50415334  1
  O2-  O158  1  0.40957052  0.10499557  0.74558727  1
  O2-  O159  1  0.39266887  0.65445471  0.02423898  1
  O2-  O160  1  0.37636849  0.65259388  0.25346127  1
  O2-  O161  1  0.34939823  0.62845923  0.48430234  1
  O2-  O162  1  0.37105176  0.67756025  0.73228700  1
  O2-  O163  1  0.68879837  0.18326871  0.04710542  1
  O2-  O164  1  0.62377503  0.16900434  0.24149003  1
  O2-  O165  1  0.68930966  0.15034554  0.52851923  1
  O2-  O166  1  0.62332594  0.17040466  0.75545167  1
  O2-  O167  1  0.59324416  0.59984163  0.00454423  1
  O2-  O168  1  0.69441942  0.60426277  0.24657490  1
  O2-  O169  1  0.66956039  0.64868534  0.48402747  1
  O2-  O170  1  0.51605517  0.64463404  0.62111758  1
  O2-  O171  1  0.91688989  0.14425011  0.00206266  1
  O2-  O172  1  0.88620529  0.15478492  0.25464327  1
  O2-  O173  1  0.89750436  0.14525848  0.51907775  1
  O2-  O174  1  0.84012421  0.12919251  0.75530374  1
  O2-  O175  1  0.98282500  0.61379686  0.09722007  1
  O2-  O176  1  0.86944690  0.60131967  0.28482233  1
  O2-  O177  1  0.86512330  0.62843119  0.52005781  1
  O2-  O178  1  0.86551748  0.63136417  0.73161379  1
  O2-  O179  1  0.14187505  0.35518229  0.00560349  1
  O2-  O180  1  0.11005050  0.39563011  0.25466618  1
  O2-  O181  1  0.14222229  0.35774638  0.49145607  1
  O2-  O182  1  0.18250308  0.38549981  0.74758299  1
  O2-  O183  1  0.15298954  0.84017198  -0.00192295  1
  O2-  O184  1  0.12944357  0.86770821  0.24634942  1
  O2-  O185  1  0.11821525  0.83573903  0.49952336  1
  O2-  O186  1  0.10361148  0.90185003  0.75473731  1
  O2-  O187  1  0.36467353  0.36099748  0.01387504  1
  O2-  O188  1  0.40098198  0.37714499  0.24619820  1
  O2-  O189  1  0.36275366  0.36625566  0.49710843  1
  O2-  O190  1  0.38612199  0.36325936  0.75659010  1
  O2-  O191  1  0.34596396  0.87769902  -0.00095413  1
  O2-  O192  1  0.34530384  0.84589591  0.25642050  1
  O2-  O193  1  0.32999115  0.87629073  0.48808297  1
  O2-  O194  1  0.38459089  0.87914179  0.73552594  1
  O2-  O195  1  0.63342148  0.37214665  -0.00341993  1
  O2-  O196  1  0.63915956  0.34793493  0.25456365  1
  O2-  O197  1  0.67151527  0.34107642  0.52279221  1
  O2-  O198  1  0.58327963  0.35397070  0.74195474  1
  O2-  O199  1  0.57472904  0.88222401  0.02182746  1
  O2-  O200  1  0.65711182  0.88798339  0.24990347  1
  O2-  O201  1  0.65514707  0.85000445  0.44925204  1
  O2-  O202  1  0.58962953  0.88229912  0.78887219  1
  O2-  O203  1  0.88890116  0.37139354  -0.00292195  1
  O2-  O204  1  0.86084893  0.33577946  0.26448757  1
  O2-  O205  1  0.87085944  0.33835089  0.53638076  1
  O2-  O206  1  0.79391874  0.33841203  0.74800653  1
  O2-  O207  1  0.89593819  0.85741632  0.03083383  1
  O2-  O208  1  0.85110983  0.88363831  0.24477309  1
  O2-  O209  1  0.89367711  0.86564497  0.49906876  1
  O2-  O210  1  0.92304409  0.88887168  0.77052813  1
  O2-  O211  1  0.01163883  -0.10820184  -0.07700188  1
  O2-  O212  1  0.00512684  0.09815128  0.36924224  1
  O2-  O213  1  0.00011122  -0.12531034  0.36265484  1
  O2-  O214  1  0.00183637  0.10325325  0.83799140  1
  O2-  O215  1  -0.00893654  0.61447195  -0.10844226  1
  O2-  O216  1  0.01144168  0.52277803  0.39076200  1
  O2-  O217  1  -0.01443465  0.68371826  0.39615077  1
  O2-  O218  1  -0.04486333  0.38827456  0.78211409  1
  O2-  O219  1  0.29718215  0.01028976  -0.14367074  1
  O2-  O220  1  0.24224090  -0.10268264  0.13090634  1
  O2-  O221  1  0.29650747  -0.01321047  0.63491988  1
  O2-  O222  1  0.24882928  -0.16294417  0.85645103  1
  O2-  O223  1  0.24709045  0.63395464  -0.10539287  1
  O2-  O224  1  0.23536798  0.67623085  0.12567964  1
  O2-  O225  1  0.25029822  0.66027797  0.61241031  1
  O2-  O226  1  0.19687550  0.59106118  0.75439276  1
  O2-  O227  1  0.56520538  0.08714801  -0.01055402  1
  O2-  O228  1  0.49972868  -0.11304453  0.28749189  1
  O2-  O229  1  0.49811897  -0.10304614  0.44880667  1
  O2-  O230  1  0.51604280  -0.13268168  0.62795756  1
  O2-  O231  1  0.48121124  0.42194537  -0.09425090  1
  O2-  O232  1  0.52098122  0.59008374  0.28809899  1
  O2-  O233  1  0.52184234  0.59694318  0.45132688  1
  O2-  O234  1  0.44568689  0.54705609  0.79931669  1
  O2-  O235  1  0.73222695  -0.17020536  0.11360871  1
  O2-  O236  1  0.74110645  -0.01079465  0.09033426  1
  O2-  O237  1  0.75240974  -0.08702473  0.58364715  1
  O2-  O238  1  0.75779155  -0.10395018  0.74565537  1
  O2-  O239  1  0.76936585  0.58457216  0.08617230  1
  O2-  O240  1  0.74995536  0.35384909  0.12348109  1
  O2-  O241  1  0.73189138  0.50470727  0.56737058  1
  O2-  O242  1  0.70067287  0.61980723  0.67460825  1
