# generated using pymatgen
data_Gd19Ta56(WO20)8
_symmetry_space_group_name_H-M   'P 1'
_cell_length_a   15.68025663
_cell_length_b   15.50814801
_cell_length_c   15.14211444
_cell_angle_alpha   90.05742282
_cell_angle_beta   90.00791920
_cell_angle_gamma   89.89826037
_symmetry_Int_Tables_number   1
_chemical_formula_structural   Gd19Ta56(WO20)8
_chemical_formula_sum   'Gd19 Ta56 W8 O160'
_cell_volume   3682.12663737
_cell_formula_units_Z   1
loop_
 _symmetry_equiv_pos_site_id
 _symmetry_equiv_pos_as_xyz
  1  'x, y, z'
loop_
 _atom_type_symbol
 _atom_type_oxidation_number
  Gd3+  3.0
  Ta5+  5.0
  W6+  6.0
  O2-  -2.0
loop_
 _atom_site_type_symbol
 _atom_site_label
 _atom_site_symmetry_multiplicity
 _atom_site_fract_x
 _atom_site_fract_y
 _atom_site_fract_z
 _atom_site_occupancy
  Gd3+  Gd0  1  -0.01699440  0.25280245  -0.03346813  1
  Gd3+  Gd1  1  0.26705695  0.75901541  0.73885513  1
  Gd3+  Gd2  1  0.51270901  0.24850005  0.77521045  1
  Gd3+  Gd3  1  0.25228419  0.24199815  0.48798112  1
  Gd3+  Gd4  1  0.75933458  0.27481050  0.01345123  1
  Gd3+  Gd5  1  0.50298552  0.74072120  0.23034270  1
  Gd3+  Gd6  1  0.24622395  0.75209128  0.26188772  1
  Gd3+  Gd7  1  0.49333392  0.73238991  0.82101777  1
  Gd3+  Gd8  1  0.04220940  0.76229514  0.78068932  1
  Gd3+  Gd9  1  -0.01169118  0.22247783  0.21651110  1
  Gd3+  Gd10  1  -0.03338007  0.74252318  0.47162720  1
  Gd3+  Gd11  1  0.24283107  0.74802543  0.50797369  1
  Gd3+  Gd12  1  0.28440412  0.24933317  0.73769005  1
  Gd3+  Gd13  1  -0.00514574  0.25312543  0.49721287  1
  Gd3+  Gd14  1  0.47950919  0.24601789  0.02147104  1
  Gd3+  Gd15  1  0.73816924  0.75003198  0.76511567  1
  Gd3+  Gd16  1  0.74267985  0.74538249  0.50172263  1
  Gd3+  Gd17  1  0.51767073  0.24744476  0.48687573  1
  Gd3+  Gd18  1  0.76441723  0.22239167  0.24467231  1
  Ta5+  Ta19  1  0.86742804  0.87802408  0.34341947  1
  Ta5+  Ta20  1  0.37010433  0.38767989  0.61109360  1
  Ta5+  Ta21  1  0.13691626  0.12069339  0.61989516  1
  Ta5+  Ta22  1  0.94588704  0.03703403  0.01955909  1
  Ta5+  Ta23  1  0.85582733  0.13480245  0.62129985  1
  Ta5+  Ta24  1  0.17766022  0.87368188  0.10902793  1
  Ta5+  Ta25  1  0.67682867  0.62703533  0.14080693  1
  Ta5+  Ta26  1  0.41095856  0.87403834  0.62450022  1
  Ta5+  Ta27  1  0.40913920  0.62666175  0.62624816  1
  Ta5+  Ta28  1  0.65151297  0.86318941  0.13543674  1
  Ta5+  Ta29  1  0.13714991  0.12682675  0.34861723  1
  Ta5+  Ta30  1  0.87376957  0.63132068  0.31650298  1
  Ta5+  Ta31  1  0.59817100  0.86789657  0.39282754  1
  Ta5+  Ta32  1  0.09122756  0.61887145  0.62195405  1
  Ta5+  Ta33  1  0.32269152  0.12081745  0.92813271  1
  Ta5+  Ta34  1  0.83694955  0.63388679  0.11404363  1
  Ta5+  Ta35  1  0.61386103  0.88445349  0.88928626  1
  Ta5+  Ta36  1  0.12692818  0.11859856  0.08945671  1
  Ta5+  Ta37  1  0.60938911  0.61048678  0.39447942  1
  Ta5+  Ta38  1  0.62306020  0.38554955  0.15297830  1
  Ta5+  Ta39  1  0.64742368  0.10554877  0.39106236  1
  Ta5+  Ta40  1  0.60964158  0.87586378  0.62651478  1
  Ta5+  Ta41  1  0.37445773  0.12556375  0.17095046  1
  Ta5+  Ta42  1  0.60866277  0.61800791  0.63426052  1
  Ta5+  Ta43  1  0.34870978  0.62585250  0.12680652  1
  Ta5+  Ta44  1  0.18461007  0.88537126  0.88008381  1
  Ta5+  Ta45  1  0.35707127  0.38607865  0.38739901  1
  Ta5+  Ta46  1  0.12469070  0.37625965  0.85290011  1
  Ta5+  Ta47  1  0.87997008  0.10767523  0.38775907  1
  Ta5+  Ta48  1  0.07844793  0.39066210  0.10413074  1
  Ta5+  Ta49  1  0.36256986  0.37337056  0.88650101  1
  Ta5+  Ta50  1  0.87249376  0.89148206  0.87010358  1
  Ta5+  Ta51  1  0.12942959  0.12206738  0.86464740  1
  Ta5+  Ta52  1  0.18050222  0.61463095  0.12219731  1
  Ta5+  Ta53  1  0.91885802  0.62407485  0.87514200  1
  Ta5+  Ta54  1  0.88745320  0.88551702  0.62402204  1
  Ta5+  Ta55  1  0.11944730  0.61245230  0.37332819  1
  Ta5+  Ta56  1  0.67029955  0.37485594  0.38905182  1
  Ta5+  Ta57  1  0.34527927  0.88313037  0.12578413  1
  Ta5+  Ta58  1  0.37995807  0.37970378  0.14887581  1
  Ta5+  Ta59  1  0.81387095  0.86717110  0.10833439  1
  Ta5+  Ta60  1  0.15504033  0.38240726  0.61537009  1
  Ta5+  Ta61  1  0.65952591  0.59247428  0.88783314  1
  Ta5+  Ta62  1  0.09417709  0.88291700  0.61775823  1
  Ta5+  Ta63  1  0.38535781  0.12745211  0.35676296  1
  Ta5+  Ta64  1  0.88826227  0.62060421  0.64723487  1
  Ta5+  Ta65  1  0.37065860  0.88258280  0.38529582  1
  Ta5+  Ta66  1  0.37530313  0.61510937  0.38924432  1
  Ta5+  Ta67  1  0.38215337  0.10917248  0.61240141  1
  Ta5+  Ta68  1  0.91043489  0.39567223  0.12092860  1
  Ta5+  Ta69  1  0.16843355  0.61810910  0.87172149  1
  Ta5+  Ta70  1  0.64493744  0.12203818  0.64339651  1
  Ta5+  Ta71  1  0.87413809  0.38780007  0.37013130  1
  Ta5+  Ta72  1  0.83140960  0.12970527  0.82799707  1
  Ta5+  Ta73  1  0.12261595  0.36563141  0.35323765  1
  Ta5+  Ta74  1  0.35063935  0.89265279  0.88468622  1
  W6+  W75  1  0.84525205  0.38604939  0.59643347  1
  W6+  W76  1  0.85907030  0.38995429  0.84839657  1
  W6+  W77  1  0.12777004  0.88104734  0.36948486  1
  W6+  W78  1  0.62316969  0.13079256  0.90623465  1
  W6+  W79  1  0.63223794  0.11171796  0.12503287  1
  W6+  W80  1  0.61780361  0.37349483  0.63743491  1
  W6+  W81  1  0.33266025  0.62157709  0.87770935  1
  W6+  W82  1  0.61773130  0.40180063  0.89647388  1
  O2-  O83  1  0.16038846  0.00531594  0.10275740  1
  O2-  O84  1  0.10594127  0.01535160  0.36197363  1
  O2-  O85  1  0.09718578  0.00644483  0.60759189  1
  O2-  O86  1  0.14331499  0.00044310  0.86067116  1
  O2-  O87  1  0.12647511  0.49929256  0.11905448  1
  O2-  O88  1  0.11523608  0.48509344  0.37543183  1
  O2-  O89  1  0.11148248  0.49582583  0.60918700  1
  O2-  O90  1  0.14668343  0.49615712  0.84270934  1
  O2-  O91  1  0.35414833  0.00825651  0.15659911  1
  O2-  O92  1  0.38303183  0.00074292  0.37251519  1
  O2-  O93  1  0.42750182  -0.00060793  0.62992514  1
  O2-  O94  1  0.37340853  0.02249958  0.88360694  1
  O2-  O95  1  0.34916717  0.49724424  0.14833655  1
  O2-  O96  1  0.31977316  0.50816931  0.37657398  1
  O2-  O97  1  0.40838782  0.50172999  0.62903665  1
  O2-  O98  1  0.35001448  0.48716906  0.87346509  1
  O2-  O99  1  0.63035089  -0.01919828  0.13251841  1
  O2-  O100  1  0.59535207  -0.00823448  0.38354381  1
  O2-  O101  1  0.63093846  -0.00234394  0.63762641  1
  O2-  O102  1  0.63347303  -0.00171099  0.89789088  1
  O2-  O103  1  0.65520103  0.50058594  0.16432237  1
  O2-  O104  1  0.66140243  0.50028565  0.38116795  1
  O2-  O105  1  0.59932943  0.50223862  0.62605878  1
  O2-  O106  1  0.72790568  0.49261972  0.87754593  1
  O2-  O107  1  0.85888961  -0.00959828  0.08619429  1
  O2-  O108  1  0.91713807  -0.00800163  0.37376693  1
  O2-  O109  1  0.85704333  0.00047944  0.61635391  1
  O2-  O110  1  0.82081651  0.00718141  0.84733726  1
  O2-  O111  1  0.87126098  0.50909731  0.12315736  1
  O2-  O112  1  0.87083434  0.50660215  0.34306754  1
  O2-  O113  1  0.83056893  0.52679815  0.60620779  1
  O2-  O114  1  0.92242948  0.50638603  0.86851768  1
  O2-  O115  1  0.06954720  0.25026668  0.08700341  1
  O2-  O116  1  0.06590849  0.24115030  0.35400884  1
  O2-  O117  1  0.18291280  0.24841394  0.62664596  1
  O2-  O118  1  0.09214106  0.24823725  0.86933759  1
  O2-  O119  1  0.17573985  0.74069899  0.12042500  1
  O2-  O120  1  0.15089144  0.74146677  0.37945912  1
  O2-  O121  1  0.08137547  0.74974296  0.61657701  1
  O2-  O122  1  0.16948570  0.75217352  0.86203547  1
  O2-  O123  1  0.35459492  0.25856547  0.16749753  1
  O2-  O124  1  0.38467245  0.25539734  0.39590558  1
  O2-  O125  1  0.36079062  0.25503557  0.59380473  1
  O2-  O126  1  0.38852184  0.22998291  0.89367763  1
  O2-  O127  1  0.38116676  0.75466520  0.13678074  1
  O2-  O128  1  0.33573090  0.74253818  0.39317901  1
  O2-  O129  1  0.35987344  0.75357131  0.61641689  1
  O2-  O130  1  0.35711024  0.76087147  0.86252236  1
  O2-  O131  1  0.66459773  0.25875289  0.14304031  1
  O2-  O132  1  0.65215924  0.23522872  0.38977034  1
  O2-  O133  1  0.57964879  0.23439443  0.62982522  1
  O2-  O134  1  0.57671970  0.26664332  0.91168525  1
  O2-  O135  1  0.61014076  0.73611899  0.13281790  1
  O2-  O136  1  0.62658289  0.73847777  0.41005123  1
  O2-  O137  1  0.66442230  0.75573723  0.63288019  1
  O2-  O138  1  0.63138848  0.72635523  0.86895034  1
  O2-  O139  1  0.86092245  0.26617179  0.12957828  1
  O2-  O140  1  0.88594702  0.24162574  0.39085349  1
  O2-  O141  1  0.88850054  0.25194670  0.60203849  1
  O2-  O142  1  0.81632359  0.25165021  0.86441612  1
  O2-  O143  1  0.85855997  0.75719283  0.12582867  1
  O2-  O144  1  0.90495641  0.76412737  0.31821819  1
  O2-  O145  1  0.86509324  0.74353185  0.61232302  1
  O2-  O146  1  0.91707173  0.77214412  0.85410803  1
  O2-  O147  1  0.05364263  0.11090083  -0.02919689  1
  O2-  O148  1  0.13264472  0.14521941  0.22276936  1
  O2-  O149  1  0.12301567  0.15317895  0.49107696  1
  O2-  O150  1  0.09929305  0.13048150  0.73685312  1
  O2-  O151  1  0.17254097  0.61249539  -0.00692882  1
  O2-  O152  1  0.17224985  0.61360781  0.26049558  1
  O2-  O153  1  0.15100988  0.62655888  0.50338244  1
  O2-  O154  1  0.15722142  0.64327789  0.72726253  1
  O2-  O155  1  0.37398972  0.14083623  0.04103613  1
  O2-  O156  1  0.46544707  0.13705530  0.26417130  1
  O2-  O157  1  0.41583215  0.12579461  0.49266568  1
  O2-  O158  1  0.40446983  0.15727125  0.72389194  1
  O2-  O159  1  0.36771203  0.62511115  0.00875057  1
  O2-  O160  1  0.38926059  0.64136762  0.26306844  1
  O2-  O161  1  0.33961770  0.61977946  0.51506721  1
  O2-  O162  1  0.33901332  0.63074793  0.73203621  1
  O2-  O163  1  0.54845986  0.12257701  0.01897592  1
  O2-  O164  1  0.66437339  0.11459210  0.26353990  1
  O2-  O165  1  0.59457157  0.11888707  0.50872172  1
  O2-  O166  1  0.59474469  0.12792628  0.76060746  1
  O2-  O167  1  0.67642144  0.61461401  0.01157238  1
  O2-  O168  1  0.60171510  0.63577222  0.27058105  1
  O2-  O169  1  0.66923284  0.61731600  0.51628871  1
  O2-  O170  1  0.67306975  0.61726166  0.74595667  1
  O2-  O171  1  0.89110544  0.12860964  -0.04686728  1
  O2-  O172  1  0.88059242  0.13104791  0.26318573  1
  O2-  O173  1  0.92804008  0.11643147  0.51031617  1
  O2-  O174  1  0.91589795  0.13115386  0.73908350  1
  O2-  O175  1  0.86691257  0.63948411  -0.01708987  1
  O2-  O176  1  0.77543575  0.63654646  0.24057254  1
  O2-  O177  1  0.84385870  0.66250956  0.43615532  1
  O2-  O178  1  0.84224174  0.64065298  0.76888702  1
  O2-  O179  1  0.07219262  0.38655023  -0.03287267  1
  O2-  O180  1  0.10731275  0.35658755  0.23075482  1
  O2-  O181  1  0.11941066  0.33911669  0.49481949  1
  O2-  O182  1  0.09584769  0.36173873  0.72546100  1
  O2-  O183  1  0.13286064  0.86513156  -0.00823007  1
  O2-  O184  1  0.15179129  0.86895689  0.23550296  1
  O2-  O185  1  0.16054229  0.87030281  0.51281138  1
  O2-  O186  1  0.15394912  0.86605610  0.73386100  1
  O2-  O187  1  0.37082057  0.36506511  0.01347845  1
  O2-  O188  1  0.41105587  0.39107439  0.27934161  1
  O2-  O189  1  0.43207815  0.38690508  0.49191606  1
  O2-  O190  1  0.39714010  0.34683239  0.75182388  1
  O2-  O191  1  0.38080420  0.88684224  0.00690938  1
  O2-  O192  1  0.34093476  0.86548838  0.26357924  1
  O2-  O193  1  0.34185485  0.88231086  0.51311806  1
  O2-  O194  1  0.35006205  0.88531700  0.73667967  1
  O2-  O195  1  0.50520887  0.37169984  0.12287989  1
  O2-  O196  1  0.60449449  0.36746189  0.27937272  1
  O2-  O197  1  0.60526518  0.36331336  0.49537513  1
  O2-  O198  1  0.58297705  0.37394600  0.76494155  1
  O2-  O199  1  0.64314084  0.84878597  0.00337037  1
  O2-  O200  1  0.62701841  0.85071603  0.27210329  1
  O2-  O201  1  0.67080148  0.87595835  0.50638969  1
  O2-  O202  1  0.65061326  0.86989298  0.76378524  1
  O2-  O203  1  0.88077980  0.36586502  -0.01082085  1
  O2-  O204  1  0.93067286  0.36255829  0.25500229  1
  O2-  O205  1  0.94100702  0.38878268  0.47981433  1
  O2-  O206  1  0.88432233  0.39378167  0.72204679  1
  O2-  O207  1  0.81495998  0.86078722  -0.02951139  1
  O2-  O208  1  0.80986634  0.90217994  0.23894401  1
  O2-  O209  1  0.84596340  0.85148502  0.47356617  1
  O2-  O210  1  0.82903574  0.86571569  0.73838579  1
  O2-  O211  1  -0.03426068  -0.05059252  -0.07298505  1
  O2-  O212  1  0.00152650  0.09386244  0.12152163  1
  O2-  O213  1  -0.01211435  -0.12532217  0.54210074  1
  O2-  O214  1  -0.01372502  -0.11640992  0.70480221  1
  O2-  O215  1  0.03733952  0.64965954  -0.11475162  1
  O2-  O216  1  0.00320580  0.63176479  0.35802046  1
  O2-  O217  1  -0.02070468  0.61990241  0.55317289  1
  O2-  O218  1  -0.00645498  0.62112678  0.71800133  1
  O2-  O219  1  0.20666097  0.14284793  -0.01507046  1
  O2-  O220  1  0.25516084  0.13593398  0.37515688  1
  O2-  O221  1  0.26089887  0.09722000  0.60899580  1
  O2-  O222  1  0.24744566  0.13888945  0.82146598  1
  O2-  O223  1  0.24237300  0.33551745  -0.13722219  1
  O2-  O224  1  0.24207176  0.33583917  0.35847112  1
  O2-  O225  1  0.27406328  0.38956132  0.52162234  1
  O2-  O226  1  0.25984382  0.39741432  0.68153989  1
  O2-  O227  1  0.49553018  -0.12922938  -0.12383195  1
  O2-  O228  1  0.48326936  -0.17077029  0.36506732  1
  O2-  O229  1  0.51661223  -0.12389754  0.53956906  1
  O2-  O230  1  0.50843027  -0.17493711  0.69310261  1
  O2-  O231  1  0.55908138  0.53407126  -0.11231839  1
  O2-  O232  1  0.49186162  0.58257525  0.40358369  1
  O2-  O233  1  0.51017106  0.66243482  0.55852091  1
  O2-  O234  1  0.50705004  0.63360935  0.71560673  1
  O2-  O235  1  0.70873170  0.14076193  0.01638184  1
  O2-  O236  1  0.76441900  0.07960059  0.40939095  1
  O2-  O237  1  0.74617036  0.14621553  0.56743566  1
  O2-  O238  1  0.75488436  0.12928151  0.72465991  1
  O2-  O239  1  0.66588564  0.38562624  0.02834961  1
  O2-  O240  1  0.76776647  0.35334579  0.30218574  1
  O2-  O241  1  0.77831188  0.38279933  0.46262429  1
  O2-  O242  1  0.73480470  0.34080423  0.63950651  1
