# generated using pymatgen
data_Gd19Ta56(WO20)8
_symmetry_space_group_name_H-M   'P 1'
_cell_length_a   15.52633455
_cell_length_b   15.55959092
_cell_length_c   15.31788582
_cell_angle_alpha   90.09445975
_cell_angle_beta   90.06000740
_cell_angle_gamma   90.02696214
_symmetry_Int_Tables_number   1
_chemical_formula_structural   Gd19Ta56(WO20)8
_chemical_formula_sum   'Gd19 Ta56 W8 O160'
_cell_volume   3700.53968269
_cell_formula_units_Z   1
loop_
 _symmetry_equiv_pos_site_id
 _symmetry_equiv_pos_as_xyz
  1  'x, y, z'
loop_
 _atom_type_symbol
 _atom_type_oxidation_number
  Gd3+  3.0
  Ta5+  5.0
  W6+  6.0
  O2-  -2.0
loop_
 _atom_site_type_symbol
 _atom_site_label
 _atom_site_symmetry_multiplicity
 _atom_site_fract_x
 _atom_site_fract_y
 _atom_site_fract_z
 _atom_site_occupancy
  Gd3+  Gd0  1  -0.00734799  0.75672173  0.01699003  1
  Gd3+  Gd1  1  0.47178662  0.24288919  0.49921481  1
  Gd3+  Gd2  1  0.23023649  0.24827568  0.26595329  1
  Gd3+  Gd3  1  0.00038338  0.25513281  0.75443221  1
  Gd3+  Gd4  1  -0.01264426  0.25115409  0.00047135  1
  Gd3+  Gd5  1  0.49994463  0.25355924  -0.00754997  1
  Gd3+  Gd6  1  0.25147835  0.27405285  0.00680357  1
  Gd3+  Gd7  1  0.25503092  0.73740652  0.76366670  1
  Gd3+  Gd8  1  0.49206156  0.24563238  0.75454127  1
  Gd3+  Gd9  1  0.72643018  0.23040296  0.75087048  1
  Gd3+  Gd10  1  0.01582646  0.25518984  0.51682495  1
  Gd3+  Gd11  1  0.51274632  0.74557657  0.24278694  1
  Gd3+  Gd12  1  0.76073778  0.24853142  0.26054725  1
  Gd3+  Gd13  1  0.24727982  0.73315425  0.50455755  1
  Gd3+  Gd14  1  0.75354084  0.74519523  0.25079620  1
  Gd3+  Gd15  1  0.23894148  0.74826941  0.00024319  1
  Gd3+  Gd16  1  0.77630881  0.73536253  0.51792723  1
  Gd3+  Gd17  1  0.77512521  0.25877776  0.50057069  1
  Gd3+  Gd18  1  0.24834677  0.75287605  0.25313481  1
  Ta5+  Ta19  1  0.08937935  0.12189491  0.37763881  1
  Ta5+  Ta20  1  0.10432019  0.87464668  0.87083672  1
  Ta5+  Ta21  1  0.60610648  0.87028848  0.86937716  1
  Ta5+  Ta22  1  0.38364808  0.61951470  0.11032878  1
  Ta5+  Ta23  1  0.62865716  0.37589722  0.12316156  1
  Ta5+  Ta24  1  0.38869490  0.62159113  0.63163532  1
  Ta5+  Ta25  1  0.14008991  0.11890168  0.87168666  1
  Ta5+  Ta26  1  0.85203874  0.39483113  0.88179901  1
  Ta5+  Ta27  1  0.62259165  0.12581283  0.12385959  1
  Ta5+  Ta28  1  0.62783690  0.86986614  0.63209879  1
  Ta5+  Ta29  1  0.11131810  0.38261084  0.13032731  1
  Ta5+  Ta30  1  0.64647299  0.10975428  0.61030249  1
  Ta5+  Ta31  1  0.60545478  0.12210178  0.37316545  1
  Ta5+  Ta32  1  0.34613525  0.11743427  0.87275467  1
  Ta5+  Ta33  1  0.62163197  0.62512781  0.63473109  1
  Ta5+  Ta34  1  0.86690621  0.12034562  0.87259371  1
  Ta5+  Ta35  1  0.10858882  0.87624485  0.39189923  1
  Ta5+  Ta36  1  0.89863900  0.62596184  0.37577924  1
  Ta5+  Ta37  1  0.62872578  0.62482430  0.11428555  1
  Ta5+  Ta38  1  0.64303854  0.39052203  0.88016864  1
  Ta5+  Ta39  1  0.09142922  0.62848610  0.86121587  1
  Ta5+  Ta40  1  0.87484534  0.39321590  0.63706902  1
  Ta5+  Ta41  1  0.37422347  0.37542411  0.38035294  1
  Ta5+  Ta42  1  0.56671202  0.62593801  0.87434647  1
  Ta5+  Ta43  1  0.60918921  0.36917523  0.37468351  1
  Ta5+  Ta44  1  0.15129803  0.38408385  0.62878783  1
  Ta5+  Ta45  1  0.13192889  0.11918320  0.63466063  1
  Ta5+  Ta46  1  0.87293722  0.62223471  0.11531614  1
  Ta5+  Ta47  1  0.11775255  0.61882164  0.12773627  1
  Ta5+  Ta48  1  0.87579476  0.88267468  0.12200670  1
  Ta5+  Ta49  1  0.63112344  0.38282508  0.62031313  1
  Ta5+  Ta50  1  0.38315743  0.61891009  0.37505236  1
  Ta5+  Ta51  1  0.89829598  0.87381702  0.63243427  1
  Ta5+  Ta52  1  0.92129772  0.12583073  0.37562280  1
  Ta5+  Ta53  1  0.35666143  0.11423611  0.37822303  1
  Ta5+  Ta54  1  0.39970507  0.62226630  0.88490203  1
  Ta5+  Ta55  1  0.37896135  0.87896904  0.12744858  1
  Ta5+  Ta56  1  0.12758923  0.61677480  0.38214744  1
  Ta5+  Ta57  1  0.12037047  0.38796824  0.87140499  1
  Ta5+  Ta58  1  0.86910065  0.12209945  0.12851584  1
  Ta5+  Ta59  1  0.35442696  0.37822441  0.63603057  1
  Ta5+  Ta60  1  0.92612508  0.63024177  0.85576899  1
  Ta5+  Ta61  1  0.11107349  0.11959524  0.12312089  1
  Ta5+  Ta62  1  0.63690873  0.87529140  0.38566648  1
  Ta5+  Ta63  1  0.93117335  0.62761939  0.64017745  1
  Ta5+  Ta64  1  0.39369361  0.87394863  0.38786823  1
  Ta5+  Ta65  1  0.38709343  0.86861843  0.63575860  1
  Ta5+  Ta66  1  0.37146299  0.12373914  0.12782251  1
  Ta5+  Ta67  1  0.10090681  0.62099513  0.64549671  1
  Ta5+  Ta68  1  0.36064756  0.10992428  0.63532374  1
  Ta5+  Ta69  1  0.13920249  0.87340040  0.63656593  1
  Ta5+  Ta70  1  0.37781315  0.87270748  0.88777647  1
  Ta5+  Ta71  1  0.07997474  0.37562544  0.37818060  1
  Ta5+  Ta72  1  0.86874122  0.38177940  0.12844524  1
  Ta5+  Ta73  1  0.85753591  0.11356471  0.62393375  1
  Ta5+  Ta74  1  0.93533610  0.88236935  0.86599412  1
  W6+  W75  1  0.59969509  0.10988974  0.86844597  1
  W6+  W76  1  0.36553827  0.37201280  0.13536208  1
  W6+  W77  1  0.63256827  0.87617805  0.11509482  1
  W6+  W78  1  0.13122646  0.88428521  0.13405027  1
  W6+  W79  1  0.63645315  0.61920513  0.38646202  1
  W6+  W80  1  0.35582142  0.38019485  0.85171459  1
  W6+  W81  1  0.86833290  0.88174737  0.37992506  1
  W6+  W82  1  0.91229662  0.37440186  0.37657924  1
  O2-  O83  1  0.16184067  0.01507672  0.11097623  1
  O2-  O84  1  0.11512337  -0.00125915  0.39337917  1
  O2-  O85  1  0.14427516  -0.00017681  0.63506576  1
  O2-  O86  1  0.11930490  0.00099870  0.87750109  1
  O2-  O87  1  0.14917339  0.49975299  0.11617901  1
  O2-  O88  1  0.10711963  0.49886421  0.37521127  1
  O2-  O89  1  0.14268801  0.50360835  0.62725161  1
  O2-  O90  1  0.09203005  0.50412808  0.87995604  1
  O2-  O91  1  0.39368893  0.00062088  0.12764761  1
  O2-  O92  1  0.34986593  -0.01347688  0.38016129  1
  O2-  O93  1  0.34923675  -0.01230525  0.63619194  1
  O2-  O94  1  0.36548212  -0.00078556  0.88475831  1
  O2-  O95  1  0.38657995  0.50338907  0.13020744  1
  O2-  O96  1  0.39967822  0.49936362  0.37285486  1
  O2-  O97  1  0.36592576  0.50244505  0.62855407  1
  O2-  O98  1  0.38775168  0.50524628  0.87432856  1
  O2-  O99  1  0.61232791  0.00937187  0.13945686  1
  O2-  O100  1  0.63637734  0.00656633  0.37747011  1
  O2-  O101  1  0.60665578  -0.00342323  0.61942146  1
  O2-  O102  1  0.56011014  -0.01872768  0.85574522  1
  O2-  O103  1  0.62982785  0.49743894  0.13020057  1
  O2-  O104  1  0.61376954  0.48555884  0.38229082  1
  O2-  O105  1  0.59521962  0.49814034  0.62879033  1
  O2-  O106  1  0.58742960  0.49230529  0.85740007  1
  O2-  O107  1  0.84375063  0.00203951  0.11597890  1
  O2-  O108  1  0.90398658  0.00953694  0.38339027  1
  O2-  O109  1  0.90428290  0.00421973  0.61779966  1
  O2-  O110  1  0.91621332  0.01273305  0.87195698  1
  O2-  O111  1  0.84398960  0.50258163  0.11352553  1
  O2-  O112  1  0.90367401  0.50835733  0.37795550  1
  O2-  O113  1  0.92089766  0.50216253  0.62199953  1
  O2-  O114  1  0.89672681  0.50230983  0.87280988  1
  O2-  O115  1  0.14214324  0.25077203  0.11862450  1
  O2-  O116  1  0.12509964  0.25050617  0.38984008  1
  O2-  O117  1  0.10180270  0.25362023  0.63782508  1
  O2-  O118  1  0.10416076  0.25320196  0.86609023  1
  O2-  O119  1  0.15239274  0.74336980  0.13023468  1
  O2-  O120  1  0.16112683  0.75349451  0.38361248  1
  O2-  O121  1  0.15887390  0.74526176  0.63715918  1
  O2-  O122  1  0.14766303  0.74906237  0.86597420  1
  O2-  O123  1  0.31793933  0.23920777  0.13519204  1
  O2-  O124  1  0.34592925  0.24181968  0.39489336  1
  O2-  O125  1  0.40267854  0.24311073  0.63054748  1
  O2-  O126  1  0.37887125  0.24021805  0.85364597  1
  O2-  O127  1  0.34073889  0.74312687  0.11992295  1
  O2-  O128  1  0.33828012  0.75965213  0.37973237  1
  O2-  O129  1  0.33924652  0.74853899  0.63321288  1
  O2-  O130  1  0.34851459  0.74836044  0.89129907  1
  O2-  O131  1  0.57693337  0.25521498  0.12214996  1
  O2-  O132  1  0.66887080  0.24358100  0.39097347  1
  O2-  O133  1  0.66534379  0.24959593  0.61212616  1
  O2-  O134  1  0.59993934  0.26027269  0.87475718  1
  O2-  O135  1  0.67029645  0.74239801  0.11592217  1
  O2-  O136  1  0.66652810  0.75399954  0.39328168  1
  O2-  O137  1  0.66456572  0.74885962  0.62531315  1
  O2-  O138  1  0.55938103  0.75758106  0.86200276  1
  O2-  O139  1  0.89798565  0.25171379  0.12276573  1
  O2-  O140  1  0.85502899  0.24427380  0.37634076  1
  O2-  O141  1  0.83945993  0.25238334  0.64474278  1
  O2-  O142  1  0.90413684  0.25224598  0.87392701  1
  O2-  O143  1  0.86390763  0.75108505  0.11796420  1
  O2-  O144  1  0.83792673  0.74431002  0.37921975  1
  O2-  O145  1  0.88028245  0.74929138  0.63207898  1
  O2-  O146  1  0.93123771  0.75723395  0.86695445  1
  O2-  O147  1  0.08422777  0.13692038  -0.00877521  1
  O2-  O148  1  0.12827506  0.13471893  0.25057235  1
  O2-  O149  1  0.08791675  0.12448712  0.51799938  1
  O2-  O150  1  0.08074494  0.12593084  0.75188379  1
  O2-  O151  1  0.10881950  0.64615419  -0.00210666  1
  O2-  O152  1  0.15518398  0.62826891  0.24942118  1
  O2-  O153  1  0.12168864  0.63633324  0.50826560  1
  O2-  O154  1  0.17491435  0.61554910  0.75636903  1
  O2-  O155  1  0.39739940  0.14121995  0.00039542  1
  O2-  O156  1  0.33534537  0.12081382  0.25616570  1
  O2-  O157  1  0.39361233  0.11296105  0.51370429  1
  O2-  O158  1  0.41511368  0.11230534  0.74866010  1
  O2-  O159  1  0.32251373  0.62072500  0.00086320  1
  O2-  O160  1  0.37240537  0.64580829  0.25019522  1
  O2-  O161  1  0.36853904  0.63691013  0.50544179  1
  O2-  O162  1  0.38249983  0.64169603  0.75613317  1
  O2-  O163  1  0.58891024  0.12751973  0.00489694  1
  O2-  O164  1  0.63717998  0.15090366  0.25599416  1
  O2-  O165  1  0.58116073  0.14001627  0.50366785  1
  O2-  O166  1  0.59857413  0.14532779  0.72501842  1
  O2-  O167  1  0.60556543  0.62262173  -0.00950669  1
  O2-  O168  1  0.63085605  0.64621403  0.24963139  1
  O2-  O169  1  0.67960016  0.61545078  0.52137989  1
  O2-  O170  1  0.63010995  0.62903589  0.75603163  1
  O2-  O171  1  0.88672832  0.13653358  -0.00369525  1
  O2-  O172  1  0.86122089  0.13383090  0.25407501  1
  O2-  O173  1  0.90668374  0.15491816  0.51092729  1
  O2-  O174  1  0.90162986  0.13766208  0.74630205  1
  O2-  O175  1  0.90065981  0.63531355  -0.00866101  1
  O2-  O176  1  0.85029606  0.63094793  0.24936575  1
  O2-  O177  1  0.89514136  0.63957137  0.50405644  1
  O2-  O178  1  0.86365436  0.61872632  0.74650777  1
  O2-  O179  1  0.09229774  0.36332435  -0.00035370  1
  O2-  O180  1  0.12861633  0.36109254  0.25499283  1
  O2-  O181  1  0.09042928  0.38235989  0.51294532  1
  O2-  O182  1  0.09075048  0.37925600  0.74715890  1
  O2-  O183  1  0.11708766  0.85244535  -0.00227569  1
  O2-  O184  1  0.12705185  0.86980147  0.27180041  1
  O2-  O185  1  0.17373421  0.86808399  0.51028849  1
  O2-  O186  1  0.17976765  0.87259471  0.75462692  1
  O2-  O187  1  0.38328846  0.34530270  -0.00439729  1
  O2-  O188  1  0.31760980  0.36974681  0.27090730  1
  O2-  O189  1  0.40073396  0.37407711  0.50884402  1
  O2-  O190  1  0.43432520  0.37697916  0.73497343  1
  O2-  O191  1  0.33232060  0.87378886  0.00894723  1
  O2-  O192  1  0.40745369  0.85408148  0.26171051  1
  O2-  O193  1  0.35933355  0.85946624  0.51046030  1
  O2-  O194  1  0.37995584  0.86072252  0.76074036  1
  O2-  O195  1  0.59092126  0.37546027  -0.00187602  1
  O2-  O196  1  0.64524643  0.35549484  0.25378421  1
  O2-  O197  1  0.58217284  0.35270272  0.50745701  1
  O2-  O198  1  0.60766772  0.35065547  0.73844856  1
  O2-  O199  1  0.65336917  0.87686261  -0.02067637  1
  O2-  O200  1  0.62195912  0.85269014  0.25889735  1
  O2-  O201  1  0.66701262  0.87793736  0.51159299  1
  O2-  O202  1  0.66360567  0.87731150  0.75092547  1
  O2-  O203  1  0.89660322  0.36849203  -0.00430910  1
  O2-  O204  1  0.85096248  0.36882469  0.24994979  1
  O2-  O205  1  0.90133802  0.35252419  0.51865881  1
  O2-  O206  1  0.90852307  0.37555074  0.75625801  1
  O2-  O207  1  0.90049736  0.87460053  -0.00800016  1
  O2-  O208  1  0.83655667  0.87131909  0.24350062  1
  O2-  O209  1  0.84218147  0.87070195  0.51904733  1
  O2-  O210  1  0.87129763  0.88605056  0.75066121  1
  O2-  O211  1  -0.00730437  0.10073281  0.13768141  1
  O2-  O212  1  -0.00524326  -0.12861935  0.13318612  1
  O2-  O213  1  -0.00323029  -0.15011219  0.41435810  1
  O2-  O214  1  0.01946048  -0.13490728  0.62892511  1
  O2-  O215  1  -0.00676773  0.40021649  0.14353487  1
  O2-  O216  1  -0.00253194  0.62050575  0.14097257  1
  O2-  O217  1  0.01185301  0.65885121  0.35185602  1
  O2-  O218  1  0.01765544  0.66793545  0.74321806  1
  O2-  O219  1  0.24266426  0.14182311  -0.05159691  1
  O2-  O220  1  0.26306046  -0.12123863  0.17404762  1
  O2-  O221  1  0.24856922  0.15175479  0.61849227  1
  O2-  O222  1  0.24550438  0.11303791  0.79112865  1
  O2-  O223  1  0.23533266  0.38686322  -0.08648730  1
  O2-  O224  1  0.25442526  0.61359306  0.38748997  1
  O2-  O225  1  0.25018071  0.34199610  0.56833412  1
  O2-  O226  1  0.26539221  0.37952488  0.72534546  1
  O2-  O227  1  0.49572751  -0.16318002  0.11661450  1
  O2-  O228  1  0.48495107  0.12602501  0.36140312  1
  O2-  O229  1  0.51219160  -0.12450861  0.41116839  1
  O2-  O230  1  0.50712242  -0.15017412  0.62717022  1
  O2-  O231  1  0.50447096  0.64671601  0.12974387  1
  O2-  O232  1  0.49150032  0.33006641  0.35860972  1
  O2-  O233  1  0.49834816  0.66542196  0.37537221  1
  O2-  O234  1  0.50577481  0.65583484  0.61544191  1
  O2-  O235  1  0.74798026  0.13488435  -0.13150191  1
  O2-  O236  1  0.74314598  0.15474424  0.11910547  1
  O2-  O237  1  0.75142881  0.11667807  0.53373502  1
  O2-  O238  1  0.75082652  0.09160594  0.69077595  1
  O2-  O239  1  0.74309743  0.43124128  -0.05697561  1
  O2-  O240  1  0.74508888  0.34474399  0.10957196  1
  O2-  O241  1  0.75058083  0.40459127  0.60536944  1
  O2-  O242  1  0.75170290  0.35880209  0.80728142  1
