# generated using pymatgen
data_Gd19Ta56(WO20)8
_symmetry_space_group_name_H-M   'P 1'
_cell_length_a   15.60456864
_cell_length_b   15.46949378
_cell_length_c   15.20038429
_cell_angle_alpha   89.92469012
_cell_angle_beta   90.37401671
_cell_angle_gamma   90.01324748
_symmetry_Int_Tables_number   1
_chemical_formula_structural   Gd19Ta56(WO20)8
_chemical_formula_sum   'Gd19 Ta56 W8 O160'
_cell_volume   3669.21194501
_cell_formula_units_Z   1
loop_
 _symmetry_equiv_pos_site_id
 _symmetry_equiv_pos_as_xyz
  1  'x, y, z'
loop_
 _atom_type_symbol
 _atom_type_oxidation_number
  Gd3+  3.0
  Ta5+  5.0
  W6+  6.0
  O2-  -2.0
loop_
 _atom_site_type_symbol
 _atom_site_label
 _atom_site_symmetry_multiplicity
 _atom_site_fract_x
 _atom_site_fract_y
 _atom_site_fract_z
 _atom_site_occupancy
  Gd3+  Gd0  1  0.73538408  0.24466414  0.79044700  1
  Gd3+  Gd1  1  0.24389586  0.75421431  0.49217110  1
  Gd3+  Gd2  1  0.24362290  0.25272582  0.25463436  1
  Gd3+  Gd3  1  -0.01382077  0.26307059  0.75530293  1
  Gd3+  Gd4  1  -0.00206693  0.25680242  -0.01220374  1
  Gd3+  Gd5  1  0.74531836  0.73015263  0.73382321  1
  Gd3+  Gd6  1  0.50282723  0.24960776  0.75140759  1
  Gd3+  Gd7  1  0.73111245  0.72721834  0.27461728  1
  Gd3+  Gd8  1  0.74431583  0.73001164  0.50207322  1
  Gd3+  Gd9  1  0.51379329  0.74917435  0.53409560  1
  Gd3+  Gd10  1  0.25988766  0.23943973  -0.00044948  1
  Gd3+  Gd11  1  0.76528871  0.24896567  0.01684599  1
  Gd3+  Gd12  1  0.49725855  0.24150500  0.01148426  1
  Gd3+  Gd13  1  0.50983429  0.72334699  0.77891007  1
  Gd3+  Gd14  1  0.02311384  0.75399446  -0.01449165  1
  Gd3+  Gd15  1  -0.01870708  0.25325036  0.50582297  1
  Gd3+  Gd16  1  0.49206980  0.26698658  0.26298801  1
  Gd3+  Gd17  1  0.00441922  0.76973041  0.22637293  1
  Gd3+  Gd18  1  0.25040753  0.75302282  0.24111814  1
  Ta5+  Ta19  1  0.36862091  0.38772314  0.62962959  1
  Ta5+  Ta20  1  0.11496253  0.13348896  0.37878122  1
  Ta5+  Ta21  1  0.63232305  0.38510251  0.12785236  1
  Ta5+  Ta22  1  0.12985342  0.38229696  0.62573085  1
  Ta5+  Ta23  1  0.33241378  0.65257638  0.89092767  1
  Ta5+  Ta24  1  0.47420966  0.86579584  0.13941766  1
  Ta5+  Ta25  1  0.10577591  0.62475507  0.37712908  1
  Ta5+  Ta26  1  0.12946086  0.38207304  0.37657904  1
  Ta5+  Ta27  1  0.37604088  0.40041287  0.11786381  1
  Ta5+  Ta28  1  0.65031655  0.86666864  0.13334887  1
  Ta5+  Ta29  1  0.61216472  0.55771802  0.62534814  1
  Ta5+  Ta30  1  0.82217306  0.86945809  0.87473846  1
  Ta5+  Ta31  1  0.64923559  0.85313956  0.88379422  1
  Ta5+  Ta32  1  0.39939195  0.63689166  0.11808319  1
  Ta5+  Ta33  1  0.69341434  0.12961133  0.62396692  1
  Ta5+  Ta34  1  0.12507389  0.88144343  0.61801900  1
  Ta5+  Ta35  1  0.88130947  0.39371936  0.11637493  1
  Ta5+  Ta36  1  0.32938543  0.11661758  0.83169374  1
  Ta5+  Ta37  1  0.64202633  0.58876027  0.87935388  1
  Ta5+  Ta38  1  0.62858682  0.11720741  0.13147391  1
  Ta5+  Ta39  1  0.14489894  0.39379915  0.86248291  1
  Ta5+  Ta40  1  0.12300247  0.11452044  0.86031299  1
  Ta5+  Ta41  1  0.09342613  0.88729838  0.37787783  1
  Ta5+  Ta42  1  0.40218181  0.10200550  0.17604889  1
  Ta5+  Ta43  1  0.86725862  0.64147556  0.11708860  1
  Ta5+  Ta44  1  0.13629052  0.13029814  0.63378073  1
  Ta5+  Ta45  1  0.90333949  0.61693012  0.38718604  1
  Ta5+  Ta46  1  0.11568329  0.63046511  0.61696726  1
  Ta5+  Ta47  1  0.88026514  0.87044899  0.61786247  1
  Ta5+  Ta48  1  0.61984832  0.13162925  0.38284966  1
  Ta5+  Ta49  1  0.39609788  0.88126287  0.33536127  1
  Ta5+  Ta50  1  0.12649007  0.37922770  0.11410804  1
  Ta5+  Ta51  1  0.37835031  0.63595238  0.64300860  1
  Ta5+  Ta52  1  0.36952500  0.39943139  0.38343643  1
  Ta5+  Ta53  1  0.61601359  0.61493721  0.12889908  1
  Ta5+  Ta54  1  0.67036473  0.37813278  0.63024479  1
  Ta5+  Ta55  1  0.36740203  0.13758012  0.60776828  1
  Ta5+  Ta56  1  0.10763899  0.11249858  0.11862792  1
  Ta5+  Ta57  1  0.38219633  0.89557773  0.65080243  1
  Ta5+  Ta58  1  0.16972927  0.64253047  0.86054968  1
  Ta5+  Ta59  1  0.88929997  0.59932140  0.62274129  1
  Ta5+  Ta60  1  0.87558835  0.09762243  0.12603739  1
  Ta5+  Ta61  1  0.61229572  0.40398369  0.88015067  1
  Ta5+  Ta62  1  0.86224437  0.37244424  0.36728528  1
  Ta5+  Ta63  1  0.34818543  0.39918023  0.86888525  1
  Ta5+  Ta64  1  0.14424688  0.86627429  0.85677536  1
  Ta5+  Ta65  1  0.62276009  0.37757472  0.38852915  1
  Ta5+  Ta66  1  0.88511492  0.87137536  0.37879374  1
  Ta5+  Ta67  1  0.85217372  0.08500008  0.87377731  1
  Ta5+  Ta68  1  0.87935654  0.61687076  0.87090637  1
  Ta5+  Ta69  1  0.82369036  0.86239805  0.12587647  1
  Ta5+  Ta70  1  0.42605340  0.89610660  0.89852447  1
  Ta5+  Ta71  1  0.86059239  0.11843842  0.37486707  1
  Ta5+  Ta72  1  0.55794255  0.61994442  0.37913493  1
  Ta5+  Ta73  1  0.62510553  0.89513514  0.62939875  1
  Ta5+  Ta74  1  0.59761094  0.88271465  0.37686722  1
  W6+  W75  1  0.13952742  0.62603979  0.11629311  1
  W6+  W76  1  0.39580730  0.64874138  0.37525023  1
  W6+  W77  1  0.82690724  0.43772756  0.86363945  1
  W6+  W78  1  0.83527942  0.37002520  0.62929824  1
  W6+  W79  1  0.14909395  0.88886852  0.11722910  1
  W6+  W80  1  0.63681493  0.04101371  0.91157667  1
  W6+  W81  1  0.35128653  0.12209731  0.37893148  1
  W6+  W82  1  0.85530247  0.11991980  0.62081575  1
  O2-  O83  1  0.18509446  0.02648766  0.10761965  1
  O2-  O84  1  0.10271555  0.01068712  0.37561938  1
  O2-  O85  1  0.13187614  0.00794524  0.62476884  1
  O2-  O86  1  0.11670957  -0.00808578  0.85155332  1
  O2-  O87  1  0.15707047  0.49172623  0.11148437  1
  O2-  O88  1  0.09201216  0.49761550  0.36815016  1
  O2-  O89  1  0.11389578  0.50221440  0.61553415  1
  O2-  O90  1  0.15180399  0.51348509  0.86124550  1
  O2-  O91  1  0.43369538  -0.00649762  0.14568583  1
  O2-  O92  1  0.35268941  -0.01682106  0.37274549  1
  O2-  O93  1  0.35568673  0.01335004  0.61920509  1
  O2-  O94  1  0.37971380  0.02437499  0.89191547  1
  O2-  O95  1  0.34966839  0.51262337  0.09589526  1
  O2-  O96  1  0.40884437  0.51178861  0.38351480  1
  O2-  O97  1  0.36367075  0.51098672  0.63205189  1
  O2-  O98  1  0.34862015  0.51645299  0.88589544  1
  O2-  O99  1  0.62933491  -0.00109761  0.14744308  1
  O2-  O100  1  0.59305730  0.01329940  0.37772709  1
  O2-  O101  1  0.67213316  0.00492952  0.64673162  1
  O2-  O102  1  0.53854624  -0.05488653  0.88892430  1
  O2-  O103  1  0.66460763  0.50166832  0.15721551  1
  O2-  O104  1  0.58786832  0.49221541  0.38674324  1
  O2-  O105  1  0.72407997  0.49413415  0.61265896  1
  O2-  O106  1  0.54901970  0.50668998  0.85166131  1
  O2-  O107  1  0.83627415  -0.01857295  0.14915738  1
  O2-  O108  1  0.85653893  -0.01010599  0.37641327  1
  O2-  O109  1  0.86267390  -0.01409856  0.61120584  1
  O2-  O110  1  0.89853379  -0.02212750  0.84613040  1
  O2-  O111  1  0.87405563  0.51225867  0.11257641  1
  O2-  O112  1  0.88673317  0.49809860  0.36421537  1
  O2-  O113  1  0.91391734  0.48444925  0.63196547  1
  O2-  O114  1  0.94226037  0.51540399  0.85429958  1
  O2-  O115  1  0.13483865  0.23920336  0.09075825  1
  O2-  O116  1  0.16320614  0.25327397  0.38173027  1
  O2-  O117  1  0.09342808  0.25750594  0.63755329  1
  O2-  O118  1  0.11441496  0.24926602  0.86408356  1
  O2-  O119  1  0.10063864  0.75798702  0.11980946  1
  O2-  O120  1  0.12119453  0.75339500  0.38567410  1
  O2-  O121  1  0.13053830  0.75396546  0.59163397  1
  O2-  O122  1  0.08933270  0.75484480  0.84421700  1
  O2-  O123  1  0.26508288  0.33895531  0.12188219  1
  O2-  O124  1  0.36251523  0.26771070  0.35149033  1
  O2-  O125  1  0.39874099  0.26093757  0.63875297  1
  O2-  O126  1  0.35805588  0.23223216  0.87046234  1
  O2-  O127  1  0.46375443  0.74396385  0.13182370  1
  O2-  O128  1  0.32280189  0.78339167  0.37060886  1
  O2-  O129  1  0.42550928  0.76778776  0.65838693  1
  O2-  O130  1  0.41139078  0.77036536  0.87798018  1
  O2-  O131  1  0.63316960  0.25847924  0.08460196  1
  O2-  O132  1  0.57072027  0.25349868  0.38846826  1
  O2-  O133  1  0.73185830  0.26250127  0.63124861  1
  O2-  O134  1  0.55168293  0.28910198  0.88526260  1
  O2-  O135  1  0.65617860  0.73216765  0.14224501  1
  O2-  O136  1  0.61801115  0.74452008  0.39875522  1
  O2-  O137  1  0.64948546  0.76567036  0.61331547  1
  O2-  O138  1  0.64804270  0.72235762  0.86478262  1
  O2-  O139  1  0.89662216  0.22488593  0.09408888  1
  O2-  O140  1  0.89500155  0.24836114  0.37600789  1
  O2-  O141  1  0.91070260  0.25139937  0.63105184  1
  O2-  O142  1  0.92322279  0.19037527  0.87272644  1
  O2-  O143  1  0.91468289  0.76260843  0.11128737  1
  O2-  O144  1  0.84845110  0.73399348  0.39002103  1
  O2-  O145  1  0.84213391  0.73549709  0.61553630  1
  O2-  O146  1  0.84122784  0.74320803  0.85592798  1
  O2-  O147  1  0.07357860  0.12349893  -0.01912221  1
  O2-  O148  1  0.12192805  0.14676145  0.24268655  1
  O2-  O149  1  0.09430075  0.14170050  0.51073809  1
  O2-  O150  1  0.06010680  0.12999324  0.74275292  1
  O2-  O151  1  0.12235904  0.64833590  -0.01947329  1
  O2-  O152  1  0.16296881  0.63254734  0.26409672  1
  O2-  O153  1  0.17115482  0.62039173  0.49369367  1
  O2-  O154  1  0.17103608  0.63845050  0.72456713  1
  O2-  O155  1  0.36194769  0.16832661  0.07317583  1
  O2-  O156  1  0.46006490  0.12218880  0.29381829  1
  O2-  O157  1  0.42023886  0.13738179  0.50121130  1
  O2-  O158  1  0.41324245  0.12624701  0.73513453  1
  O2-  O159  1  0.33582606  0.67263602  0.01716464  1
  O2-  O160  1  0.35743015  0.64619614  0.23369865  1
  O2-  O161  1  0.37693040  0.67475498  0.51800739  1
  O2-  O162  1  0.38281692  0.64014146  0.76863920  1
  O2-  O163  1  0.57780903  0.11396218  0.01072346  1
  O2-  O164  1  0.62922062  0.15407633  0.25671797  1
  O2-  O165  1  0.63964086  0.13755936  0.51526716  1
  O2-  O166  1  0.62247886  0.16813780  0.72419827  1
  O2-  O167  1  0.62749906  0.60621372  0.00321377  1
  O2-  O168  1  0.60110945  0.63037416  0.26470822  1
  O2-  O169  1  0.61421750  0.61589198  0.50968424  1
  O2-  O170  1  0.64915603  0.60701079  0.73837811  1
  O2-  O171  1  0.87230586  0.07761897  -0.00145986  1
  O2-  O172  1  0.88393768  0.12341146  0.25332556  1
  O2-  O173  1  0.91022728  0.12361778  0.49009767  1
  O2-  O174  1  0.80703879  0.11957652  0.75220986  1
  O2-  O175  1  0.91604317  0.64511479  -0.00954248  1
  O2-  O176  1  0.84436599  0.63831459  0.24165260  1
  O2-  O177  1  0.83344424  0.60522851  0.50582414  1
  O2-  O178  1  0.83735383  0.61241182  0.73618377  1
  O2-  O179  1  0.09034536  0.37498368  -0.01937112  1
  O2-  O180  1  0.13774229  0.36053011  0.24495581  1
  O2-  O181  1  0.09134237  0.36611522  0.50229376  1
  O2-  O182  1  0.07897380  0.38338543  0.74697815  1
  O2-  O183  1  0.14034623  0.86474698  -0.01939830  1
  O2-  O184  1  0.15461612  0.86933777  0.26643331  1
  O2-  O185  1  0.15696100  0.88760407  0.49033987  1
  O2-  O186  1  0.17519140  0.86701820  0.72986664  1
  O2-  O187  1  0.39570363  0.35873322  -0.01116485  1
  O2-  O188  1  0.37934148  0.39644237  0.24621642  1
  O2-  O189  1  0.39871407  0.37947275  0.50770011  1
  O2-  O190  1  0.41410060  0.37936220  0.75743461  1
  O2-  O191  1  0.42388791  0.88001604  0.01974072  1
  O2-  O192  1  0.35569216  0.85468547  0.21565016  1
  O2-  O193  1  0.28270071  0.85211493  0.59576663  1
  O2-  O194  1  0.37853184  0.90460370  0.77161122  1
  O2-  O195  1  0.60272726  0.41403751  0.00831395  1
  O2-  O196  1  0.60910074  0.35697593  0.25383365  1
  O2-  O197  1  0.63329586  0.35746111  0.51009914  1
  O2-  O198  1  0.62704341  0.35201358  0.75047237  1
  O2-  O199  1  0.63967472  0.85068328  0.00692081  1
  O2-  O200  1  0.67105004  0.86508431  0.27876451  1
  O2-  O201  1  0.64399811  0.88700141  0.49674369  1
  O2-  O202  1  0.60766245  0.85058562  0.75068290  1
  O2-  O203  1  0.88299192  0.36075699  -0.00991362  1
  O2-  O204  1  0.88004650  0.36614016  0.24136320  1
  O2-  O205  1  0.88272752  0.36911877  0.49294498  1
  O2-  O206  1  0.85243992  0.33848155  0.77044857  1
  O2-  O207  1  0.83765409  0.86761500  -0.00344134  1
  O2-  O208  1  0.84474197  0.83154030  0.25839049  1
  O2-  O209  1  0.82515425  0.85716124  0.49923163  1
  O2-  O210  1  0.82168148  0.86126077  0.72725724  1
  O2-  O211  1  -0.00182593  0.06616439  0.13332055  1
  O2-  O212  1  -0.01193353  -0.10626891  0.29837144  1
  O2-  O213  1  -0.01312955  -0.14204531  0.45317482  1
  O2-  O214  1  0.00324540  -0.13080866  0.63742229  1
  O2-  O215  1  0.00571626  0.37181404  0.12328293  1
  O2-  O216  1  -0.00237708  0.64751110  0.30705663  1
  O2-  O217  1  -0.00161281  0.62020397  0.46826964  1
  O2-  O218  1  -0.00088440  0.64798832  0.64803967  1
  O2-  O219  1  0.23396059  0.11826591  -0.07657437  1
  O2-  O220  1  0.30005881  0.11863058  0.24382824  1
  O2-  O221  1  0.24948768  0.16240976  0.59313687  1
  O2-  O222  1  0.22381023  0.11897424  0.75782485  1
  O2-  O223  1  0.24458243  0.37261627  -0.05601301  1
  O2-  O224  1  0.24821884  0.40919932  0.39234703  1
  O2-  O225  1  0.24884297  0.36781560  0.61060031  1
  O2-  O226  1  0.24940093  0.37838576  0.78593635  1
  O2-  O227  1  0.50652804  0.17170431  0.14801730  1
  O2-  O228  1  0.50600578  -0.11329892  0.27312893  1
  O2-  O229  1  0.47963459  -0.14604155  0.43278777  1
  O2-  O230  1  0.50347611  -0.09193874  0.61160415  1
  O2-  O231  1  0.49417526  0.35372657  0.12677431  1
  O2-  O232  1  0.50135003  0.56619538  0.12577178  1
  O2-  O233  1  0.50628135  0.62959343  0.64393060  1
  O2-  O234  1  0.55188158  0.45467278  0.63009209  1
  O2-  O235  1  0.72625307  -0.04006491  -0.15076108  1
  O2-  O236  1  0.74976605  0.13488024  0.11751948  1
  O2-  O237  1  0.74290304  0.13675955  0.38274976  1
  O2-  O238  1  0.73783141  0.14390148  0.90780901  1
  O2-  O239  1  0.76740218  0.57212256  -0.09782526  1
  O2-  O240  1  0.75661408  0.36324616  0.11639504  1
  O2-  O241  1  0.74293871  0.37425925  0.36872406  1
  O2-  O242  1  0.72642197  0.34411621  0.90206711  1
