# generated using pymatgen
data_Gd19Ta56(WO20)8
_symmetry_space_group_name_H-M   'P 1'
_cell_length_a   15.47531128
_cell_length_b   15.49749517
_cell_length_c   15.24770627
_cell_angle_alpha   90.15334635
_cell_angle_beta   89.99011622
_cell_angle_gamma   89.87790965
_symmetry_Int_Tables_number   1
_chemical_formula_structural   Gd19Ta56(WO20)8
_chemical_formula_sum   'Gd19 Ta56 W8 O160'
_cell_volume   3656.81400845
_cell_formula_units_Z   1
loop_
 _symmetry_equiv_pos_site_id
 _symmetry_equiv_pos_as_xyz
  1  'x, y, z'
loop_
 _atom_type_symbol
 _atom_type_oxidation_number
  Gd3+  3.0
  Ta5+  5.0
  W6+  6.0
  O2-  -2.0
loop_
 _atom_site_type_symbol
 _atom_site_label
 _atom_site_symmetry_multiplicity
 _atom_site_fract_x
 _atom_site_fract_y
 _atom_site_fract_z
 _atom_site_occupancy
  Gd3+  Gd0  1  0.26194424  0.25191963  0.74976767  1
  Gd3+  Gd1  1  -0.01126733  0.75093991  -0.00087655  1
  Gd3+  Gd2  1  -0.01533345  0.25087515  0.51768888  1
  Gd3+  Gd3  1  0.48902736  0.76032363  0.75276252  1
  Gd3+  Gd4  1  0.50201033  0.22508938  0.75466808  1
  Gd3+  Gd5  1  0.23348851  0.75160619  0.24043846  1
  Gd3+  Gd6  1  0.00714560  0.24389209  0.76869979  1
  Gd3+  Gd7  1  0.74704783  0.76490581  0.49131556  1
  Gd3+  Gd8  1  0.50083677  0.75797806  0.48904345  1
  Gd3+  Gd9  1  0.72995318  0.75146271  0.25267299  1
  Gd3+  Gd10  1  0.77623777  0.25634239  0.25253845  1
  Gd3+  Gd11  1  0.72698281  0.75753922  0.75690016  1
  Gd3+  Gd12  1  0.73672102  0.75026612  0.00791616  1
  Gd3+  Gd13  1  0.00293114  0.75576096  0.75310132  1
  Gd3+  Gd14  1  0.02181444  0.74954683  0.47961705  1
  Gd3+  Gd15  1  0.25155160  0.74919541  -0.00271602  1
  Gd3+  Gd16  1  0.76677363  0.26938322  0.00255876  1
  Gd3+  Gd17  1  0.20882614  0.23826739  0.23631741  1
  Gd3+  Gd18  1  0.46856688  0.29151503  0.49474452  1
  Ta5+  Ta19  1  0.07284806  0.36093202  0.11625262  1
  Ta5+  Ta20  1  0.85028106  0.13035854  0.63050779  1
  Ta5+  Ta21  1  0.63519326  0.36636779  0.38223707  1
  Ta5+  Ta22  1  0.62540102  0.14122108  0.38299415  1
  Ta5+  Ta23  1  0.63337480  0.89413994  0.62767019  1
  Ta5+  Ta24  1  0.38234717  0.37877589  0.90384439  1
  Ta5+  Ta25  1  0.12694492  0.88998434  0.37308649  1
  Ta5+  Ta26  1  0.67837319  0.12506016  0.86620114  1
  Ta5+  Ta27  1  0.11118268  0.61364979  0.87655320  1
  Ta5+  Ta28  1  0.87661338  0.88360406  0.37040068  1
  Ta5+  Ta29  1  0.13101057  0.12886710  0.62442102  1
  Ta5+  Ta30  1  0.89107394  0.61746351  0.37414314  1
  Ta5+  Ta31  1  0.07175900  0.11953089  0.11511220  1
  Ta5+  Ta32  1  0.64269646  0.61500301  0.62779291  1
  Ta5+  Ta33  1  0.62714012  0.36772584  0.64371890  1
  Ta5+  Ta34  1  0.90023493  0.92151990  0.12387124  1
  Ta5+  Ta35  1  0.84588840  0.89265419  0.62686333  1
  Ta5+  Ta36  1  0.11657471  0.90985269  0.12437906  1
  Ta5+  Ta37  1  0.09846610  0.57072593  0.12464468  1
  Ta5+  Ta38  1  0.86451568  0.61933400  0.86523608  1
  Ta5+  Ta39  1  0.61435276  0.88822818  0.88839691  1
  Ta5+  Ta40  1  0.61528648  0.89381249  0.37081288  1
  Ta5+  Ta41  1  0.84642589  0.13225870  0.86146836  1
  Ta5+  Ta42  1  0.59218664  0.62607269  0.13378956  1
  Ta5+  Ta43  1  0.58619917  0.88722545  0.12895231  1
  Ta5+  Ta44  1  0.31889950  0.39408676  0.62311370  1
  Ta5+  Ta45  1  0.37547476  0.89112075  0.61793498  1
  Ta5+  Ta46  1  0.17567497  0.12706369  0.89007425  1
  Ta5+  Ta47  1  0.36518687  0.87969487  0.36150402  1
  Ta5+  Ta48  1  0.86898767  0.38174032  0.64035673  1
  Ta5+  Ta49  1  0.62825884  0.38025905  0.12595379  1
  Ta5+  Ta50  1  0.07295722  0.13133241  0.36920897  1
  Ta5+  Ta51  1  0.10175840  0.36602372  0.37291409  1
  Ta5+  Ta52  1  0.87457383  0.88643000  0.87327648  1
  Ta5+  Ta53  1  0.12997662  0.89310208  0.87387791  1
  Ta5+  Ta54  1  0.34666095  0.12367250  0.88070427  1
  Ta5+  Ta55  1  0.61037974  0.61991367  0.88986398  1
  Ta5+  Ta56  1  0.14108540  0.57610768  0.63309673  1
  Ta5+  Ta57  1  0.38823495  0.87801885  0.12439133  1
  Ta5+  Ta58  1  0.85272705  0.62451030  0.62246999  1
  Ta5+  Ta59  1  0.90274196  0.13760045  0.11345245  1
  Ta5+  Ta60  1  0.68402010  0.12985821  0.62921096  1
  Ta5+  Ta61  1  0.87444093  0.37993159  0.86694402  1
  Ta5+  Ta62  1  0.15740873  0.37711893  0.89275378  1
  Ta5+  Ta63  1  0.38303975  0.12215594  0.11534007  1
  Ta5+  Ta64  1  0.36573429  0.61389773  0.34838519  1
  Ta5+  Ta65  1  0.37154928  0.60461137  0.65579326  1
  Ta5+  Ta66  1  0.40009682  0.12928709  0.35136288  1
  Ta5+  Ta67  1  0.90171961  0.13103269  0.37287658  1
  Ta5+  Ta68  1  0.38604819  0.61418824  0.11627407  1
  Ta5+  Ta69  1  0.13133190  0.88289972  0.62360743  1
  Ta5+  Ta70  1  0.87728069  0.60245838  0.12514271  1
  Ta5+  Ta71  1  0.33337644  0.37368517  0.35638458  1
  Ta5+  Ta72  1  0.88604699  0.38525378  0.38055313  1
  Ta5+  Ta73  1  0.37024589  0.87909650  0.88047324  1
  Ta5+  Ta74  1  0.90675535  0.38618483  0.12522740  1
  W6+  W75  1  0.64860881  0.13057470  0.12498495  1
  W6+  W76  1  0.61116493  0.61148694  0.38319746  1
  W6+  W77  1  0.38254779  0.14155382  0.60996593  1
  W6+  W78  1  0.61820144  0.37110991  0.86804746  1
  W6+  W79  1  0.14410065  0.61413998  0.37993985  1
  W6+  W80  1  0.13936234  0.36974873  0.62625210  1
  W6+  W81  1  0.36328560  0.36241881  0.13177278  1
  W6+  W82  1  0.44162080  0.61799790  0.90749378  1
  O2-  O83  1  0.16432788  0.02013796  0.14061145  1
  O2-  O84  1  0.09262499  0.00737763  0.36617939  1
  O2-  O85  1  0.12190623  0.00439385  0.63754026  1
  O2-  O86  1  0.15376232  0.00556340  0.84601612  1
  O2-  O87  1  0.15801619  0.46665752  0.11605633  1
  O2-  O88  1  0.12686446  0.48215264  0.37150121  1
  O2-  O89  1  0.06310845  0.48834225  0.65150828  1
  O2-  O90  1  0.15450543  0.50316930  0.85954784  1
  O2-  O91  1  0.35820734  0.00326865  0.11158595  1
  O2-  O92  1  0.38515550  0.00751577  0.36128976  1
  O2-  O93  1  0.37302267  0.00601523  0.60846918  1
  O2-  O94  1  0.34527642  0.00226004  0.87582892  1
  O2-  O95  1  0.38115554  0.49617123  0.12336645  1
  O2-  O96  1  0.38035762  0.48826021  0.34598877  1
  O2-  O97  1  0.40199278  0.49379746  0.61178529  1
  O2-  O98  1  0.43831530  0.48162786  0.88831588  1
  O2-  O99  1  0.61663984  0.00321340  0.11934205  1
  O2-  O100  1  0.61241212  0.01371559  0.37087621  1
  O2-  O101  1  0.62617923  0.01501795  0.63750000  1
  O2-  O102  1  0.65318779  0.00133706  0.86362732  1
  O2-  O103  1  0.60596411  0.49905862  0.12976980  1
  O2-  O104  1  0.60031469  0.47898179  0.38997609  1
  O2-  O105  1  0.62567646  0.49628345  0.63534590  1
  O2-  O106  1  0.62526784  0.50627777  0.86458365  1
  O2-  O107  1  0.83892343  0.02241839  0.09841916  1
  O2-  O108  1  0.88717556  0.00057358  0.37634443  1
  O2-  O109  1  0.88573907  0.00609827  0.62284486  1
  O2-  O110  1  0.85228051  0.00297212  0.88100133  1
  O2-  O111  1  0.82585321  0.49539037  0.10493062  1
  O2-  O112  1  0.85352554  0.50834852  0.40881592  1
  O2-  O113  1  0.87426983  0.50521269  0.62283752  1
  O2-  O114  1  0.83865378  0.50202547  0.85475442  1
  O2-  O115  1  0.10565794  0.24455673  0.10564419  1
  O2-  O116  1  0.14699402  0.24128255  0.37575203  1
  O2-  O117  1  0.07052452  0.24616237  0.63672350  1
  O2-  O118  1  0.19404297  0.25472691  0.90152071  1
  O2-  O119  1  0.17464225  0.79242768  0.11062634  1
  O2-  O120  1  0.14595679  0.75650929  0.37815178  1
  O2-  O121  1  0.04552468  0.78672008  0.61902256  1
  O2-  O122  1  0.10234992  0.74461215  0.89534820  1
  O2-  O123  1  0.32077428  0.22925718  0.13643457  1
  O2-  O124  1  0.33476863  0.24019309  0.34538602  1
  O2-  O125  1  0.39523868  0.28226305  0.62945370  1
  O2-  O126  1  0.38972849  0.25991574  0.85335139  1
  O2-  O127  1  0.34691190  0.75148031  0.12461368  1
  O2-  O128  1  0.34856763  0.75298898  0.34906627  1
  O2-  O129  1  0.50006431  0.85943048  0.62745680  1
  O2-  O130  1  0.40909949  0.75667776  0.88334716  1
  O2-  O131  1  0.68962388  0.26008537  0.12814503  1
  O2-  O132  1  0.56485202  0.25521886  0.38149813  1
  O2-  O133  1  0.63690660  0.23980820  0.65908990  1
  O2-  O134  1  0.61647171  0.23269920  0.84688874  1
  O2-  O135  1  0.63290797  0.75197304  0.12760332  1
  O2-  O136  1  0.63648612  0.74935161  0.38655892  1
  O2-  O137  1  0.65298735  0.75918051  0.61850485  1
  O2-  O138  1  0.60274497  0.75525334  0.88774359  1
  O2-  O139  1  0.86814736  0.26316538  0.12627592  1
  O2-  O140  1  0.89139910  0.25869589  0.37006197  1
  O2-  O141  1  0.89342548  0.25294716  0.65019883  1
  O2-  O142  1  0.84281118  0.26298841  0.84223473  1
  O2-  O143  1  0.80683383  0.70474018  0.13498501  1
  O2-  O144  1  0.83560406  0.73203583  0.36452453  1
  O2-  O145  1  0.83751854  0.75896893  0.63830201  1
  O2-  O146  1  0.90110180  0.74999794  0.87001486  1
  O2-  O147  1  0.11497507  0.11021994  -0.00429782  1
  O2-  O148  1  0.08499051  0.14349186  0.24384283  1
  O2-  O149  1  0.08969446  0.13187836  0.50571530  1
  O2-  O150  1  0.13723596  0.15685466  0.76006314  1
  O2-  O151  1  0.13491605  0.61917023  0.00998795  1
  O2-  O152  1  0.14037262  0.62377120  0.22663628  1
  O2-  O153  1  0.11129823  0.62934850  0.52779790  1
  O2-  O154  1  0.10659059  0.63925717  0.74707179  1
  O2-  O155  1  0.40481653  0.14120467  -0.00444687  1
  O2-  O156  1  0.44113276  0.13212436  0.23233700  1
  O2-  O157  1  0.41949751  0.15511471  0.47552896  1
  O2-  O158  1  0.36705846  0.13734507  0.75011881  1
  O2-  O159  1  0.32688954  0.62551310  0.00306835  1
  O2-  O160  1  0.31781470  0.62280545  0.23184524  1
  O2-  O161  1  0.42689114  0.70221766  0.61024800  1
  O2-  O162  1  0.40884899  0.61852944  0.76847644  1
  O2-  O163  1  0.67335977  0.14293355  -0.01059884  1
  O2-  O164  1  0.66791111  0.15278112  0.26332140  1
  O2-  O165  1  0.65819268  0.14235066  0.50111750  1
  O2-  O166  1  0.75052325  0.12271248  0.74998610  1
  O2-  O167  1  0.65458892  0.62635515  0.01317064  1
  O2-  O168  1  0.65594176  0.62530317  0.24559718  1
  O2-  O169  1  0.57808864  0.63247149  0.52174746  1
  O2-  O170  1  0.59548904  0.65188444  0.74634261  1
  O2-  O171  1  0.87570449  0.15689798  -0.01645728  1
  O2-  O172  1  0.87891018  0.13505982  0.24156974  1
  O2-  O173  1  0.87804811  0.13902416  0.50654735  1
  O2-  O174  1  0.91985036  0.12407217  0.75303199  1
  O2-  O175  1  0.86787951  0.64180258  -0.00642772  1
  O2-  O176  1  0.87753289  0.59770068  0.25168307  1
  O2-  O177  1  0.90752251  0.65661360  0.50945443  1
  O2-  O178  1  0.91214438  0.63577773  0.74164684  1
  O2-  O179  1  0.07678301  0.38075538  -0.01893915  1
  O2-  O180  1  0.09149532  0.34867935  0.24385858  1
  O2-  O181  1  0.08660187  0.35662378  0.49912997  1
  O2-  O182  1  0.13390980  0.34545492  0.77152801  1
  O2-  O183  1  0.13726184  0.90702240  -0.00115698  1
  O2-  O184  1  0.13539124  0.87557972  0.24751753  1
  O2-  O185  1  0.09936597  0.88440908  0.50091922  1
  O2-  O186  1  0.10757873  0.86186652  0.74924296  1
  O2-  O187  1  0.42551604  0.34552322  0.01092873  1
  O2-  O188  1  0.28005907  0.37071363  0.24231109  1
  O2-  O189  1  0.33530469  0.36898857  0.48614790  1
  O2-  O190  1  0.32414798  0.39011539  0.75264469  1
  O2-  O191  1  0.33417975  0.87350820  0.00349622  1
  O2-  O192  1  0.32421418  0.87702716  0.23891380  1
  O2-  O193  1  0.38268817  0.85456691  0.49576139  1
  O2-  O194  1  0.37836543  0.86565219  0.74680430  1
  O2-  O195  1  0.65734766  0.37284673  0.00176061  1
  O2-  O196  1  0.63742545  0.36218759  0.25377140  1
  O2-  O197  1  0.60892616  0.35092076  0.51992040  1
  O2-  O198  1  0.75085389  0.37120306  0.66196383  1
  O2-  O199  1  0.65168084  0.87637734  0.00970046  1
  O2-  O200  1  0.64187576  0.86937877  0.24573538  1
  O2-  O201  1  0.59827561  0.87591099  0.49734326  1
  O2-  O202  1  0.60338022  0.85699287  0.75712500  1
  O2-  O203  1  0.88401837  0.37409098  -0.01024974  1
  O2-  O204  1  0.88951914  0.39094826  0.25481379  1
  O2-  O205  1  0.88739599  0.36499119  0.51608704  1
  O2-  O206  1  0.93858964  0.38331623  0.75141579  1
  O2-  O207  1  0.86593767  0.85720356  0.01564397  1
  O2-  O208  1  0.85909500  0.87772862  0.23246122  1
  O2-  O209  1  0.88882034  0.85099093  0.49757014  1
  O2-  O210  1  0.90530322  0.87536631  0.74911804  1
  O2-  O211  1  0.00427663  -0.15756963  0.11213684  1
  O2-  O212  1  0.00262652  -0.00245153  0.13718807  1
  O2-  O213  1  -0.00536122  -0.15377002  0.35923794  1
  O2-  O214  1  0.00071549  -0.11617280  0.89773156  1
  O2-  O215  1  -0.00643460  0.65443330  0.11183471  1
  O2-  O216  1  -0.00598539  0.49451690  0.12953885  1
  O2-  O217  1  0.00882910  0.63723770  0.36853472  1
  O2-  O218  1  -0.00585524  0.59669098  0.89175222  1
  O2-  O219  1  0.24444114  -0.16046033  -0.13306750  1
  O2-  O220  1  0.24656101  -0.09477664  0.39625916  1
  O2-  O221  1  0.24610024  0.16391619  0.61526858  1
  O2-  O222  1  0.24937248  -0.14416770  0.61956182  1
  O2-  O223  1  0.26883838  0.40733515  -0.05830008  1
  O2-  O224  1  0.27505156  0.60862393  0.42608776  1
  O2-  O225  1  0.22543135  0.48223878  0.60657104  1
  O2-  O226  1  0.25591116  0.63747116  0.65829176  1
  O2-  O227  1  0.49097164  -0.16201666  0.06165886  1
  O2-  O228  1  0.48383085  -0.08207596  0.19778909  1
  O2-  O229  1  0.49450123  -0.14043477  0.36400433  1
  O2-  O230  1  0.49464068  -0.09031401  0.89069648  1
  O2-  O231  1  0.49089464  0.62738538  0.04028758  1
  O2-  O232  1  0.48684757  0.64111603  0.19902035  1
  O2-  O233  1  0.47664557  0.64494206  0.38985600  1
  O2-  O234  1  0.54736892  0.36423338  0.74001329  1
  O2-  O235  1  0.75410251  -0.15476319  -0.12192644  1
  O2-  O236  1  0.74757755  -0.12506833  0.37555850  1
  O2-  O237  1  0.74275393  -0.09844599  0.55113498  1
  O2-  O238  1  0.74629479  -0.10148551  0.70567445  1
  O2-  O239  1  0.74476550  0.65969285  -0.12713934  1
  O2-  O240  1  0.75567414  0.36006775  0.38567540  1
  O2-  O241  1  0.74623754  0.62389984  0.54211804  1
  O2-  O242  1  0.75183036  0.61814824  0.70216049  1
