# generated using pymatgen
data_Gd19Ta56(WO20)8
_symmetry_space_group_name_H-M   'P 1'
_cell_length_a   15.59916462
_cell_length_b   15.56676132
_cell_length_c   15.13042150
_cell_angle_alpha   90.17912087
_cell_angle_beta   90.42397318
_cell_angle_gamma   89.97374559
_symmetry_Int_Tables_number   1
_chemical_formula_structural   Gd19Ta56(WO20)8
_chemical_formula_sum   'Gd19 Ta56 W8 O160'
_cell_volume   3673.97825085
_cell_formula_units_Z   1
loop_
 _symmetry_equiv_pos_site_id
 _symmetry_equiv_pos_as_xyz
  1  'x, y, z'
loop_
 _atom_type_symbol
 _atom_type_oxidation_number
  Gd3+  3.0
  Ta5+  5.0
  W6+  6.0
  O2-  -2.0
loop_
 _atom_site_type_symbol
 _atom_site_label
 _atom_site_symmetry_multiplicity
 _atom_site_fract_x
 _atom_site_fract_y
 _atom_site_fract_z
 _atom_site_occupancy
  Gd3+  Gd0  1  0.74026361  0.24906818  0.52343302  1
  Gd3+  Gd1  1  0.48873156  0.76942999  0.45999230  1
  Gd3+  Gd2  1  0.75516437  0.23651941  0.25344328  1
  Gd3+  Gd3  1  0.00278624  0.77205037  0.25529034  1
  Gd3+  Gd4  1  0.75862874  0.76851709  0.51173056  1
  Gd3+  Gd5  1  0.51298563  0.75280060  -0.02011687  1
  Gd3+  Gd6  1  0.51164726  0.26269978  0.72552944  1
  Gd3+  Gd7  1  0.48308566  0.23881543  0.23844928  1
  Gd3+  Gd8  1  0.24207247  0.24803760  0.76651428  1
  Gd3+  Gd9  1  0.52283214  0.73722428  0.73645159  1
  Gd3+  Gd10  1  0.22815909  0.24030368  0.46619522  1
  Gd3+  Gd11  1  -0.01554269  0.73907604  -0.00181042  1
  Gd3+  Gd12  1  0.25963428  0.23942921  0.01231475  1
  Gd3+  Gd13  1  0.28903354  0.74031931  0.27142797  1
  Gd3+  Gd14  1  0.01692170  0.24187526  0.27594128  1
  Gd3+  Gd15  1  0.01125027  0.76222364  0.51797990  1
  Gd3+  Gd16  1  0.76544324  0.75126169  0.75303405  1
  Gd3+  Gd17  1  0.74378655  0.25677385  -0.02436049  1
  Gd3+  Gd18  1  0.00763838  0.26086591  0.74529848  1
  Ta5+  Ta19  1  0.37354403  0.11240848  0.87488703  1
  Ta5+  Ta20  1  0.85336497  0.88008913  0.12474541  1
  Ta5+  Ta21  1  0.33560224  0.86985327  0.08064573  1
  Ta5+  Ta22  1  0.57834953  0.38941257  0.90671015  1
  Ta5+  Ta23  1  0.67233023  0.87943084  0.36387586  1
  Ta5+  Ta24  1  0.58586577  0.11889779  0.59609657  1
  Ta5+  Ta25  1  0.84878832  0.59973518  0.62266918  1
  Ta5+  Ta26  1  0.61472130  0.13470629  0.85494484  1
  Ta5+  Ta27  1  0.30286771  0.90339247  0.42786620  1
  Ta5+  Ta28  1  0.32898788  0.37826737  0.63069178  1
  Ta5+  Ta29  1  0.87727049  0.62966807  0.37950610  1
  Ta5+  Ta30  1  0.93506617  0.12847462  0.89731921  1
  Ta5+  Ta31  1  0.84439339  0.87766340  0.37123882  1
  Ta5+  Ta32  1  0.88394673  0.88390791  0.63711396  1
  Ta5+  Ta33  1  0.36031727  0.86900102  0.83304928  1
  Ta5+  Ta34  1  0.38606339  0.62534150  0.11522093  1
  Ta5+  Ta35  1  0.35113615  0.11955020  0.62926678  1
  Ta5+  Ta36  1  0.39880352  0.37270863  0.39456087  1
  Ta5+  Ta37  1  0.63411775  0.88451618  0.62533050  1
  Ta5+  Ta38  1  0.89370175  0.38680330  0.87438853  1
  Ta5+  Ta39  1  0.14045893  0.62606529  0.12740028  1
  Ta5+  Ta40  1  0.37848845  0.87546159  0.62435194  1
  Ta5+  Ta41  1  0.13908026  0.63546761  0.86915726  1
  Ta5+  Ta42  1  0.08305861  0.40479385  0.39170772  1
  Ta5+  Ta43  1  0.16053674  0.62932426  0.62263917  1
  Ta5+  Ta44  1  0.09811968  0.11867850  0.12573245  1
  Ta5+  Ta45  1  0.66253583  0.61842351  0.87934672  1
  Ta5+  Ta46  1  0.13197004  0.89985396  0.38702583  1
  Ta5+  Ta47  1  0.85446380  0.62723464  0.14323829  1
  Ta5+  Ta48  1  0.58282500  0.39041038  0.58232621  1
  Ta5+  Ta49  1  0.13608458  0.38130063  0.14950279  1
  Ta5+  Ta50  1  0.87433992  0.38307842  0.37790517  1
  Ta5+  Ta51  1  0.10263430  0.12670851  0.88850780  1
  Ta5+  Ta52  1  0.62762360  0.12382685  0.11602327  1
  Ta5+  Ta53  1  0.62018772  0.11271995  0.38384843  1
  Ta5+  Ta54  1  0.61895048  0.62553283  0.13352527  1
  Ta5+  Ta55  1  0.40693200  0.11538359  0.38809792  1
  Ta5+  Ta56  1  0.65458172  0.60522847  0.61390074  1
  Ta5+  Ta57  1  0.12865002  0.08034121  0.36889925  1
  Ta5+  Ta58  1  0.89863904  0.12849428  0.63015382  1
  Ta5+  Ta59  1  0.37472009  0.38214839  0.12585423  1
  Ta5+  Ta60  1  0.65100934  0.89355613  0.87824579  1
  Ta5+  Ta61  1  0.63773867  0.64120026  0.36619596  1
  Ta5+  Ta62  1  0.91777085  0.37557870  0.59713092  1
  Ta5+  Ta63  1  0.37502901  0.38217359  0.88471915  1
  Ta5+  Ta64  1  0.88589567  0.12293238  0.11381860  1
  Ta5+  Ta65  1  0.61889438  0.87868034  0.12400465  1
  Ta5+  Ta66  1  0.36919373  0.56967278  0.36914488  1
  Ta5+  Ta67  1  0.88084283  0.11096223  0.37913449  1
  Ta5+  Ta68  1  0.85455150  0.89139232  0.88511740  1
  Ta5+  Ta69  1  0.13792152  0.11397415  0.62297676  1
  Ta5+  Ta70  1  0.15940038  0.38155573  0.62472191  1
  Ta5+  Ta71  1  0.13460497  0.87782717  0.11685401  1
  Ta5+  Ta72  1  0.37424373  0.62430166  0.85950840  1
  Ta5+  Ta73  1  0.16462280  0.87793904  0.63468932  1
  Ta5+  Ta74  1  0.58421225  0.41911731  0.37819420  1
  W6+  W75  1  0.40759166  0.61365913  0.60638777  1
  W6+  W76  1  0.12946061  0.64657139  0.38640997  1
  W6+  W77  1  0.09642577  0.87858913  0.87474642  1
  W6+  W78  1  0.84361794  0.37791282  0.13285215  1
  W6+  W79  1  0.82687275  0.61622523  0.88545128  1
  W6+  W80  1  0.37032613  0.10881010  0.13378349  1
  W6+  W81  1  0.63638739  0.37363260  0.13640163  1
  W6+  W82  1  0.12676885  0.38419572  0.88885329  1
  O2-  O83  1  0.11529278  -0.00258574  0.11614254  1
  O2-  O84  1  0.21944015  -0.00797466  0.36525493  1
  O2-  O85  1  0.18134996  0.00402203  0.64229876  1
  O2-  O86  1  0.10631219  0.00849018  0.88320873  1
  O2-  O87  1  0.11265330  0.50941253  0.15623969  1
  O2-  O88  1  0.10774347  0.51642255  0.37919435  1
  O2-  O89  1  0.15411714  0.50299385  0.62502102  1
  O2-  O90  1  0.13904318  0.51789775  0.87234585  1
  O2-  O91  1  0.37454317  -0.02928035  0.12639519  1
  O2-  O92  1  0.37532250  0.00064008  0.38924644  1
  O2-  O93  1  0.35954630  -0.00242266  0.62997898  1
  O2-  O94  1  0.36520788  -0.01327957  0.85722405  1
  O2-  O95  1  0.40254873  0.50069688  0.11411362  1
  O2-  O96  1  0.30998990  0.46280197  0.37081661  1
  O2-  O97  1  0.37023301  0.48737938  0.61397183  1
  O2-  O98  1  0.36732664  0.50620042  0.88246640  1
  O2-  O99  1  0.62504482  0.00433388  0.10780460  1
  O2-  O100  1  0.66776058  0.00501409  0.37716050  1
  O2-  O101  1  0.58844271  -0.00423595  0.62159668  1
  O2-  O102  1  0.62188734  0.00977645  0.85688295  1
  O2-  O103  1  0.61637449  0.50853191  0.13448695  1
  O2-  O104  1  0.65660066  0.51388319  0.36597508  1
  O2-  O105  1  0.57339897  0.51521240  0.59649625  1
  O2-  O106  1  0.61437746  0.49996120  0.87248423  1
  O2-  O107  1  0.85484557  0.00215852  0.11422428  1
  O2-  O108  1  0.84441971  -0.00181108  0.39856080  1
  O2-  O109  1  0.89180962  0.00590630  0.62737649  1
  O2-  O110  1  0.89923115  0.00385054  0.89092180  1
  O2-  O111  1  0.84695726  0.51059388  0.14462276  1
  O2-  O112  1  0.86656476  0.50735745  0.38363546  1
  O2-  O113  1  0.91836618  0.49996039  0.61099730  1
  O2-  O114  1  0.82149780  0.48113934  0.86903963  1
  O2-  O115  1  0.09712808  0.25834370  0.14778674  1
  O2-  O116  1  0.11139602  0.21904747  0.38112010  1
  O2-  O117  1  0.17904882  0.23971072  0.61157988  1
  O2-  O118  1  0.16281142  0.25223106  0.89538408  1
  O2-  O119  1  0.08335499  0.74647759  0.12361228  1
  O2-  O120  1  0.08640895  0.77395064  0.39099456  1
  O2-  O121  1  0.12904814  0.75740937  0.61652655  1
  O2-  O122  1  0.07013528  0.74231348  0.87587155  1
  O2-  O123  1  0.38327958  0.25359708  0.11628986  1
  O2-  O124  1  0.43484514  0.25274795  0.38060931  1
  O2-  O125  1  0.36851925  0.25468787  0.66262842  1
  O2-  O126  1  0.35197643  0.24901650  0.88359853  1
  O2-  O127  1  0.38311284  0.75760007  0.12531720  1
  O2-  O128  1  0.26736398  0.63705789  0.38153859  1
  O2-  O129  1  0.43936524  0.75178519  0.61033396  1
  O2-  O130  1  0.42106249  0.74891525  0.84612971  1
  O2-  O131  1  0.68381069  0.24156678  0.11523096  1
  O2-  O132  1  0.69240159  0.21476328  0.38707608  1
  O2-  O133  1  0.58775394  0.24932333  0.57939701  1
  O2-  O134  1  0.61554269  0.27189486  0.86358342  1
  O2-  O135  1  0.57604512  0.75742600  0.11767936  1
  O2-  O136  1  0.61134991  0.76394821  0.36254908  1
  O2-  O137  1  0.66037980  0.74503931  0.62814742  1
  O2-  O138  1  0.63965705  0.75377559  0.87422066  1
  O2-  O139  1  0.86901442  0.24306458  0.14763550  1
  O2-  O140  1  0.88512854  0.24801764  0.36227192  1
  O2-  O141  1  0.86799418  0.25889840  0.62351224  1
  O2-  O142  1  0.93090519  0.25597166  0.87887320  1
  O2-  O143  1  0.90256857  0.75648149  0.13940041  1
  O2-  O144  1  0.90284973  0.75782706  0.37009900  1
  O2-  O145  1  0.85176354  0.74732566  0.62950109  1
  O2-  O146  1  0.84795566  0.75909241  0.88232344  1
  O2-  O147  1  0.15474047  0.13711309  0.01441074  1
  O2-  O148  1  0.14910874  0.11359130  0.24327628  1
  O2-  O149  1  0.15775772  0.10455187  0.49448826  1
  O2-  O150  1  0.11991027  0.15046534  0.75577245  1
  O2-  O151  1  0.10601760  0.63192695  0.00386297  1
  O2-  O152  1  0.15543865  0.66911130  0.24931036  1
  O2-  O153  1  0.08916807  0.63222100  0.51842248  1
  O2-  O154  1  0.12366163  0.63745763  0.74268328  1
  O2-  O155  1  0.33793843  0.11202261  -0.00682464  1
  O2-  O156  1  0.35852962  0.14083041  0.27387639  1
  O2-  O157  1  0.34439779  0.14571767  0.50094766  1
  O2-  O158  1  0.31472533  0.11908253  0.75940046  1
  O2-  O159  1  0.40879399  0.64151917  -0.01209225  1
  O2-  O160  1  0.38226824  0.62135030  0.25104435  1
  O2-  O161  1  0.42169734  0.63031421  0.46484950  1
  O2-  O162  1  0.42966459  0.61481173  0.74794302  1
  O2-  O163  1  0.63238589  0.14074788  -0.01708650  1
  O2-  O164  1  0.64822396  0.13186590  0.24336406  1
  O2-  O165  1  0.68168360  0.11110955  0.51749654  1
  O2-  O166  1  0.62332790  0.14720990  0.72376949  1
  O2-  O167  1  0.61600155  0.63511973  0.00070870  1
  O2-  O168  1  0.57661178  0.63404113  0.25581668  1
  O2-  O169  1  0.60071757  0.64996388  0.48821196  1
  O2-  O170  1  0.63667541  0.63152754  0.74560334  1
  O2-  O171  1  0.83420672  0.14386261  -0.00270506  1
  O2-  O172  1  0.83584296  0.11374318  0.25801155  1
  O2-  O173  1  0.85523085  0.14334532  0.50121591  1
  O2-  O174  1  0.91758166  0.13573496  0.75639687  1
  O2-  O175  1  0.88093033  0.63214844  0.02192136  1
  O2-  O176  1  0.92640047  0.62979174  0.25599051  1
  O2-  O177  1  0.91243188  0.64415865  0.50254811  1
  O2-  O178  1  0.85141911  0.62701239  0.74420111  1
  O2-  O179  1  0.13484545  0.38176537  0.02744965  1
  O2-  O180  1  0.13604135  0.36314751  0.28540195  1
  O2-  O181  1  0.15687687  0.36996707  0.48675166  1
  O2-  O182  1  0.12943792  0.35301801  0.75144396  1
  O2-  O183  1  0.06728741  0.86392987  0.00874644  1
  O2-  O184  1  0.10002391  0.88136535  0.24781068  1
  O2-  O185  1  0.10244695  0.89614907  0.51980613  1
  O2-  O186  1  0.10467675  0.88179766  0.74069836  1
  O2-  O187  1  0.31709230  0.37616273  0.00068490  1
  O2-  O188  1  0.40720413  0.36581964  0.24982213  1
  O2-  O189  1  0.33684667  0.34046560  0.50000067  1
  O2-  O190  1  0.31347687  0.38153778  0.77075248  1
  O2-  O191  1  0.39156812  0.85250887  -0.03362186  1
  O2-  O192  1  0.36481030  0.80386130  0.37750238  1
  O2-  O193  1  0.42613590  0.89041964  0.50897970  1
  O2-  O194  1  0.44414517  0.87548038  0.73996985  1
  O2-  O195  1  0.66270198  0.37736491  -0.00239797  1
  O2-  O196  1  0.59608257  0.34774894  0.27843795  1
  O2-  O197  1  0.65897586  0.37616553  0.47774641  1
  O2-  O198  1  0.60947866  0.36842787  0.69933532  1
  O2-  O199  1  0.58178450  0.87984562  -0.01181745  1
  O2-  O200  1  0.61504398  0.89076266  0.24537704  1
  O2-  O201  1  0.62670690  0.86089019  0.49644531  1
  O2-  O202  1  0.60658816  0.86182757  0.74906236  1
  O2-  O203  1  0.84935774  0.35537584  -0.00739734  1
  O2-  O204  1  0.80050272  0.37638885  0.27548254  1
  O2-  O205  1  0.82852554  0.36637007  0.49990321  1
  O2-  O206  1  0.90944612  0.37417492  0.74229003  1
  O2-  O207  1  0.89996558  0.86322579  0.00799848  1
  O2-  O208  1  0.89438289  0.88642594  0.24630340  1
  O2-  O209  1  0.89119085  0.85887764  0.50473744  1
  O2-  O210  1  0.90936993  0.87013188  0.75878646  1
  O2-  O211  1  -0.01139411  0.12226745  0.03099898  1
  O2-  O212  1  -0.01085690  0.12001432  0.19241319  1
  O2-  O213  1  -0.00131731  0.09510687  0.37314066  1
  O2-  O214  1  0.01681463  0.14656626  0.60566917  1
  O2-  O215  1  -0.00033600  0.42842128  -0.09731706  1
  O2-  O216  1  -0.02155696  0.38329337  0.30513413  1
  O2-  O217  1  -0.02097860  0.38985944  0.46903102  1
  O2-  O218  1  0.02961235  0.33561325  0.61694021  1
  O2-  O219  1  0.22934622  -0.11195639  0.02066344  1
  O2-  O220  1  0.24555119  -0.15896065  0.17410812  1
  O2-  O221  1  0.27220782  -0.15046957  0.55341262  1
  O2-  O222  1  0.28196080  -0.14676752  0.72587432  1
  O2-  O223  1  0.25929249  0.62634666  0.10870275  1
  O2-  O224  1  0.25647915  0.38328424  0.16169275  1
  O2-  O225  1  0.27564919  0.64662283  0.61535454  1
  O2-  O226  1  0.25806962  0.66421826  0.87406580  1
  O2-  O227  1  0.48938862  0.14287033  -0.15149184  1
  O2-  O228  1  0.51295739  0.10764158  0.31494004  1
  O2-  O229  1  0.52252352  0.10838001  0.47454153  1
  O2-  O230  1  0.47107525  0.12908110  0.65033344  1
  O2-  O231  1  0.48036175  0.38620610  -0.01973260  1
  O2-  O232  1  0.47478962  0.48413052  0.35611087  1
  O2-  O233  1  0.49935803  0.38335473  0.47802398  1
  O2-  O234  1  0.48049752  0.37344743  0.81594948  1
  O2-  O235  1  0.74795555  -0.09085242  -0.04193534  1
  O2-  O236  1  0.73824657  -0.15132171  0.12366340  1
  O2-  O237  1  0.75667759  -0.10814715  0.61839626  1
  O2-  O238  1  0.75593629  -0.10884543  0.80003387  1
  O2-  O239  1  0.73772130  0.65814927  0.15275124  1
  O2-  O240  1  0.75971083  0.65750796  0.35475791  1
  O2-  O241  1  0.75590287  0.62796336  0.53308340  1
  O2-  O242  1  0.74759252  0.52769280  0.64900201  1
