# generated using pymatgen
data_Gd19Ta56(WO20)8
_symmetry_space_group_name_H-M   'P 1'
_cell_length_a   15.60179288
_cell_length_b   15.41266043
_cell_length_c   15.29013970
_cell_angle_alpha   89.99367582
_cell_angle_beta   90.12609441
_cell_angle_gamma   90.15132999
_symmetry_Int_Tables_number   1
_chemical_formula_structural   Gd19Ta56(WO20)8
_chemical_formula_sum   'Gd19 Ta56 W8 O160'
_cell_volume   3676.72376894
_cell_formula_units_Z   1
loop_
 _symmetry_equiv_pos_site_id
 _symmetry_equiv_pos_as_xyz
  1  'x, y, z'
loop_
 _atom_type_symbol
 _atom_type_oxidation_number
  Gd3+  3.0
  Ta5+  5.0
  W6+  6.0
  O2-  -2.0
loop_
 _atom_site_type_symbol
 _atom_site_label
 _atom_site_symmetry_multiplicity
 _atom_site_fract_x
 _atom_site_fract_y
 _atom_site_fract_z
 _atom_site_occupancy
  Gd3+  Gd0  1  0.18404188  0.73724895  0.49816391  1
  Gd3+  Gd1  1  0.24392058  0.25288696  0.51040401  1
  Gd3+  Gd2  1  0.77670047  0.75717573  0.27417491  1
  Gd3+  Gd3  1  0.22725857  0.71727197  -0.00223649  1
  Gd3+  Gd4  1  0.49623196  0.23348301  -0.00514703  1
  Gd3+  Gd5  1  0.01847613  0.23362013  -0.02690716  1
  Gd3+  Gd6  1  0.78570993  0.27341382  0.01838434  1
  Gd3+  Gd7  1  0.48997488  0.74931787  0.49333893  1
  Gd3+  Gd8  1  0.00343684  0.75057333  0.23610369  1
  Gd3+  Gd9  1  0.50895115  0.25486863  0.23699504  1
  Gd3+  Gd10  1  0.46957150  0.24928529  0.76104073  1
  Gd3+  Gd11  1  0.76419907  0.27381613  0.50347525  1
  Gd3+  Gd12  1  0.49784115  0.73920729  0.74766928  1
  Gd3+  Gd13  1  0.74094838  0.24806119  0.25316415  1
  Gd3+  Gd14  1  -0.02394523  0.27171536  0.21943912  1
  Gd3+  Gd15  1  0.26475930  0.25361956  0.25937952  1
  Gd3+  Gd16  1  0.81694097  0.78887526  0.52049083  1
  Gd3+  Gd17  1  0.50394881  0.74322928  0.00622858  1
  Gd3+  Gd18  1  -0.00294724  0.74527904  -0.03315119  1
  Ta5+  Ta19  1  0.14036774  0.87241259  0.85940480  1
  Ta5+  Ta20  1  0.06019149  0.60914699  0.63069881  1
  Ta5+  Ta21  1  0.13357292  0.59708070  0.85645668  1
  Ta5+  Ta22  1  0.88548533  0.41494334  0.37521924  1
  Ta5+  Ta23  1  0.09540230  0.87189449  0.63379444  1
  Ta5+  Ta24  1  0.35054548  0.61088488  0.41292367  1
  Ta5+  Ta25  1  0.65217345  0.87430421  0.12172136  1
  Ta5+  Ta26  1  0.63592813  0.88174437  0.86915632  1
  Ta5+  Ta27  1  0.16418335  0.34948385  0.85592930  1
  Ta5+  Ta28  1  0.17160334  0.12146795  0.85492478  1
  Ta5+  Ta29  1  0.35464580  0.62350996  0.15385978  1
  Ta5+  Ta30  1  0.61963422  0.88498658  0.61862900  1
  Ta5+  Ta31  1  0.64190415  0.63129817  0.60880984  1
  Ta5+  Ta32  1  0.63591378  0.11088193  0.12499045  1
  Ta5+  Ta33  1  0.37176923  0.61013902  0.87710293  1
  Ta5+  Ta34  1  0.37242504  0.87371432  0.88187147  1
  Ta5+  Ta35  1  0.08682548  0.87882166  0.37596366  1
  Ta5+  Ta36  1  0.90275168  0.63102292  0.38269995  1
  Ta5+  Ta37  1  0.12705181  0.10125453  0.61306213  1
  Ta5+  Ta38  1  0.87270914  0.39547205  0.86989223  1
  Ta5+  Ta39  1  0.14175368  0.35725857  0.11001627  1
  Ta5+  Ta40  1  0.61393255  0.37453940  0.38614043  1
  Ta5+  Ta41  1  0.32807288  0.36342765  0.88531703  1
  Ta5+  Ta42  1  0.83727466  0.59858054  0.62197556  1
  Ta5+  Ta43  1  0.69564435  0.60282755  0.40225644  1
  Ta5+  Ta44  1  0.63975135  0.38509030  0.11935288  1
  Ta5+  Ta45  1  0.12388048  0.87342781  0.11568446  1
  Ta5+  Ta46  1  0.61962975  0.13377246  0.63268886  1
  Ta5+  Ta47  1  0.33849140  0.87745696  0.38563015  1
  Ta5+  Ta48  1  0.90221408  0.14690367  0.62962563  1
  Ta5+  Ta49  1  0.88780509  0.88478082  0.10244290  1
  Ta5+  Ta50  1  0.37092151  0.86828850  0.14048287  1
  Ta5+  Ta51  1  0.86710943  0.63282272  0.11184624  1
  Ta5+  Ta52  1  0.40152959  0.11424087  0.39011200  1
  Ta5+  Ta53  1  0.33489858  0.12092342  0.88205666  1
  Ta5+  Ta54  1  0.87205966  0.87908355  0.84035320  1
  Ta5+  Ta55  1  0.66457947  0.13547235  0.87535973  1
  Ta5+  Ta56  1  0.09064178  0.35677402  0.62218141  1
  Ta5+  Ta57  1  0.06960673  0.60349758  0.37649928  1
  Ta5+  Ta58  1  0.40842903  0.37191404  0.39505371  1
  Ta5+  Ta59  1  0.61171250  0.39047050  0.62468868  1
  Ta5+  Ta60  1  0.60644433  0.11672046  0.39154851  1
  Ta5+  Ta61  1  0.63253511  0.62140746  0.87476610  1
  Ta5+  Ta62  1  0.36935446  0.11935323  0.63535620  1
  Ta5+  Ta63  1  0.38218826  0.11154064  0.12879679  1
  Ta5+  Ta64  1  0.94136974  0.94565045  0.62363510  1
  Ta5+  Ta65  1  0.36375617  0.38302823  0.63899741  1
  Ta5+  Ta66  1  0.14484385  0.11248607  0.11368883  1
  Ta5+  Ta67  1  0.92471249  0.37047213  0.63066562  1
  Ta5+  Ta68  1  0.38433332  0.38273360  0.12546322  1
  Ta5+  Ta69  1  0.86428136  0.46382451  0.12297788  1
  Ta5+  Ta70  1  0.11797861  0.12392050  0.36514571  1
  Ta5+  Ta71  1  0.92154808  0.13160680  0.38567543  1
  Ta5+  Ta72  1  0.85779592  0.62513337  0.85675371  1
  Ta5+  Ta73  1  0.35829964  0.87083476  0.62938463  1
  Ta5+  Ta74  1  0.70166288  0.38696966  0.86075495  1
  W6+  W75  1  0.88182223  0.13401223  0.84900664  1
  W6+  W76  1  0.09753552  0.60019822  0.11883756  1
  W6+  W77  1  0.65679795  0.87658172  0.38283460  1
  W6+  W78  1  0.86123639  0.08701486  0.05598798  1
  W6+  W79  1  0.91816180  0.89317155  0.36804528  1
  W6+  W80  1  0.64912272  0.62845154  0.13610436  1
  W6+  W81  1  0.34679374  0.61823214  0.62512735  1
  W6+  W82  1  0.11938371  0.37709038  0.37333483  1
  O2-  O83  1  0.10737256  -0.00200167  0.12271353  1
  O2-  O84  1  0.11778778  0.00191136  0.36429651  1
  O2-  O85  1  0.15542630  -0.02133755  0.63299765  1
  O2-  O86  1  0.15993541  -0.00709384  0.85793740  1
  O2-  O87  1  0.10113626  0.46670872  0.11258321  1
  O2-  O88  1  0.14216243  0.50495605  0.36623639  1
  O2-  O89  1  0.04362219  0.48372909  0.62642257  1
  O2-  O90  1  0.14479280  0.47796848  0.86199616  1
  O2-  O91  1  0.40691878  -0.01292990  0.14532393  1
  O2-  O92  1  0.34134103  0.00255613  0.37706034  1
  O2-  O93  1  0.35128058  -0.00032365  0.62935029  1
  O2-  O94  1  0.35544635  -0.00689374  0.88685419  1
  O2-  O95  1  0.39805807  0.50760753  0.13042975  1
  O2-  O96  1  0.36218009  0.48478965  0.39133222  1
  O2-  O97  1  0.31193205  0.48901110  0.64460592  1
  O2-  O98  1  0.35453944  0.49192138  0.88939929  1
  O2-  O99  1  0.60495270  -0.01102244  0.13526280  1
  O2-  O100  1  0.65800025  0.01310539  0.36197932  1
  O2-  O101  1  0.60059742  0.00459513  0.63071518  1
  O2-  O102  1  0.64521591  0.00305545  0.86648470  1
  O2-  O103  1  0.61542665  0.49797453  0.14760131  1
  O2-  O104  1  0.63607342  0.49636992  0.38215359  1
  O2-  O105  1  0.59344504  0.51451123  0.62235141  1
  O2-  O106  1  0.64247586  0.50177623  0.86451612  1
  O2-  O107  1  0.92974888  -0.00497941  0.12563260  1
  O2-  O108  1  0.88690406  0.02585993  0.35041870  1
  O2-  O109  1  0.84399040  0.04159604  0.63957163  1
  O2-  O110  1  0.86754501  -0.00272217  0.83983312  1
  O2-  O111  1  0.76757942  0.55163841  0.10705733  1
  O2-  O112  1  0.80676065  0.53604438  0.38188222  1
  O2-  O113  1  0.87198825  0.48446272  0.62095117  1
  O2-  O114  1  0.91208359  0.51692600  0.86524201  1
  O2-  O115  1  0.08109812  0.22958221  0.11550837  1
  O2-  O116  1  0.17071846  0.24244962  0.37991551  1
  O2-  O117  1  0.10810107  0.22962425  0.60480577  1
  O2-  O118  1  0.10659250  0.23229418  0.85072860  1
  O2-  O119  1  0.10580006  0.74384514  0.10371684  1
  O2-  O120  1  0.09285246  0.73871480  0.37776692  1
  O2-  O121  1  0.10262536  0.74165074  0.62183158  1
  O2-  O122  1  0.11689677  0.73751706  0.87691734  1
  O2-  O123  1  0.37094894  0.24281646  0.13487060  1
  O2-  O124  1  0.34600429  0.25762857  0.38621163  1
  O2-  O125  1  0.33833551  0.24743873  0.64057914  1
  O2-  O126  1  0.38751347  0.24327849  0.88712947  1
  O2-  O127  1  0.40573740  0.74020848  0.14099447  1
  O2-  O128  1  0.35816462  0.74043279  0.40639521  1
  O2-  O129  1  0.40024938  0.74874353  0.61803770  1
  O2-  O130  1  0.41474528  0.74490275  0.87782070  1
  O2-  O131  1  0.65526610  0.24468560  0.11322242  1
  O2-  O132  1  0.65889768  0.24712303  0.39449077  1
  O2-  O133  1  0.63907962  0.25721330  0.61406326  1
  O2-  O134  1  0.54854595  0.17950639  0.86238684  1
  O2-  O135  1  0.59455189  0.76426131  0.12685018  1
  O2-  O136  1  0.72170798  0.74204030  0.41426169  1
  O2-  O137  1  0.57872952  0.74878312  0.61853998  1
  O2-  O138  1  0.58496510  0.75214778  0.87532120  1
  O2-  O139  1  0.89653140  0.22027293  0.09762352  1
  O2-  O140  1  0.77426728  0.35942309  0.36133773  1
  O2-  O141  1  0.84734188  0.26195430  0.62926446  1
  O2-  O142  1  0.88874839  0.26792206  0.90192647  1
  O2-  O143  1  0.93036314  0.75833803  0.10345652  1
  O2-  O144  1  0.90087663  0.75711097  0.38087545  1
  O2-  O145  1  0.74812137  0.70197391  0.62516695  1
  O2-  O146  1  0.90862385  0.74164307  0.84219281  1
  O2-  O147  1  0.13895104  0.12936914  -0.01107962  1
  O2-  O148  1  0.17724773  0.13359595  0.24309442  1
  O2-  O149  1  0.18406455  0.11102690  0.50007974  1
  O2-  O150  1  0.17672186  0.12356348  0.72391919  1
  O2-  O151  1  0.12344858  0.60895756  -0.01578676  1
  O2-  O152  1  0.06899839  0.61881529  0.25083478  1
  O2-  O153  1  0.08962574  0.61626498  0.50811413  1
  O2-  O154  1  0.13402860  0.60727883  0.72906548  1
  O2-  O155  1  0.39865242  0.12209967  0.00401675  1
  O2-  O156  1  0.37571082  0.13450295  0.26271934  1
  O2-  O157  1  0.36215862  0.13875314  0.50535607  1
  O2-  O158  1  0.37560001  0.12664790  0.76261663  1
  O2-  O159  1  0.36718747  0.64319517  0.00594954  1
  O2-  O160  1  0.35404072  0.61961946  0.27512358  1
  O2-  O161  1  0.43251640  0.61037749  0.50586763  1
  O2-  O162  1  0.40916845  0.61793832  0.75561266  1
  O2-  O163  1  0.61931470  0.12069194  0.00122931  1
  O2-  O164  1  0.62162094  0.14914985  0.25875284  1
  O2-  O165  1  0.65665537  0.12182959  0.50973258  1
  O2-  O166  1  0.67527624  0.13079016  0.74390970  1
  O2-  O167  1  0.59044177  0.62382873  -0.00386941  1
  O2-  O168  1  0.68510248  0.63697328  0.27994964  1
  O2-  O169  1  0.60315427  0.64569863  0.48488539  1
  O2-  O170  1  0.61188879  0.64011213  0.74637649  1
  O2-  O171  1  0.77757737  0.12902896  -0.05654745  1
  O2-  O172  1  0.86779701  0.21173473  0.30686600  1
  O2-  O173  1  0.85900922  0.15645572  0.49147051  1
  O2-  O174  1  0.95195751  0.16231261  0.73993018  1
  O2-  O175  1  0.88759450  0.64358862  -0.01551281  1
  O2-  O176  1  0.88006172  0.64797088  0.24676473  1
  O2-  O177  1  0.88247211  0.64999444  0.51058408  1
  O2-  O178  1  0.80515480  0.59775884  0.74556116  1
  O2-  O179  1  0.13649876  0.33625798  -0.01369174  1
  O2-  O180  1  0.12972601  0.33401813  0.23783813  1
  O2-  O181  1  0.14207822  0.37140910  0.50710558  1
  O2-  O182  1  0.14420485  0.35940370  0.73010447  1
  O2-  O183  1  0.10541951  0.87293668  -0.01234052  1
  O2-  O184  1  0.10419946  0.86306914  0.24098809  1
  O2-  O185  1  0.09452484  0.87139539  0.50023988  1
  O2-  O186  1  0.06946054  0.86439491  0.76159021  1
  O2-  O187  1  0.39138683  0.35768736  0.00301882  1
  O2-  O188  1  0.36983018  0.36124948  0.25396993  1
  O2-  O189  1  0.35070162  0.36514430  0.51445970  1
  O2-  O190  1  0.36688201  0.36030939  0.76634893  1
  O2-  O191  1  0.40340953  0.86195144  0.01486045  1
  O2-  O192  1  0.38096098  0.85968988  0.26831675  1
  O2-  O193  1  0.39273321  0.87811245  0.50022734  1
  O2-  O194  1  0.38446708  0.86510864  0.75299846  1
  O2-  O195  1  0.69972429  0.26016913  -0.12344166  1
  O2-  O196  1  0.63342792  0.34309429  0.25439052  1
  O2-  O197  1  0.67074640  0.38853939  0.51223465  1
  O2-  O198  1  0.67404845  0.38805467  0.72887328  1
  O2-  O199  1  0.60235389  0.87185552  -0.00851405  1
  O2-  O200  1  0.68704562  0.86692732  0.24121415  1
  O2-  O201  1  0.58012889  0.87134263  0.50146017  1
  O2-  O202  1  0.59292713  0.86544012  0.74830084  1
  O2-  O203  1  0.86795958  0.41045757  0.00928096  1
  O2-  O204  1  0.89995453  0.42177399  0.23704565  1
  O2-  O205  1  0.88180192  0.37154804  0.49480072  1
  O2-  O206  1  0.91747035  0.37053343  0.75431340  1
  O2-  O207  1  0.91030591  0.86878425  -0.03235423  1
  O2-  O208  1  0.88721077  0.85676247  0.22947916  1
  O2-  O209  1  0.91083088  0.91027561  0.51123639  1
  O2-  O210  1  0.89354207  0.87201092  0.71710867  1
  O2-  O211  1  -0.04768645  0.10616916  -0.03971956  1
  O2-  O212  1  0.01900398  0.14747471  0.28848091  1
  O2-  O213  1  0.02757079  0.14674067  0.44981445  1
  O2-  O214  1  0.00558186  0.06557704  0.60173021  1
  O2-  O215  1  -0.03415092  0.55316817  0.11460498  1
  O2-  O216  1  -0.01462754  0.34120203  0.35606665  1
  O2-  O217  1  -0.03270275  0.51560715  0.39507859  1
  O2-  O218  1  -0.04839451  0.64517098  0.66534948  1
  O2-  O219  1  0.26423615  0.08875792  0.10782826  1
  O2-  O220  1  0.25179151  -0.13647534  0.12357982  1
  O2-  O221  1  0.22292126  -0.14549462  0.38487109  1
  O2-  O222  1  0.25871839  -0.16740607  0.90198078  1
  O2-  O223  1  0.26077579  0.37903904  0.11873815  1
  O2-  O224  1  0.23817508  0.63076118  0.12868398  1
  O2-  O225  1  0.26746639  0.61627456  0.50421884  1
  O2-  O226  1  0.25464134  0.64335146  0.86557934  1
  O2-  O227  1  0.50843699  0.14840692  0.13060289  1
  O2-  O228  1  0.50071233  0.19710009  0.37159531  1
  O2-  O229  1  0.50144059  0.04924131  0.42228029  1
  O2-  O230  1  0.49748373  0.14967020  0.64136828  1
  O2-  O231  1  0.51374082  0.34841526  0.11608803  1
  O2-  O232  1  0.50651727  0.39411489  0.31753202  1
  O2-  O233  1  0.51512273  0.35993404  0.46847431  1
  O2-  O234  1  0.49314447  0.36150523  0.65098943  1
  O2-  O235  1  0.76486754  -0.11598932  0.07702555  1
  O2-  O236  1  0.75535648  0.10504737  0.14668011  1
  O2-  O237  1  0.73439822  -0.11988974  0.60164807  1
  O2-  O238  1  0.75163793  -0.15038454  0.85542354  1
  O2-  O239  1  0.67048541  0.38544878  -0.00248264  1
  O2-  O240  1  0.76475002  0.36735778  0.14592254  1
  O2-  O241  1  0.73340059  0.56940067  0.53854613  1
  O2-  O242  1  0.74330110  0.65637169  0.89819373  1
