# generated using pymatgen
data_Gd19Ta56(WO20)8
_symmetry_space_group_name_H-M   'P 1'
_cell_length_a   15.57615480
_cell_length_b   15.44339886
_cell_length_c   15.14513361
_cell_angle_alpha   89.98308704
_cell_angle_beta   89.99375373
_cell_angle_gamma   89.96909955
_symmetry_Int_Tables_number   1
_chemical_formula_structural   Gd19Ta56(WO20)8
_chemical_formula_sum   'Gd19 Ta56 W8 O160'
_cell_volume   3643.14256992
_cell_formula_units_Z   1
loop_
 _symmetry_equiv_pos_site_id
 _symmetry_equiv_pos_as_xyz
  1  'x, y, z'
loop_
 _atom_type_symbol
 _atom_type_oxidation_number
  Gd3+  3.0
  Ta5+  5.0
  W6+  6.0
  O2-  -2.0
loop_
 _atom_site_type_symbol
 _atom_site_label
 _atom_site_symmetry_multiplicity
 _atom_site_fract_x
 _atom_site_fract_y
 _atom_site_fract_z
 _atom_site_occupancy
  Gd3+  Gd0  1  0.02201255  0.25592689  0.74248588  1
  Gd3+  Gd1  1  0.73790544  0.24409875  0.74354973  1
  Gd3+  Gd2  1  -0.04333811  0.74753479  0.22165175  1
  Gd3+  Gd3  1  0.49672918  0.25385699  0.73890520  1
  Gd3+  Gd4  1  0.01807592  0.25668832  -0.00767467  1
  Gd3+  Gd5  1  0.73105291  0.73917998  -0.01312312  1
  Gd3+  Gd6  1  0.24896849  0.25696970  -0.00450687  1
  Gd3+  Gd7  1  0.52256306  0.75331577  0.29466848  1
  Gd3+  Gd8  1  0.75031374  0.74855325  0.50858592  1
  Gd3+  Gd9  1  0.75124141  0.23796411  0.50315116  1
  Gd3+  Gd10  1  0.75634676  0.24634712  0.24780064  1
  Gd3+  Gd11  1  0.26468060  0.75460794  -0.01227183  1
  Gd3+  Gd12  1  0.19987624  0.74396282  0.23829742  1
  Gd3+  Gd13  1  0.50986239  0.23912541  0.51291696  1
  Gd3+  Gd14  1  0.78579094  0.25229123  0.00598008  1
  Gd3+  Gd15  1  0.25002607  0.24876735  0.48789524  1
  Gd3+  Gd16  1  0.24723907  0.74712845  0.50627171  1
  Gd3+  Gd17  1  0.49489589  0.25145628  -0.00890444  1
  Gd3+  Gd18  1  0.25718970  0.26378796  0.24413991  1
  Ta5+  Ta19  1  0.16999868  0.09187098  0.86397579  1
  Ta5+  Ta20  1  0.66765911  0.61797932  0.35898004  1
  Ta5+  Ta21  1  0.41599777  0.63964073  0.61811557  1
  Ta5+  Ta22  1  0.90121942  0.61833499  0.38245334  1
  Ta5+  Ta23  1  0.61330162  0.12457617  0.11618117  1
  Ta5+  Ta24  1  0.58534105  0.64188385  0.61584474  1
  Ta5+  Ta25  1  0.65994194  0.39944127  0.87842773  1
  Ta5+  Ta26  1  0.89442461  0.86862652  0.37997082  1
  Ta5+  Ta27  1  0.34621810  0.62579002  0.35639004  1
  Ta5+  Ta28  1  0.33629885  0.87653975  0.35711669  1
  Ta5+  Ta29  1  0.34346164  0.42996187  0.86113218  1
  Ta5+  Ta30  1  0.86306937  0.40607671  0.87048109  1
  Ta5+  Ta31  1  0.82268050  0.88042888  0.13254240  1
  Ta5+  Ta32  1  0.60947539  0.10834556  0.36403282  1
  Ta5+  Ta33  1  0.07160698  0.62605536  0.37571658  1
  Ta5+  Ta34  1  0.67572815  0.88005224  0.35358299  1
  Ta5+  Ta35  1  0.81364599  0.61564751  0.14134136  1
  Ta5+  Ta36  1  0.58079828  0.86246969  0.60567656  1
  Ta5+  Ta37  1  0.37549225  0.39176063  0.62029068  1
  Ta5+  Ta38  1  0.89427295  0.86633612  0.63177680  1
  Ta5+  Ta39  1  0.37440067  0.09850323  0.86572114  1
  Ta5+  Ta40  1  0.87830698  0.62763611  0.64010805  1
  Ta5+  Ta41  1  0.61208593  0.38201998  0.36402505  1
  Ta5+  Ta42  1  0.89564423  0.11363240  0.39174889  1
  Ta5+  Ta43  1  0.62895384  0.62807754  0.13765808  1
  Ta5+  Ta44  1  0.85825791  0.85512843  0.86604352  1
  Ta5+  Ta45  1  0.58319105  0.86604389  0.86439077  1
  Ta5+  Ta46  1  0.40587863  0.10637599  0.36408214  1
  Ta5+  Ta47  1  0.37191333  0.10731479  0.61536092  1
  Ta5+  Ta48  1  0.57904106  0.63619634  0.87090599  1
  Ta5+  Ta49  1  0.87122647  0.09394977  0.88458125  1
  Ta5+  Ta50  1  0.36844649  0.12184065  0.12407562  1
  Ta5+  Ta51  1  0.62766561  0.38086310  0.11519978  1
  Ta5+  Ta52  1  0.91966463  0.09871564  0.13591214  1
  Ta5+  Ta53  1  0.12199920  0.42950758  0.14267255  1
  Ta5+  Ta54  1  0.14227157  0.38382630  0.60750843  1
  Ta5+  Ta55  1  0.62595143  0.39591684  0.62330928  1
  Ta5+  Ta56  1  0.92120247  0.41759389  0.15714932  1
  Ta5+  Ta57  1  0.07728481  0.63322720  0.88032628  1
  Ta5+  Ta58  1  0.06358864  0.86146849  0.37590883  1
  Ta5+  Ta59  1  0.66071104  0.10372712  0.88053445  1
  Ta5+  Ta60  1  0.12716006  0.08768032  0.11627877  1
  Ta5+  Ta61  1  0.39776585  0.38944936  0.11628696  1
  Ta5+  Ta62  1  0.08231658  0.62664284  0.09885152  1
  Ta5+  Ta63  1  0.09135051  0.88631838  0.10793567  1
  Ta5+  Ta64  1  0.12325760  0.10440609  0.36861360  1
  Ta5+  Ta65  1  0.11488016  0.62955810  0.62559229  1
  Ta5+  Ta66  1  0.41349938  0.64574433  0.87257810  1
  Ta5+  Ta67  1  0.40948517  0.86564427  0.61642294  1
  Ta5+  Ta68  1  0.40400306  0.38757974  0.36401877  1
  Ta5+  Ta69  1  0.62186922  0.87437124  0.13156979  1
  Ta5+  Ta70  1  0.07339044  0.86633133  0.62674942  1
  Ta5+  Ta71  1  0.08523611  0.86433384  0.87335323  1
  Ta5+  Ta72  1  0.86912934  0.38427600  0.63537865  1
  Ta5+  Ta73  1  0.36200947  0.62926076  0.13899661  1
  Ta5+  Ta74  1  0.35593253  0.87492897  0.14330086  1
  W6+  W75  1  0.14803597  0.41514855  0.83245420  1
  W6+  W76  1  0.41875670  0.86898681  0.87564642  1
  W6+  W77  1  0.13415561  0.10969135  0.61396941  1
  W6+  W78  1  0.91142754  0.62482056  0.89614831  1
  W6+  W79  1  0.62540415  0.10622702  0.62771457  1
  W6+  W80  1  0.88565075  0.11618862  0.64791130  1
  W6+  W81  1  0.88277201  0.37076795  0.38204973  1
  W6+  W82  1  0.10132349  0.37523901  0.35304146  1
  O2-  O83  1  0.17801365  -0.02558105  0.08236689  1
  O2-  O84  1  0.09973209  -0.01621227  0.37101076  1
  O2-  O85  1  0.09655357  -0.01558374  0.61714018  1
  O2-  O86  1  0.10267006  -0.01098615  0.88788658  1
  O2-  O87  1  0.17124724  0.53692640  0.09934321  1
  O2-  O88  1  0.08389683  0.50803918  0.36136070  1
  O2-  O89  1  0.15031407  0.51179102  0.61323267  1
  O2-  O90  1  0.10988215  0.52095840  0.90511251  1
  O2-  O91  1  0.37321324  0.00370756  0.13980628  1
  O2-  O92  1  0.33916494  0.00282577  0.36295476  1
  O2-  O93  1  0.36349676  -0.01190376  0.59916150  1
  O2-  O94  1  0.44758045  0.00626589  0.88607213  1
  O2-  O95  1  0.40374577  0.50959951  0.12213533  1
  O2-  O96  1  0.35875200  0.49946180  0.36696455  1
  O2-  O97  1  0.38324915  0.51276315  0.61936995  1
  O2-  O98  1  0.41906410  0.51842100  0.89350411  1
  O2-  O99  1  0.62461917  0.00645052  0.11842598  1
  O2-  O100  1  0.68213528  0.01014702  0.36138687  1
  O2-  O101  1  0.61406148  -0.02270763  0.61087083  1
  O2-  O102  1  0.63427760  -0.01335635  0.87706104  1
  O2-  O103  1  0.62277783  0.49869022  0.12129478  1
  O2-  O104  1  0.67079912  0.48749463  0.37106136  1
  O2-  O105  1  0.62539803  0.51488148  0.62252657  1
  O2-  O106  1  0.61200386  0.50973999  0.88160319  1
  O2-  O107  1  0.84748463  0.00425394  0.11118674  1
  O2-  O108  1  0.87349003  -0.00356465  0.39730090  1
  O2-  O109  1  0.90144877  -0.01463649  0.62754786  1
  O2-  O110  1  0.89404046  -0.02117969  0.89171685  1
  O2-  O111  1  0.82628483  0.48739321  0.13154439  1
  O2-  O112  1  0.88257915  0.49720882  0.38699975  1
  O2-  O113  1  0.85330174  0.50405892  0.61792270  1
  O2-  O114  1  0.92910674  0.48937388  0.92356199  1
  O2-  O115  1  0.24241026  0.14707403  0.11584254  1
  O2-  O116  1  0.16058896  0.23563109  0.35285449  1
  O2-  O117  1  0.11106938  0.25561565  0.61366472  1
  O2-  O118  1  0.08107241  0.29904180  0.86990125  1
  O2-  O119  1  0.13382549  0.75337429  0.09589907  1
  O2-  O120  1  0.12333563  0.74913910  0.36776719  1
  O2-  O121  1  0.15256943  0.75167794  0.62490997  1
  O2-  O122  1  0.13919198  0.75188332  0.90159913  1
  O2-  O123  1  0.35185367  0.26280485  0.11018811  1
  O2-  O124  1  0.33845202  0.27796605  0.36788401  1
  O2-  O125  1  0.40205844  0.25353870  0.61972721  1
  O2-  O126  1  0.44667823  0.20737949  0.86650263  1
  O2-  O127  1  0.31520739  0.75145514  0.13826155  1
  O2-  O128  1  0.30023660  0.74843128  0.35393777  1
  O2-  O129  1  0.35383763  0.75232442  0.61595197  1
  O2-  O130  1  0.34759569  0.75324890  0.86813527  1
  O2-  O131  1  0.66614165  0.24650116  0.10086441  1
  O2-  O132  1  0.66168432  0.26263323  0.37288124  1
  O2-  O133  1  0.61237787  0.24964274  0.62831941  1
  O2-  O134  1  0.68817777  0.25422651  0.88512880  1
  O2-  O135  1  0.59948749  0.75109653  0.15978681  1
  O2-  O136  1  0.68144346  0.74908887  0.34704341  1
  O2-  O137  1  0.64521122  0.75270569  0.61708721  1
  O2-  O138  1  0.63490574  0.75200773  0.87160043  1
  O2-  O139  1  0.83289849  0.18717314  0.13408809  1
  O2-  O140  1  0.83560439  0.22817423  0.37045725  1
  O2-  O141  1  0.88359356  0.25559518  0.67342082  1
  O2-  O142  1  0.88762315  0.28401714  0.89498169  1
  O2-  O143  1  0.82598965  0.74961892  0.14121772  1
  O2-  O144  1  0.87322923  0.74487325  0.35428010  1
  O2-  O145  1  0.83112359  0.74399309  0.63960514  1
  O2-  O146  1  0.82732573  0.73553461  0.87520494  1
  O2-  O147  1  0.13358484  0.14018509  -0.01769279  1
  O2-  O148  1  0.14733918  0.09596393  0.24093165  1
  O2-  O149  1  0.18219260  0.11193835  0.47700711  1
  O2-  O150  1  0.12017325  0.13162061  0.75901305  1
  O2-  O151  1  0.01127968  0.65946913  0.00046533  1
  O2-  O152  1  0.07825284  0.64707023  0.23142814  1
  O2-  O153  1  0.12932624  0.63945998  0.49212981  1
  O2-  O154  1  0.09570370  0.63423036  0.75724407  1
  O2-  O155  1  0.37291064  0.13209743  -0.00258816  1
  O2-  O156  1  0.35733021  0.14768247  0.25424673  1
  O2-  O157  1  0.37010334  0.14432473  0.47878929  1
  O2-  O158  1  0.39027944  0.11339073  0.74037289  1
  O2-  O159  1  0.37106161  0.65054510  0.01133154  1
  O2-  O160  1  0.42074567  0.65798770  0.25217212  1
  O2-  O161  1  0.36097686  0.64378065  0.48225473  1
  O2-  O162  1  0.41034019  0.64113464  0.74415504  1
  O2-  O163  1  0.58934238  0.13462650  -0.01552952  1
  O2-  O164  1  0.64187685  0.14275553  0.24218482  1
  O2-  O165  1  0.63469803  0.13682531  0.48478723  1
  O2-  O166  1  0.60478310  0.14186116  0.77202616  1
  O2-  O167  1  0.61387227  0.64438479  0.01169718  1
  O2-  O168  1  0.57755889  0.61395978  0.27297720  1
  O2-  O169  1  0.63701067  0.63808449  0.48172106  1
  O2-  O170  1  0.58762405  0.63959406  0.74557098  1
  O2-  O171  1  0.92779013  0.13624940  -0.00896080  1
  O2-  O172  1  0.91875571  0.10464562  0.25906446  1
  O2-  O173  1  0.86502680  0.13887730  0.51138366  1
  O2-  O174  1  0.93916194  0.13045026  0.78804294  1
  O2-  O175  1  0.82391836  0.62608613  0.01397645  1
  O2-  O176  1  0.89817959  0.61384019  0.24327704  1
  O2-  O177  1  0.85460021  0.64178723  0.50152553  1
  O2-  O178  1  0.88652050  0.61193192  0.76210838  1
  O2-  O179  1  0.13468842  0.32885374  0.07063917  1
  O2-  O180  1  0.19224944  0.39849762  0.24027392  1
  O2-  O181  1  0.16171686  0.37096702  0.48204888  1
  O2-  O182  1  0.07796987  0.39235823  0.71579437  1
  O2-  O183  1  0.03469217  0.86627389  0.00240260  1
  O2-  O184  1  0.07428416  0.85112245  0.23145242  1
  O2-  O185  1  0.07050399  0.84702950  0.50112894  1
  O2-  O186  1  0.11387470  0.86262479  0.75341673  1
  O2-  O187  1  0.39808322  0.36778577  -0.01434618  1
  O2-  O188  1  0.36101602  0.37352735  0.23713098  1
  O2-  O189  1  0.35346684  0.37744894  0.49802913  1
  O2-  O190  1  0.39611078  0.36845798  0.76458661  1
  O2-  O191  1  0.36664727  0.86362017  0.01751003  1
  O2-  O192  1  0.41744632  0.85160640  0.25697101  1
  O2-  O193  1  0.35498024  0.85734934  0.47938144  1
  O2-  O194  1  0.40985587  0.87244745  0.73703225  1
  O2-  O195  1  0.59323827  0.36388907  -0.01395131  1
  O2-  O196  1  0.66245372  0.36104263  0.23634160  1
  O2-  O197  1  0.65442943  0.36947202  0.50350475  1
  O2-  O198  1  0.61037442  0.35950077  0.76381342  1
  O2-  O199  1  0.61357746  0.85697195  0.00847512  1
  O2-  O200  1  0.58233902  0.88758054  0.26908449  1
  O2-  O201  1  0.63137102  0.86223842  0.47107731  1
  O2-  O202  1  0.58559654  0.86123931  0.74231682  1
  O2-  O203  1  0.91962417  0.33696627  0.06590056  1
  O2-  O204  1  0.85696278  0.35653765  0.24642826  1
  O2-  O205  1  0.85779521  0.34644225  0.51600725  1
  O2-  O206  1  0.91797701  0.39539909  0.75636961  1
  O2-  O207  1  0.81362476  0.86419864  -0.00288317  1
  O2-  O208  1  0.89323845  0.88311014  0.24068844  1
  O2-  O209  1  0.86931918  0.84723611  0.50721940  1
  O2-  O210  1  0.82658218  0.87768397  0.75045659  1
  O2-  O211  1  0.02572615  0.00615683  0.12648697  1
  O2-  O212  1  0.03198603  0.17192836  0.12198730  1
  O2-  O213  1  0.01404373  0.13699454  0.40779664  1
  O2-  O214  1  -0.02652169  -0.17579086  0.84710036  1
  O2-  O215  1  0.01414655  0.50487194  0.11613354  1
  O2-  O216  1  0.02992734  0.38070200  0.22338871  1
  O2-  O217  1  -0.00556027  0.32656993  0.40689752  1
  O2-  O218  1  -0.00494979  0.63588236  0.61192730  1
  O2-  O219  1  0.26335226  0.18290165  -0.12946892  1
  O2-  O220  1  0.26246289  -0.11512703  0.23876239  1
  O2-  O221  1  0.25824736  0.15830898  0.61921143  1
  O2-  O222  1  0.27060049  0.02176007  0.85248422  1
  O2-  O223  1  0.24604142  0.38371008  -0.07209970  1
  O2-  O224  1  0.27393965  0.60902601  0.23811052  1
  O2-  O225  1  0.25575814  0.36402238  0.64716189  1
  O2-  O226  1  0.26209315  0.48926037  0.79670043  1
  O2-  O227  1  0.49412312  0.15236261  0.13080208  1
  O2-  O228  1  0.50283978  0.19321530  0.36632302  1
  O2-  O229  1  0.50911492  0.03465784  0.36213439  1
  O2-  O230  1  0.49451566  0.11304637  0.59610868  1
  O2-  O231  1  0.51035536  0.34297546  0.13118183  1
  O2-  O232  1  0.51148085  0.41341422  0.29406390  1
  O2-  O233  1  0.50596951  0.36395038  0.43971275  1
  O2-  O234  1  0.50354145  0.38134216  0.62113132  1
  O2-  O235  1  0.76173533  0.11113254  -0.03462337  1
  O2-  O236  1  0.72821542  -0.11572136  0.21455142  1
  O2-  O237  1  0.75208324  0.15052408  0.63135868  1
  O2-  O238  1  0.76952758  0.10765167  0.80473553  1
  O2-  O239  1  0.76199051  0.39393087  -0.03621391  1
  O2-  O240  1  0.72708570  0.61787698  0.23231788  1
  O2-  O241  1  0.74770053  0.36328656  0.65149691  1
  O2-  O242  1  0.76027014  0.43810589  0.80656177  1
