# generated using pymatgen
data_Gd19Ta56(WO20)8
_symmetry_space_group_name_H-M   'P 1'
_cell_length_a   15.63778170
_cell_length_b   15.43605483
_cell_length_c   15.10258105
_cell_angle_alpha   89.98563624
_cell_angle_beta   89.65306107
_cell_angle_gamma   90.01581598
_symmetry_Int_Tables_number   1
_chemical_formula_structural   Gd19Ta56(WO20)8
_chemical_formula_sum   'Gd19 Ta56 W8 O160'
_cell_volume   3645.47934020
_cell_formula_units_Z   1
loop_
 _symmetry_equiv_pos_site_id
 _symmetry_equiv_pos_as_xyz
  1  'x, y, z'
loop_
 _atom_type_symbol
 _atom_type_oxidation_number
  Gd3+  3.0
  Ta5+  5.0
  W6+  6.0
  O2-  -2.0
loop_
 _atom_site_type_symbol
 _atom_site_label
 _atom_site_symmetry_multiplicity
 _atom_site_fract_x
 _atom_site_fract_y
 _atom_site_fract_z
 _atom_site_occupancy
  Gd3+  Gd0  1  -0.07445705  0.70902067  0.28181798  1
  Gd3+  Gd1  1  -0.00506943  0.74872881  0.76874478  1
  Gd3+  Gd2  1  0.50387749  0.76794447  0.27108881  1
  Gd3+  Gd3  1  0.72530049  0.75577272  0.01589834  1
  Gd3+  Gd4  1  -0.01531067  0.25304067  0.00131203  1
  Gd3+  Gd5  1  0.49598064  0.26328274  0.23847204  1
  Gd3+  Gd6  1  -0.01539283  0.24952787  0.25434012  1
  Gd3+  Gd7  1  0.24945978  0.75062301  0.74315442  1
  Gd3+  Gd8  1  0.74341455  0.25529072  0.25571971  1
  Gd3+  Gd9  1  0.26260260  0.74785862  0.48737612  1
  Gd3+  Gd10  1  0.74412503  0.75651410  0.73827863  1
  Gd3+  Gd11  1  -0.04165090  0.23392504  0.50707191  1
  Gd3+  Gd12  1  0.01695990  0.74809174  0.50275131  1
  Gd3+  Gd13  1  0.74447632  0.75881482  0.48933414  1
  Gd3+  Gd14  1  0.29383513  0.74394251  0.24181490  1
  Gd3+  Gd15  1  -0.02685540  0.73821045  0.01858852  1
  Gd3+  Gd16  1  -0.00086769  0.23760114  0.74912244  1
  Gd3+  Gd17  1  0.73046119  0.25649613  0.50876678  1
  Gd3+  Gd18  1  0.29230342  0.22362167  0.50989786  1
  Ta5+  Ta19  1  0.60708424  0.62432332  0.13001652  1
  Ta5+  Ta20  1  0.39179299  0.87972919  0.86791379  1
  Ta5+  Ta21  1  0.11025354  0.89302765  0.62754355  1
  Ta5+  Ta22  1  0.35627225  0.92523852  0.37998826  1
  Ta5+  Ta23  1  0.13441745  0.35784784  0.61660997  1
  Ta5+  Ta24  1  0.63439520  0.13839901  0.10844843  1
  Ta5+  Ta25  1  0.13232360  0.12130601  0.35402584  1
  Ta5+  Ta26  1  0.37845212  0.60412060  0.38279464  1
  Ta5+  Ta27  1  0.60570468  0.62676946  0.38329224  1
  Ta5+  Ta28  1  0.39342908  0.61020601  0.62147306  1
  Ta5+  Ta29  1  0.59735137  0.13339057  0.38153595  1
  Ta5+  Ta30  1  0.12195331  0.38792194  0.13809513  1
  Ta5+  Ta31  1  0.64432124  0.37204344  0.87268512  1
  Ta5+  Ta32  1  0.40353621  0.87596779  0.62077286  1
  Ta5+  Ta33  1  0.43162580  0.11527320  0.37717524  1
  Ta5+  Ta34  1  0.14209871  0.13730811  0.13964239  1
  Ta5+  Ta35  1  0.77771804  0.56640063  0.14070876  1
  Ta5+  Ta36  1  0.60602882  0.88651709  0.62184098  1
  Ta5+  Ta37  1  0.40279541  0.63322868  0.86901994  1
  Ta5+  Ta38  1  0.67752616  0.14947854  0.87005852  1
  Ta5+  Ta39  1  0.63314681  0.90012260  0.87382415  1
  Ta5+  Ta40  1  0.84319257  0.10221792  0.38875548  1
  Ta5+  Ta41  1  0.37254746  0.36453498  0.37651726  1
  Ta5+  Ta42  1  0.43652978  0.12369996  0.63507875  1
  Ta5+  Ta43  1  0.86413003  0.88767163  0.15326863  1
  Ta5+  Ta44  1  0.85472575  0.61404423  0.89523190  1
  Ta5+  Ta45  1  0.36279175  0.37519641  0.11280821  1
  Ta5+  Ta46  1  0.62565499  0.61315103  0.62094762  1
  Ta5+  Ta47  1  0.12596912  0.12396836  0.88058153  1
  Ta5+  Ta48  1  0.36577478  0.38323161  0.87342672  1
  Ta5+  Ta49  1  0.85275398  0.37437401  0.66222663  1
  Ta5+  Ta50  1  0.60015795  0.13948426  0.63906319  1
  Ta5+  Ta51  1  0.84991980  0.41441893  0.12561242  1
  Ta5+  Ta52  1  0.86872966  0.88285496  0.89314872  1
  Ta5+  Ta53  1  0.12847636  0.87795654  0.35918800  1
  Ta5+  Ta54  1  0.11649621  0.88702154  0.86852111  1
  Ta5+  Ta55  1  0.89394798  0.61544882  0.64021423  1
  Ta5+  Ta56  1  0.10569449  0.60388942  0.63125559  1
  Ta5+  Ta57  1  0.15586169  0.57189104  0.30659371  1
  Ta5+  Ta58  1  0.62248790  0.89716116  0.14361108  1
  Ta5+  Ta59  1  0.84727129  0.11913247  0.86929325  1
  Ta5+  Ta60  1  0.36969807  0.12912939  0.87888746  1
  Ta5+  Ta61  1  0.87534663  0.38536447  0.38318405  1
  Ta5+  Ta62  1  0.86867583  0.09784177  0.12447495  1
  Ta5+  Ta63  1  0.41962484  0.35796870  0.63001539  1
  Ta5+  Ta64  1  0.61851850  0.38465573  0.37746142  1
  Ta5+  Ta65  1  0.10589031  0.59696892  0.12505352  1
  Ta5+  Ta66  1  0.58514645  0.36436986  0.63627845  1
  Ta5+  Ta67  1  0.37241788  0.12739420  0.11727763  1
  Ta5+  Ta68  1  0.87609599  0.90916707  0.40425901  1
  Ta5+  Ta69  1  0.90418956  0.89037417  0.63985112  1
  Ta5+  Ta70  1  0.83458576  0.11712752  0.65986982  1
  Ta5+  Ta71  1  0.15653398  0.89328902  0.10508575  1
  Ta5+  Ta72  1  0.58176242  0.90508255  0.41111897  1
  Ta5+  Ta73  1  0.12479563  0.37601767  0.87870940  1
  Ta5+  Ta74  1  0.64723699  0.39455833  0.10914429  1
  W6+  W75  1  0.77584802  0.51950684  0.32632523  1
  W6+  W76  1  0.39548356  0.88263453  0.12254026  1
  W6+  W77  1  0.43331728  0.61624452  0.12235688  1
  W6+  W78  1  0.13693082  0.12988437  0.61088066  1
  W6+  W79  1  0.84079894  0.36315494  0.87197035  1
  W6+  W80  1  0.64490578  0.62389290  0.87220104  1
  W6+  W81  1  0.11610695  0.61948280  0.87490051  1
  W6+  W82  1  0.10535482  0.36052734  0.39121569  1
  O2-  O83  1  0.15249254  0.01517681  0.11421646  1
  O2-  O84  1  0.11445520  -0.00104793  0.37826398  1
  O2-  O85  1  0.16787682  -0.00475849  0.60835996  1
  O2-  O86  1  0.08369910  0.00843716  0.87857659  1
  O2-  O87  1  0.06318088  0.48510431  0.08954580  1
  O2-  O88  1  0.12888943  0.49752796  0.39438521  1
  O2-  O89  1  0.12443981  0.48590530  0.61263609  1
  O2-  O90  1  0.08523423  0.48658317  0.87489927  1
  O2-  O91  1  0.35174921  0.01035992  0.12358043  1
  O2-  O92  1  0.31139457  0.03352615  0.36753753  1
  O2-  O93  1  0.40874109  -0.00339427  0.62867865  1
  O2-  O94  1  0.35695078  -0.00545285  0.87017625  1
  O2-  O95  1  0.38895326  0.49030141  0.12391577  1
  O2-  O96  1  0.33978032  0.48509829  0.37648037  1
  O2-  O97  1  0.40907000  0.49197974  0.62152413  1
  O2-  O98  1  0.37370315  0.51104891  0.86679570  1
  O2-  O99  1  0.59362348  0.01543289  0.12511576  1
  O2-  O100  1  0.62611969  0.01435473  0.38587367  1
  O2-  O101  1  0.60024386  0.00795770  0.63124492  1
  O2-  O102  1  0.65623178  0.01730905  0.87476508  1
  O2-  O103  1  0.58074672  0.49791764  0.12809431  1
  O2-  O104  1  0.63444598  0.50713626  0.34806905  1
  O2-  O105  1  0.60551588  0.49588094  0.63045892  1
  O2-  O106  1  0.65307399  0.49019122  0.86882316  1
  O2-  O107  1  0.93305236  -0.00630383  0.14751665  1
  O2-  O108  1  0.93996520  0.01392596  0.40995014  1
  O2-  O109  1  0.83768570  -0.00821980  0.65687622  1
  O2-  O110  1  0.83436754  -0.00677185  0.86204196  1
  O2-  O111  1  0.90632515  0.51715269  0.15091884  1
  O2-  O112  1  0.90925132  0.49880240  0.36217189  1
  O2-  O113  1  0.85892392  0.50037199  0.64097348  1
  O2-  O114  1  0.84291562  0.49851659  0.87697870  1
  O2-  O115  1  0.09429011  0.25759424  0.14181619  1
  O2-  O116  1  0.05647495  0.21840309  0.38462463  1
  O2-  O117  1  0.06137283  0.25625023  0.60706729  1
  O2-  O118  1  0.08038322  0.24868542  0.87715451  1
  O2-  O119  1  0.05476857  0.83605729  0.08131762  1
  O2-  O120  1  0.04849710  0.78500803  0.35930874  1
  O2-  O121  1  0.10720450  0.76296840  0.65584222  1
  O2-  O122  1  0.12955691  0.75778103  0.84894413  1
  O2-  O123  1  0.41976452  0.25684753  0.11369132  1
  O2-  O124  1  0.36596834  0.23389871  0.37323475  1
  O2-  O125  1  0.37691985  0.23693923  0.63812034  1
  O2-  O126  1  0.36070290  0.25126004  0.87896607  1
  O2-  O127  1  0.41750813  0.75003759  0.15130963  1
  O2-  O128  1  0.38592655  0.73528729  0.38548963  1
  O2-  O129  1  0.34338198  0.75203660  0.61247675  1
  O2-  O130  1  0.34591997  0.75085234  0.85774647  1
  O2-  O131  1  0.68700343  0.26327480  0.11620747  1
  O2-  O132  1  0.65462773  0.25463971  0.37747747  1
  O2-  O133  1  0.65608019  0.25913805  0.63712348  1
  O2-  O134  1  0.72421657  0.27434392  0.89358419  1
  O2-  O135  1  0.61248271  0.76793688  0.14244944  1
  O2-  O136  1  0.60592158  0.75757893  0.39904421  1
  O2-  O137  1  0.65538198  0.76076068  0.61486664  1
  O2-  O138  1  0.66905985  0.76819985  0.87379845  1
  O2-  O139  1  0.92097459  0.20913123  0.12815078  1
  O2-  O140  1  0.85823674  0.23753162  0.38691934  1
  O2-  O141  1  0.87672891  0.24419612  0.64411251  1
  O2-  O142  1  0.90345319  0.23791254  0.87241381  1
  O2-  O143  1  0.89556089  0.76656468  0.14549297  1
  O2-  O144  1  0.88393927  0.76606357  0.41617402  1
  O2-  O145  1  0.92849550  0.75938517  0.62959091  1
  O2-  O146  1  0.84545402  0.75526453  0.92055718  1
  O2-  O147  1  0.09769287  0.14298609  0.01166853  1
  O2-  O148  1  0.05444492  0.11603486  0.23591908  1
  O2-  O149  1  0.18126926  0.13940631  0.46817213  1
  O2-  O150  1  0.11413534  0.13699440  0.75568862  1
  O2-  O151  1  0.09701144  0.65470815  0.01590925  1
  O2-  O152  1  0.19471338  0.66044050  0.18566337  1
  O2-  O153  1  0.14577905  0.66026596  0.52631709  1
  O2-  O154  1  0.17351615  0.61754776  0.73546209  1
  O2-  O155  1  0.41794913  0.11989677  -0.00446546  1
  O2-  O156  1  0.42290120  0.13044621  0.23681585  1
  O2-  O157  1  0.41066270  0.12523695  0.50524443  1
  O2-  O158  1  0.42611330  0.12150462  0.76944249  1
  O2-  O159  1  0.41543886  0.63844737  -0.01009337  1
  O2-  O160  1  0.39431427  0.61964313  0.25879729  1
  O2-  O161  1  0.33173981  0.61337407  0.51103231  1
  O2-  O162  1  0.35027335  0.63008009  0.73638109  1
  O2-  O163  1  0.61560233  0.15428498  -0.01255621  1
  O2-  O164  1  0.61328012  0.15865382  0.24091129  1
  O2-  O165  1  0.62643053  0.14759089  0.50766922  1
  O2-  O166  1  0.61022771  0.15231635  0.76862209  1
  O2-  O167  1  0.62560125  0.64635655  0.00680715  1
  O2-  O168  1  0.58130346  0.64205966  0.26002137  1
  O2-  O169  1  0.66587237  0.62000537  0.49890991  1
  O2-  O170  1  0.67504832  0.62718288  0.73325842  1
  O2-  O171  1  0.88588000  0.10875434  -0.00355202  1
  O2-  O172  1  0.84717109  0.12353939  0.25829599  1
  O2-  O173  1  0.82463724  0.12808908  0.52218719  1
  O2-  O174  1  0.92570294  0.10904671  0.75124076  1
  O2-  O175  1  0.81946961  0.62143469  0.02177605  1
  O2-  O176  1  0.80790763  0.63226615  0.25148683  1
  O2-  O177  1  0.79260272  0.66693566  0.59662445  1
  O2-  O178  1  0.85716312  0.65638282  0.76472664  1
  O2-  O179  1  0.09910898  0.35207923  0.00385788  1
  O2-  O180  1  0.06239831  0.37588234  0.24981899  1
  O2-  O181  1  0.18898820  0.33647589  0.50671630  1
  O2-  O182  1  0.12450087  0.35327098  0.74791937  1
  O2-  O183  1  0.18314030  0.89242979  -0.03026974  1
  O2-  O184  1  0.26038975  0.83765743  0.13045234  1
  O2-  O185  1  0.14506428  0.84479109  0.49920765  1
  O2-  O186  1  0.17429094  0.89290791  0.75612135  1
  O2-  O187  1  0.40708249  0.37844938  -0.00963186  1
  O2-  O188  1  0.37719791  0.35769778  0.24284232  1
  O2-  O189  1  0.37519002  0.35352811  0.50461737  1
  O2-  O190  1  0.41036892  0.37070801  0.75845965  1
  O2-  O191  1  0.38853594  0.86268964  -0.01217871  1
  O2-  O192  1  0.39145217  0.87555098  0.26800594  1
  O2-  O193  1  0.33979231  0.88358407  0.50110656  1
  O2-  O194  1  0.34878171  0.86898567  0.73735620  1
  O2-  O195  1  0.59848402  0.36586070  -0.00514325  1
  O2-  O196  1  0.61453062  0.35362058  0.23955724  1
  O2-  O197  1  0.62101601  0.36983800  0.50389830  1
  O2-  O198  1  0.58340629  0.35196289  0.76937181  1
  O2-  O199  1  0.64575996  0.88416314  0.00561276  1
  O2-  O200  1  0.58577185  0.88946478  0.27387048  1
  O2-  O201  1  0.66886531  0.88856771  0.50280758  1
  O2-  O202  1  0.66353681  0.88444404  0.74450117  1
  O2-  O203  1  0.88990796  0.36559295  0.01025586  1
  O2-  O204  1  0.86869986  0.34614498  0.24706759  1
  O2-  O205  1  0.86104433  0.36058588  0.51823024  1
  O2-  O206  1  0.93684833  0.37540783  0.75373191  1
  O2-  O207  1  0.85740361  0.89038637  0.02272194  1
  O2-  O208  1  0.89694467  0.87091067  0.28112310  1
  O2-  O209  1  0.83840383  0.87764026  0.52771682  1
  O2-  O210  1  0.86520225  0.84387752  0.76192548  1
  O2-  O211  1  -0.00437532  -0.15058647  -0.10302985  1
  O2-  O212  1  0.12966096  -0.11344967  0.23554931  1
  O2-  O213  1  0.00326430  -0.10211894  0.55211993  1
  O2-  O214  1  0.01408381  -0.09637103  0.71617198  1
  O2-  O215  1  -0.02267881  0.64915798  -0.10722178  1
  O2-  O216  1  0.04734617  0.61376362  0.25241856  1
  O2-  O217  1  -0.01540810  0.61167573  0.55007332  1
  O2-  O218  1  0.00647569  0.61183874  0.71261534  1
  O2-  O219  1  0.25882813  0.16741531  0.09988770  1
  O2-  O220  1  0.20870877  0.14768945  0.26230018  1
  O2-  O221  1  0.24743561  -0.15789780  0.35784406  1
  O2-  O222  1  0.24372305  0.12097766  0.88847783  1
  O2-  O223  1  0.24254019  0.36548608  0.10800293  1
  O2-  O224  1  0.17710645  0.49728211  0.20449307  1
  O2-  O225  1  0.24386309  0.64409010  0.35835939  1
  O2-  O226  1  0.24360820  0.38371658  0.88443434  1
  O2-  O227  1  0.51341207  -0.11116534  -0.13931516  1
  O2-  O228  1  0.46766279  -0.02301413  0.39420716  1
  O2-  O229  1  0.51213534  -0.12616758  0.52363911  1
  O2-  O230  1  0.50531946  -0.16130409  0.68127754  1
  O2-  O231  1  0.51240366  0.64667556  -0.17045534  1
  O2-  O232  1  0.49520763  0.36963452  0.37286759  1
  O2-  O233  1  0.49338921  0.59045645  0.42296836  1
  O2-  O234  1  0.50857401  0.65089171  0.61484958  1
  O2-  O235  1  0.74952713  0.09455410  0.11455957  1
  O2-  O236  1  0.74511315  -0.10275497  0.16913015  1
  O2-  O237  1  0.78628465  -0.01584167  0.37783865  1
  O2-  O238  1  0.77146852  0.15331304  0.76474797  1
  O2-  O239  1  0.74454737  0.45083109  0.05015697  1
  O2-  O240  1  0.74288474  0.44909793  0.20567435  1
  O2-  O241  1  0.74893602  0.38204771  0.37471704  1
  O2-  O242  1  0.76783347  0.36821262  0.75066555  1
