# generated using pymatgen
data_Gd19Ta56(WO20)8
_symmetry_space_group_name_H-M   'P 1'
_cell_length_a   15.62461366
_cell_length_b   15.41527136
_cell_length_c   15.22811658
_cell_angle_alpha   90.08120388
_cell_angle_beta   89.98436634
_cell_angle_gamma   89.97347110
_symmetry_Int_Tables_number   1
_chemical_formula_structural   Gd19Ta56(WO20)8
_chemical_formula_sum   'Gd19 Ta56 W8 O160'
_cell_volume   3667.80430240
_cell_formula_units_Z   1
loop_
 _symmetry_equiv_pos_site_id
 _symmetry_equiv_pos_as_xyz
  1  'x, y, z'
loop_
 _atom_type_symbol
 _atom_type_oxidation_number
  Gd3+  3.0
  Ta5+  5.0
  W6+  6.0
  O2-  -2.0
loop_
 _atom_site_type_symbol
 _atom_site_label
 _atom_site_symmetry_multiplicity
 _atom_site_fract_x
 _atom_site_fract_y
 _atom_site_fract_z
 _atom_site_occupancy
  Gd3+  Gd0  1  0.72893822  0.74723945  0.24435018  1
  Gd3+  Gd1  1  -0.01845631  0.76148746  0.26991102  1
  Gd3+  Gd2  1  0.26550683  0.75126787  -0.00386775  1
  Gd3+  Gd3  1  0.48158743  0.25910188  0.73725142  1
  Gd3+  Gd4  1  0.23339664  0.72643333  0.74431516  1
  Gd3+  Gd5  1  -0.00247388  0.24422776  0.25227152  1
  Gd3+  Gd6  1  0.49216830  0.73129572  0.22041455  1
  Gd3+  Gd7  1  0.03473891  0.25875571  0.76328607  1
  Gd3+  Gd8  1  0.25820579  0.24417322  0.02759885  1
  Gd3+  Gd9  1  0.70857252  0.74275952  0.49951863  1
  Gd3+  Gd10  1  0.00541205  0.74710174  0.75535569  1
  Gd3+  Gd11  1  -0.00515926  0.74873743  0.00815649  1
  Gd3+  Gd12  1  0.76746398  0.24652921  0.47970965  1
  Gd3+  Gd13  1  0.51510149  0.74550310  0.75736699  1
  Gd3+  Gd14  1  0.50565390  0.24761570  0.28360364  1
  Gd3+  Gd15  1  0.74300339  0.24030264  0.23359790  1
  Gd3+  Gd16  1  0.04384514  0.72885709  0.52017976  1
  Gd3+  Gd17  1  -0.00924220  0.25827181  0.51324886  1
  Gd3+  Gd18  1  0.29549746  0.25543640  0.45685563  1
  Ta5+  Ta19  1  0.62513827  0.12665218  0.86338759  1
  Ta5+  Ta20  1  0.14148728  0.87337284  0.38029885  1
  Ta5+  Ta21  1  0.65106941  0.11234807  0.36851417  1
  Ta5+  Ta22  1  0.13995196  0.11961427  0.88601304  1
  Ta5+  Ta23  1  0.12082000  0.38597045  0.38227632  1
  Ta5+  Ta24  1  0.13376144  0.87517620  0.13910098  1
  Ta5+  Ta25  1  0.12376863  0.11698691  0.13769868  1
  Ta5+  Ta26  1  0.68345631  0.36037902  0.86261629  1
  Ta5+  Ta27  1  0.59710801  0.60794629  0.37336303  1
  Ta5+  Ta28  1  0.64951730  0.87125954  0.86828212  1
  Ta5+  Ta29  1  0.61702050  0.59616067  0.63166668  1
  Ta5+  Ta30  1  0.41122700  0.37408523  0.12800800  1
  Ta5+  Ta31  1  0.36415924  0.12164410  0.14718124  1
  Ta5+  Ta32  1  0.86820653  0.62895374  0.12491401  1
  Ta5+  Ta33  1  0.12272043  0.60264824  0.88748372  1
  Ta5+  Ta34  1  0.84610208  0.38414866  0.88783350  1
  Ta5+  Ta35  1  0.84328940  0.38060063  0.64651564  1
  Ta5+  Ta36  1  0.37981823  0.87800182  0.12445275  1
  Ta5+  Ta37  1  0.39108840  0.88804237  0.87348383  1
  Ta5+  Ta38  1  0.37335890  0.86302575  0.37154052  1
  Ta5+  Ta39  1  0.85865953  0.89077840  0.13340846  1
  Ta5+  Ta40  1  0.12966644  0.89751885  0.63174555  1
  Ta5+  Ta41  1  0.62694105  0.35642953  0.62031348  1
  Ta5+  Ta42  1  0.85088384  0.89154115  0.39627562  1
  Ta5+  Ta43  1  0.61667070  0.90290475  0.11097305  1
  Ta5+  Ta44  1  0.35899698  0.36675215  0.87653901  1
  Ta5+  Ta45  1  0.19105366  0.36977408  0.87698716  1
  Ta5+  Ta46  1  0.89214575  0.86885530  0.62200106  1
  Ta5+  Ta47  1  0.89129653  0.14966706  0.89031614  1
  Ta5+  Ta48  1  0.88861272  0.39519675  0.38010586  1
  Ta5+  Ta49  1  0.84584376  0.10755220  0.66005299  1
  Ta5+  Ta50  1  0.42166355  0.43944313  0.37773449  1
  Ta5+  Ta51  1  0.10784403  0.62355801  0.15267971  1
  Ta5+  Ta52  1  0.13916771  0.53571646  0.64215715  1
  Ta5+  Ta53  1  0.64635900  0.37885088  0.37099537  1
  Ta5+  Ta54  1  0.34862059  0.38593991  0.62054100  1
  Ta5+  Ta55  1  0.60059794  0.87696285  0.36379853  1
  Ta5+  Ta56  1  0.89625585  0.38490413  0.12816781  1
  Ta5+  Ta57  1  0.11553859  0.87907077  0.88135826  1
  Ta5+  Ta58  1  0.85111475  0.62366040  0.65481086  1
  Ta5+  Ta59  1  0.13106248  0.37781425  0.12791537  1
  Ta5+  Ta60  1  0.36949666  0.88130829  0.62385160  1
  Ta5+  Ta61  1  0.18531315  0.14715212  0.63164395  1
  Ta5+  Ta62  1  0.36157721  0.62419345  0.60313542  1
  Ta5+  Ta63  1  0.11244456  0.11851476  0.39894593  1
  Ta5+  Ta64  1  0.60249538  0.56832640  0.12783506  1
  Ta5+  Ta65  1  0.34954717  0.13385081  0.62248535  1
  Ta5+  Ta66  1  0.32411609  0.62458550  0.35336349  1
  Ta5+  Ta67  1  0.18579646  0.33416509  0.62736933  1
  Ta5+  Ta68  1  0.37557306  0.61103006  0.87103017  1
  Ta5+  Ta69  1  0.33434479  0.60363676  0.12798979  1
  Ta5+  Ta70  1  0.62338606  0.60723837  0.88430121  1
  Ta5+  Ta71  1  0.41908264  0.06192248  0.38525612  1
  Ta5+  Ta72  1  0.61831081  0.37295444  0.10196384  1
  Ta5+  Ta73  1  0.85443373  0.63151419  0.86538153  1
  Ta5+  Ta74  1  0.61551150  0.11945000  0.61794783  1
  W6+  W75  1  0.89719670  0.88975203  0.88286356  1
  W6+  W76  1  0.59416634  0.87395541  0.61818135  1
  W6+  W77  1  0.85846959  0.64211039  0.39475178  1
  W6+  W78  1  0.57923034  0.15533479  0.10158300  1
  W6+  W79  1  0.36664802  0.13356552  0.87885076  1
  W6+  W80  1  0.93864278  0.06094613  0.03565157  1
  W6+  W81  1  0.89790063  0.08930504  0.38334045  1
  W6+  W82  1  0.16229963  0.62837102  0.32311111  1
  O2-  O83  1  0.10122440  -0.00942932  0.12223652  1
  O2-  O84  1  0.14186162  -0.00468574  0.39366594  1
  O2-  O85  1  0.15793991  0.01425602  0.62304787  1
  O2-  O86  1  0.15301738  -0.00474608  0.89147698  1
  O2-  O87  1  0.12270321  0.50065465  0.13848472  1
  O2-  O88  1  0.14216775  0.50066638  0.36621373  1
  O2-  O89  1  0.08013445  0.43170328  0.63734733  1
  O2-  O90  1  0.13161273  0.48305543  0.88735134  1
  O2-  O91  1  0.39739656  0.00085415  0.13784530  1
  O2-  O92  1  0.32916666  -0.01455405  0.35272045  1
  O2-  O93  1  0.36318183  0.00104329  0.62483226  1
  O2-  O94  1  0.35253829  -0.00025325  0.85991451  1
  O2-  O95  1  0.34026608  0.48061603  0.13260263  1
  O2-  O96  1  0.32126088  0.49806156  0.34134871  1
  O2-  O97  1  0.40845810  0.51312782  0.61752356  1
  O2-  O98  1  0.38455048  0.49281866  0.86876742  1
  O2-  O99  1  0.61086653  0.01917553  0.11292787  1
  O2-  O100  1  0.64484659  -0.00902819  0.34975729  1
  O2-  O101  1  0.57194058  0.01054433  0.60442386  1
  O2-  O102  1  0.65536211  0.00924239  0.86756713  1
  O2-  O103  1  0.68683350  0.48182151  0.12853838  1
  O2-  O104  1  0.66036100  0.49944704  0.36564966  1
  O2-  O105  1  0.58845559  0.47427262  0.61913351  1
  O2-  O106  1  0.65003839  0.48703813  0.86236171  1
  O2-  O107  1  0.86805734  0.00932691  0.14609892  1
  O2-  O108  1  0.95247364  -0.04707529  0.37550560  1
  O2-  O109  1  0.85903118  -0.00737448  0.63007435  1
  O2-  O110  1  0.88322863  0.02367779  0.90132775  1
  O2-  O111  1  0.87886732  0.50918461  0.13987802  1
  O2-  O112  1  0.85542121  0.50637027  0.39202527  1
  O2-  O113  1  0.87639678  0.49909620  0.63904154  1
  O2-  O114  1  0.86325006  0.50943656  0.87267037  1
  O2-  O115  1  0.15149301  0.24662462  0.13331593  1
  O2-  O116  1  0.08468465  0.24867772  0.38939533  1
  O2-  O117  1  0.08817487  0.23823116  0.62005388  1
  O2-  O118  1  0.15539569  0.24862570  0.90460864  1
  O2-  O119  1  0.07632218  0.75858980  0.13988708  1
  O2-  O120  1  0.08974238  0.75294332  0.37766782  1
  O2-  O121  1  0.11176553  0.76060311  0.65170592  1
  O2-  O122  1  0.12279156  0.74499836  0.85772428  1
  O2-  O123  1  0.35510550  0.25745280  0.15228621  1
  O2-  O124  1  0.52608715  0.35665930  0.39072342  1
  O2-  O125  1  0.38619248  0.26124686  0.59652747  1
  O2-  O126  1  0.42316306  0.25644325  0.87286959  1
  O2-  O127  1  0.36839764  0.74602128  0.11692345  1
  O2-  O128  1  0.38890783  0.73840396  0.35925523  1
  O2-  O129  1  0.40789104  0.74042051  0.61660149  1
  O2-  O130  1  0.33580207  0.76903506  0.86395199  1
  O2-  O131  1  0.51964464  0.29079075  0.11794828  1
  O2-  O132  1  0.65525836  0.24500449  0.37734034  1
  O2-  O133  1  0.57145801  0.23938854  0.60002164  1
  O2-  O134  1  0.69869752  0.22440556  0.85482386  1
  O2-  O135  1  0.73833227  0.86347177  0.13907365  1
  O2-  O136  1  0.57030735  0.73497104  0.35024416  1
  O2-  O137  1  0.61069794  0.73003457  0.63535411  1
  O2-  O138  1  0.62245043  0.74438071  0.86215216  1
  O2-  O139  1  0.86835331  0.27082831  0.17348087  1
  O2-  O140  1  0.90593995  0.24090826  0.37942035  1
  O2-  O141  1  0.93790189  0.31315781  0.66870381  1
  O2-  O142  1  0.91217136  0.27729745  0.85886337  1
  O2-  O143  1  0.90112158  0.76022333  0.12620090  1
  O2-  O144  1  0.91320894  0.77292351  0.40758686  1
  O2-  O145  1  0.92857228  0.73681562  0.62506213  1
  O2-  O146  1  0.91665590  0.74749408  0.87936590  1
  O2-  O147  1  0.16530724  0.11942123  0.01664366  1
  O2-  O148  1  0.09975371  0.12452953  0.27060269  1
  O2-  O149  1  0.19350862  0.14879441  0.48867887  1
  O2-  O150  1  0.13980028  0.14135697  0.76042382  1
  O2-  O151  1  0.09205889  0.63202414  0.00721092  1
  O2-  O152  1  0.03303722  0.62447095  0.25447361  1
  O2-  O153  1  0.07729327  0.59615585  0.55773151  1
  O2-  O154  1  0.12180607  0.60009559  0.75171306  1
  O2-  O155  1  0.36091100  0.13508072  0.02203627  1
  O2-  O156  1  0.40766830  0.12885033  0.27483909  1
  O2-  O157  1  0.37148005  0.12198933  0.48145605  1
  O2-  O158  1  0.38080235  0.14900026  0.74210714  1
  O2-  O159  1  0.35671050  0.62200045  0.00109430  1
  O2-  O160  1  0.39367787  0.61934866  0.23764740  1
  O2-  O161  1  0.34033670  0.62057661  0.48080837  1
  O2-  O162  1  0.36931766  0.64074178  0.74712007  1
  O2-  O163  1  0.56247634  0.14674715  -0.03825822  1
  O2-  O164  1  0.61657641  0.15321317  0.24332928  1
  O2-  O165  1  0.67413062  0.12328017  0.50066386  1
  O2-  O166  1  0.57150266  0.13659790  0.74761187  1
  O2-  O167  1  0.58877680  0.58892545  0.00284958  1
  O2-  O168  1  0.62678592  0.69298773  0.14725003  1
  O2-  O169  1  0.60869427  0.62182564  0.50342719  1
  O2-  O170  1  0.58273676  0.60710954  0.75328345  1
  O2-  O171  1  0.85255336  0.16907213  0.00355830  1
  O2-  O172  1  0.76967686  0.12967898  0.32806493  1
  O2-  O173  1  0.87119703  0.17265591  0.56105414  1
  O2-  O174  1  0.92190791  0.13916106  0.74946726  1
  O2-  O175  1  0.89075886  0.63602330  -0.00019708  1
  O2-  O176  1  0.85152226  0.66170782  0.25296276  1
  O2-  O177  1  0.82483791  0.65177856  0.53187573  1
  O2-  O178  1  0.79437138  0.67510514  0.75498680  1
  O2-  O179  1  0.19008783  0.37969443  0.01850298  1
  O2-  O180  1  0.10902553  0.35555351  0.25805956  1
  O2-  O181  1  0.18382366  0.35188414  0.48754624  1
  O2-  O182  1  0.16368143  0.34066476  0.75755668  1
  O2-  O183  1  0.14191435  0.84298298  0.00939820  1
  O2-  O184  1  0.08951237  0.87765036  0.26049709  1
  O2-  O185  1  0.14005506  0.85273076  0.50606144  1
  O2-  O186  1  0.09471358  0.89520188  0.75424979  1
  O2-  O187  1  0.37732034  0.35950007  0.00804890  1
  O2-  O188  1  0.42753756  0.38042862  0.26173916  1
  O2-  O189  1  0.36934263  0.39039492  0.47976635  1
  O2-  O190  1  0.37540901  0.36975612  0.74202618  1
  O2-  O191  1  0.34727273  0.87665835  -0.00229921  1
  O2-  O192  1  0.41223943  0.85834715  0.24697199  1
  O2-  O193  1  0.38104104  0.86871873  0.49809613  1
  O2-  O194  1  0.41511297  0.86449180  0.74244821  1
  O2-  O195  1  0.65239404  0.34932991  -0.01241352  1
  O2-  O196  1  0.63117816  0.34783094  0.23953978  1
  O2-  O197  1  0.67086385  0.37000303  0.49532695  1
  O2-  O198  1  0.61472213  0.34014248  0.74551184  1
  O2-  O199  1  0.64564074  0.87245016  -0.00342337  1
  O2-  O200  1  0.60120996  0.85313578  0.23589452  1
  O2-  O201  1  0.59911811  0.84746748  0.48415814  1
  O2-  O202  1  0.60123458  0.87442931  0.75205143  1
  O2-  O203  1  0.85175502  0.37456114  0.01202542  1
  O2-  O204  1  0.77498242  0.34894958  0.34608506  1
  O2-  O205  1  0.86345022  0.35794707  0.51282302  1
  O2-  O206  1  0.78920146  0.38333903  0.76447117  1
  O2-  O207  1  0.92193254  0.89070060  0.02268251  1
  O2-  O208  1  0.85874815  0.85879495  0.26178589  1
  O2-  O209  1  0.81397202  0.84727664  0.52550761  1
  O2-  O210  1  0.90403334  0.86173294  0.74461843  1
  O2-  O211  1  0.01810416  0.13871420  -0.09661011  1
  O2-  O212  1  0.00551039  0.14644131  0.12844889  1
  O2-  O213  1  0.01242820  0.10977765  0.46700039  1
  O2-  O214  1  0.00479896  -0.10309298  0.59019936  1
  O2-  O215  1  0.01173040  0.35958138  0.09714388  1
  O2-  O216  1  -0.06435787  0.39196404  0.26459707  1
  O2-  O217  1  0.00643027  0.39472397  0.43471904  1
  O2-  O218  1  -0.06063119  0.61650313  0.75473564  1
  O2-  O219  1  0.25232359  -0.12044341  0.15204534  1
  O2-  O220  1  0.24948050  0.10246390  0.17274740  1
  O2-  O221  1  0.25230335  -0.15973302  0.35644884  1
  O2-  O222  1  0.25379936  -0.14519096  0.65594434  1
  O2-  O223  1  0.24461489  0.62974605  -0.12471590  1
  O2-  O224  1  0.22373766  0.65896695  0.11150186  1
  O2-  O225  1  0.24315679  0.62884480  0.63192245  1
  O2-  O226  1  0.24205125  0.46119848  0.62372758  1
  O2-  O227  1  0.50269983  -0.14417033  0.09837738  1
  O2-  O228  1  0.48689059  -0.05812408  0.37700655  1
  O2-  O229  1  0.52817906  0.12890611  0.39274073  1
  O2-  O230  1  0.50529885  -0.12063636  0.89602073  1
  O2-  O231  1  0.51826531  0.45954179  0.11806066  1
  O2-  O232  1  0.56240653  0.58450848  0.25127000  1
  O2-  O233  1  0.49037989  0.53784372  0.40375198  1
  O2-  O234  1  0.48999192  0.65004913  0.88048536  1
  O2-  O235  1  0.76577632  -0.13484978  -0.14039982  1
  O2-  O236  1  0.72591492  -0.16318755  0.36805135  1
  O2-  O237  1  0.80750295  -0.00188367  0.43699509  1
  O2-  O238  1  0.72637291  0.11624823  0.67884236  1
  O2-  O239  1  0.73991376  0.63346418  -0.08861157  1
  O2-  O240  1  0.71717751  0.66080857  0.37014419  1
  O2-  O241  1  0.74544419  0.30049343  0.62348127  1
  O2-  O242  1  0.73039575  0.57386121  0.64312940  1
