# generated using pymatgen
data_Gd19Ta56(WO20)8
_symmetry_space_group_name_H-M   'P 1'
_cell_length_a   15.63963377
_cell_length_b   15.46553999
_cell_length_c   15.31084241
_cell_angle_alpha   89.81667784
_cell_angle_beta   90.01942300
_cell_angle_gamma   89.98898367
_symmetry_Int_Tables_number   1
_chemical_formula_structural   Gd19Ta56(WO20)8
_chemical_formula_sum   'Gd19 Ta56 W8 O160'
_cell_volume   3703.29661239
_cell_formula_units_Z   1
loop_
 _symmetry_equiv_pos_site_id
 _symmetry_equiv_pos_as_xyz
  1  'x, y, z'
loop_
 _atom_type_symbol
 _atom_type_oxidation_number
  Gd3+  3.0
  Ta5+  5.0
  W6+  6.0
  O2-  -2.0
loop_
 _atom_site_type_symbol
 _atom_site_label
 _atom_site_symmetry_multiplicity
 _atom_site_fract_x
 _atom_site_fract_y
 _atom_site_fract_z
 _atom_site_occupancy
  Gd3+  Gd0  1  0.50631126  0.25446868  0.48629451  1
  Gd3+  Gd1  1  0.76080844  0.75753820  0.24257055  1
  Gd3+  Gd2  1  0.24406740  0.24714969  0.47880609  1
  Gd3+  Gd3  1  -0.02908175  0.26435681  0.23235852  1
  Gd3+  Gd4  1  0.29033867  0.26244813  0.24194674  1
  Gd3+  Gd5  1  0.49181167  0.25410350  0.00204283  1
  Gd3+  Gd6  1  0.49173751  0.75478475  -0.00997939  1
  Gd3+  Gd7  1  0.45207397  0.73785986  0.48823790  1
  Gd3+  Gd8  1  0.77459885  0.76770844  0.76164839  1
  Gd3+  Gd9  1  0.75250070  0.75103910  0.49403942  1
  Gd3+  Gd10  1  0.72898108  0.74142336  -0.01299822  1
  Gd3+  Gd11  1  0.00743574  0.24602072  0.50153118  1
  Gd3+  Gd12  1  0.22597202  0.22986471  0.01134942  1
  Gd3+  Gd13  1  0.25203410  0.76581308  0.28028165  1
  Gd3+  Gd14  1  -0.02991037  0.74396913  -0.00207880  1
  Gd3+  Gd15  1  0.50261660  0.25230785  0.74249955  1
  Gd3+  Gd16  1  0.77126939  0.25117447  0.76291433  1
  Gd3+  Gd17  1  0.20892806  0.76308456  0.75805088  1
  Gd3+  Gd18  1  -0.00392058  0.73902115  0.75163132  1
  Ta5+  Ta19  1  0.63441901  0.12305333  0.37277906  1
  Ta5+  Ta20  1  0.43976090  0.88097616  0.34723447  1
  Ta5+  Ta21  1  0.64401482  0.35366641  0.12489422  1
  Ta5+  Ta22  1  0.61769546  0.87746437  0.37782666  1
  Ta5+  Ta23  1  0.87531387  0.38025538  0.61872264  1
  Ta5+  Ta24  1  0.14742287  0.11892732  0.34797827  1
  Ta5+  Ta25  1  0.14536268  0.39126117  0.36146821  1
  Ta5+  Ta26  1  0.39479566  0.12229828  0.36601061  1
  Ta5+  Ta27  1  0.85875924  0.12399378  0.11511440  1
  Ta5+  Ta28  1  0.10898265  0.88399572  0.42759818  1
  Ta5+  Ta29  1  0.60943197  0.61803780  0.60995713  1
  Ta5+  Ta30  1  0.34321142  0.87891486  0.87216447  1
  Ta5+  Ta31  1  0.11682912  0.61442399  0.62928551  1
  Ta5+  Ta32  1  0.62691136  0.13123835  0.12211224  1
  Ta5+  Ta33  1  0.87915750  0.38959734  0.37916826  1
  Ta5+  Ta34  1  0.06977104  0.87434587  0.13530161  1
  Ta5+  Ta35  1  0.90139754  0.87587625  0.37579810  1
  Ta5+  Ta36  1  0.11022159  0.63828534  0.38782452  1
  Ta5+  Ta37  1  0.13142175  0.36675764  0.63124095  1
  Ta5+  Ta38  1  0.67853493  0.57321492  0.84500708  1
  Ta5+  Ta39  1  0.61856730  0.89693950  0.16780834  1
  Ta5+  Ta40  1  0.39158057  0.88090691  0.12037915  1
  Ta5+  Ta41  1  0.41372577  0.62627877  0.32210633  1
  Ta5+  Ta42  1  0.15593358  0.12835891  0.67488861  1
  Ta5+  Ta43  1  0.88151000  0.12345731  0.62519206  1
  Ta5+  Ta44  1  0.64420175  0.92106825  0.85621819  1
  Ta5+  Ta45  1  0.39381058  0.62420425  0.66253012  1
  Ta5+  Ta46  1  0.86337609  0.59294404  0.88520713  1
  Ta5+  Ta47  1  0.13486458  0.61036983  0.90480444  1
  Ta5+  Ta48  1  0.37140685  0.38566366  0.61909511  1
  Ta5+  Ta49  1  0.09011711  0.61668969  0.15809375  1
  Ta5+  Ta50  1  0.93485382  0.88641857  0.60237495  1
  Ta5+  Ta51  1  0.39751502  0.87772241  0.64601870  1
  Ta5+  Ta52  1  0.07872376  0.11935469  0.89552219  1
  Ta5+  Ta53  1  0.36946337  0.62942327  0.86041334  1
  Ta5+  Ta54  1  0.12280790  0.36246417  0.88255999  1
  Ta5+  Ta55  1  0.13587605  0.38100556  0.14033341  1
  Ta5+  Ta56  1  0.11251764  0.92415040  0.89377929  1
  Ta5+  Ta57  1  0.36600586  0.38211889  0.85669629  1
  Ta5+  Ta58  1  0.86975922  0.62694054  0.62115498  1
  Ta5+  Ta59  1  0.38452526  0.40686928  0.10671728  1
  Ta5+  Ta60  1  0.65547009  0.35949563  0.35294981  1
  Ta5+  Ta61  1  0.91139434  0.63395663  0.37264438  1
  Ta5+  Ta62  1  0.59589548  0.87788056  0.62374262  1
  Ta5+  Ta63  1  0.58425464  0.58639070  0.13813942  1
  Ta5+  Ta64  1  0.39315063  0.39741027  0.36567652  1
  Ta5+  Ta65  1  0.61465143  0.10900521  0.87764270  1
  Ta5+  Ta66  1  0.35020190  0.12527677  0.84388365  1
  Ta5+  Ta67  1  0.88522389  0.92798839  0.87149510  1
  Ta5+  Ta68  1  0.63810103  0.37639020  0.60874284  1
  Ta5+  Ta69  1  0.87342374  0.12235517  0.37521194  1
  Ta5+  Ta70  1  0.91302101  0.14259155  0.87962308  1
  Ta5+  Ta71  1  0.80941504  0.37212783  0.12816569  1
  Ta5+  Ta72  1  0.36853450  0.12118621  0.62079145  1
  Ta5+  Ta73  1  0.87212007  0.59991493  0.13015622  1
  Ta5+  Ta74  1  0.38319588  0.61057786  0.11220082  1
  W6+  W75  1  0.37274698  0.13236524  0.10883728  1
  W6+  W76  1  0.09694455  0.89374860  0.64186287  1
  W6+  W77  1  0.61787749  0.36623236  0.87437289  1
  W6+  W78  1  0.10872459  0.12134022  0.14901126  1
  W6+  W79  1  0.87156503  0.39029436  0.88104535  1
  W6+  W80  1  0.89540906  0.87398975  0.12492957  1
  W6+  W81  1  0.64606287  0.61110297  0.35746003  1
  W6+  W82  1  0.63862576  0.12724756  0.62545805  1
  O2-  O83  1  0.06703609  -0.00856142  0.14891833  1
  O2-  O84  1  0.13213364  -0.00919517  0.37297188  1
  O2-  O85  1  0.10995384  0.03097755  0.63086087  1
  O2-  O86  1  0.17533682  0.02231100  0.87023350  1
  O2-  O87  1  0.14358746  0.50395290  0.15698194  1
  O2-  O88  1  0.12767403  0.51451134  0.38080965  1
  O2-  O89  1  0.13206085  0.49269685  0.62830392  1
  O2-  O90  1  0.12884892  0.49320795  0.88958748  1
  O2-  O91  1  0.38753618  -0.00239691  0.12546242  1
  O2-  O92  1  0.42033410  0.00265393  0.35241438  1
  O2-  O93  1  0.36399984  -0.00662456  0.62320669  1
  O2-  O94  1  0.36231801  -0.00296289  0.85135759  1
  O2-  O95  1  0.31173333  0.51137075  0.09153925  1
  O2-  O96  1  0.44630941  0.51061339  0.35341885  1
  O2-  O97  1  0.35113985  0.51308831  0.63459767  1
  O2-  O98  1  0.35963021  0.50916853  0.84855558  1
  O2-  O99  1  0.62694422  0.00148550  0.11070810  1
  O2-  O100  1  0.61650242  0.00360491  0.38670213  1
  O2-  O101  1  0.62429874  -0.00688828  0.62543063  1
  O2-  O102  1  0.55618053  0.00878027  0.83110378  1
  O2-  O103  1  0.63011902  0.47572599  0.13975590  1
  O2-  O104  1  0.63368032  0.47513057  0.33828081  1
  O2-  O105  1  0.58413194  0.48348502  0.61217477  1
  O2-  O106  1  0.59251657  0.50467825  0.88603278  1
  O2-  O107  1  0.87294967  0.00732902  0.12612948  1
  O2-  O108  1  0.89029454  0.00052300  0.37148234  1
  O2-  O109  1  0.89095327  -0.00357944  0.62987808  1
  O2-  O110  1  0.83983137  0.03701733  0.87512059  1
  O2-  O111  1  0.80194585  0.50575214  0.14111589  1
  O2-  O112  1  0.88122487  0.51354245  0.38073418  1
  O2-  O113  1  0.85405244  0.50784550  0.62819059  1
  O2-  O114  1  0.94367913  0.50399438  0.86920237  1
  O2-  O115  1  0.16876306  0.25555493  0.15205646  1
  O2-  O116  1  0.17936402  0.25864818  0.34164772  1
  O2-  O117  1  0.11147187  0.23486377  0.62109943  1
  O2-  O118  1  0.13792542  0.23850178  0.89123803  1
  O2-  O119  1  0.03603275  0.73602761  0.13585143  1
  O2-  O120  1  0.15618523  0.76640861  0.39105138  1
  O2-  O121  1  0.11129004  0.74823068  0.64838889  1
  O2-  O122  1  0.03964823  0.68876914  0.88482168  1
  O2-  O123  1  0.35139064  0.27999685  0.09862810  1
  O2-  O124  1  0.37187441  0.26273401  0.38750023  1
  O2-  O125  1  0.39635850  0.25416176  0.61732213  1
  O2-  O126  1  0.38281276  0.25162467  0.84290370  1
  O2-  O127  1  0.38387437  0.73987085  0.09644734  1
  O2-  O128  1  0.47152311  0.73634150  0.33699568  1
  O2-  O129  1  0.37664097  0.74802054  0.61569553  1
  O2-  O130  1  0.40327721  0.76484933  0.86617913  1
  O2-  O131  1  0.56775859  0.24105177  0.13757557  1
  O2-  O132  1  0.58680328  0.25004409  0.35242746  1
  O2-  O133  1  0.58013372  0.26180698  0.61742718  1
  O2-  O134  1  0.56834753  0.23269066  0.87268241  1
  O2-  O135  1  0.68522268  0.81148763  0.11352271  1
  O2-  O136  1  0.66763437  0.75444752  0.36620456  1
  O2-  O137  1  0.59014984  0.73975751  0.62352926  1
  O2-  O138  1  0.67553448  0.70025046  0.84897979  1
  O2-  O139  1  0.86241652  0.25664198  0.13304992  1
  O2-  O140  1  0.92000778  0.25383233  0.37595894  1
  O2-  O141  1  0.89463734  0.25239714  0.60504363  1
  O2-  O142  1  0.86974255  0.25661550  0.88189914  1
  O2-  O143  1  0.84174784  0.72671508  0.10097236  1
  O2-  O144  1  0.84963602  0.74815617  0.37593822  1
  O2-  O145  1  0.75852948  0.68818671  0.63324841  1
  O2-  O146  1  0.85436460  0.72495981  0.89845001  1
  O2-  O147  1  0.13026338  0.11935944  0.01333830  1
  O2-  O148  1  0.05204219  0.14610993  0.27708838  1
  O2-  O149  1  0.11552725  0.15833419  0.45994680  1
  O2-  O150  1  0.07875342  0.13807538  0.76756390  1
  O2-  O151  1  0.11942860  0.62358543  0.03090416  1
  O2-  O152  1  0.15907160  0.65531703  0.25785534  1
  O2-  O153  1  0.15457322  0.62992471  0.51251233  1
  O2-  O154  1  0.13360151  0.62814920  0.76176030  1
  O2-  O155  1  0.33292330  0.13567128  -0.03347492  1
  O2-  O156  1  0.39728735  0.15783479  0.24681064  1
  O2-  O157  1  0.41345989  0.12511076  0.50113535  1
  O2-  O158  1  0.43294174  0.12310710  0.73277389  1
  O2-  O159  1  0.41634849  0.62494271  -0.02311935  1
  O2-  O160  1  0.32804768  0.63830740  0.23148885  1
  O2-  O161  1  0.34822651  0.65069562  0.42012436  1
  O2-  O162  1  0.30482968  0.65888647  0.74434863  1
  O2-  O163  1  0.57051427  0.12791074  0.00091752  1
  O2-  O164  1  0.64518378  0.11908591  0.24454116  1
  O2-  O165  1  0.60143284  0.14350855  0.49256696  1
  O2-  O166  1  0.66993290  0.14031903  0.76695410  1
  O2-  O167  1  0.59723485  0.66209490  0.04079420  1
  O2-  O168  1  0.66272878  0.63882384  0.21579280  1
  O2-  O169  1  0.66241948  0.61564833  0.50056822  1
  O2-  O170  1  0.65313148  0.58574775  0.72209232  1
  O2-  O171  1  0.92000986  0.13568972  0.01010558  1
  O2-  O172  1  0.87685016  0.13814665  0.24944668  1
  O2-  O173  1  0.92183948  0.12282841  0.49524132  1
  O2-  O174  1  0.88393883  0.14323297  0.74624463  1
  O2-  O175  1  0.91313376  0.60547910  0.00623116  1
  O2-  O176  1  0.85614527  0.64094977  0.25126732  1
  O2-  O177  1  0.85464018  0.63541645  0.49822424  1
  O2-  O178  1  0.87603951  0.64533623  0.75836228  1
  O2-  O179  1  0.13308054  0.36865947  0.01682047  1
  O2-  O180  1  0.07382557  0.37368280  0.26018481  1
  O2-  O181  1  0.12862906  0.35381801  0.48875956  1
  O2-  O182  1  0.11580043  0.36133487  0.75281761  1
  O2-  O183  1  0.08526128  0.86470346  0.00511992  1
  O2-  O184  1  0.16756853  0.84229220  0.19820064  1
  O2-  O185  1  0.17513991  0.88675165  0.52631838  1
  O2-  O186  1  0.08203095  0.86040272  0.78963806  1
  O2-  O187  1  0.40532577  0.38676985  -0.02518909  1
  O2-  O188  1  0.38492579  0.39027494  0.23474384  1
  O2-  O189  1  0.41069571  0.39476406  0.50155858  1
  O2-  O190  1  0.42873254  0.38381177  0.73593684  1
  O2-  O191  1  0.37028118  0.87783572  -0.00643029  1
  O2-  O192  1  0.36323654  0.85409272  0.24011351  1
  O2-  O193  1  0.36086836  0.83704238  0.42791608  1
  O2-  O194  1  0.31625828  0.86004439  0.74130680  1
  O2-  O195  1  0.59637252  0.35399253  0.00924116  1
  O2-  O196  1  0.71128216  0.33323584  0.23848969  1
  O2-  O197  1  0.61214800  0.35942277  0.48231045  1
  O2-  O198  1  0.65473018  0.35147232  0.73565613  1
  O2-  O199  1  0.59686413  0.84157515  -0.06682039  1
  O2-  O200  1  0.69500330  0.89718447  0.26744411  1
  O2-  O201  1  0.64887441  0.85976950  0.50649329  1
  O2-  O202  1  0.66238515  0.86462202  0.73968452  1
  O2-  O203  1  0.83689782  0.38986452  0.01253912  1
  O2-  O204  1  0.88134367  0.38196891  0.25318358  1
  O2-  O205  1  0.93356961  0.38467088  0.49916588  1
  O2-  O206  1  0.87088493  0.36357131  0.74130161  1
  O2-  O207  1  0.90849532  0.87918567  -0.01907410  1
  O2-  O208  1  0.86187450  0.86456932  0.26010615  1
  O2-  O209  1  0.84800168  0.86616744  0.49483307  1
  O2-  O210  1  0.91360005  0.76315323  0.62544138  1
  O2-  O211  1  0.00252422  -0.00376874  -0.11905938  1
  O2-  O212  1  0.01254724  -0.15727600  0.34515583  1
  O2-  O213  1  0.00301470  -0.09146055  0.49329577  1
  O2-  O214  1  -0.09968405  -0.13555572  0.76164656  1
  O2-  O215  1  -0.01713587  0.55695755  0.15080598  1
  O2-  O216  1  0.01407347  0.61970244  0.30033085  1
  O2-  O217  1  0.00673200  0.67253662  0.44766737  1
  O2-  O218  1  -0.00278760  0.61494436  0.63201834  1
  O2-  O219  1  0.22570635  -0.15290135  -0.11331355  1
  O2-  O220  1  0.27160604  0.11723654  0.38348411  1
  O2-  O221  1  0.25409953  0.14121267  0.57834186  1
  O2-  O222  1  0.26956776  0.12789337  0.73994632  1
  O2-  O223  1  0.25064028  0.64992608  -0.09686696  1
  O2-  O224  1  0.27029505  0.40108154  0.37812924  1
  O2-  O225  1  0.25563409  0.35307560  0.60610743  1
  O2-  O226  1  0.25031182  0.36673101  0.87299473  1
  O2-  O227  1  0.51143725  -0.14364778  0.10205334  1
  O2-  O228  1  0.53956074  -0.12163262  0.26514424  1
  O2-  O229  1  0.48695732  -0.12767427  0.55262100  1
  O2-  O230  1  0.49440057  -0.12187980  0.71674172  1
  O2-  O231  1  0.47001007  0.51241543  0.09969255  1
  O2-  O232  1  0.48568191  0.63324309  0.19951481  1
  O2-  O233  1  0.48648885  0.61547632  0.57399806  1
  O2-  O234  1  0.46321532  0.62401648  0.76348956  1
  O2-  O235  1  0.68709304  0.01762253  -0.07723068  1
  O2-  O236  1  0.74157159  0.13748331  0.08264876  1
  O2-  O237  1  0.75696445  0.14123709  0.39244060  1
  O2-  O238  1  0.76457864  -0.12761457  0.87630853  1
  O2-  O239  1  0.75237173  0.59684312  -0.04484927  1
  O2-  O240  1  0.76763168  0.35321180  0.40450678  1
  O2-  O241  1  0.75641894  0.37012093  0.58756929  1
  O2-  O242  1  0.78280680  0.50628500  0.82587786  1
