# generated using pymatgen
data_Gd19Ta56(WO20)8
_symmetry_space_group_name_H-M   'P 1'
_cell_length_a   15.56840916
_cell_length_b   15.41864658
_cell_length_c   15.28498822
_cell_angle_alpha   89.96863410
_cell_angle_beta   90.30354437
_cell_angle_gamma   89.98323634
_symmetry_Int_Tables_number   1
_chemical_formula_structural   Gd19Ta56(WO20)8
_chemical_formula_sum   'Gd19 Ta56 W8 O160'
_cell_volume   3669.01443493
_cell_formula_units_Z   1
loop_
 _symmetry_equiv_pos_site_id
 _symmetry_equiv_pos_as_xyz
  1  'x, y, z'
loop_
 _atom_type_symbol
 _atom_type_oxidation_number
  Gd3+  3.0
  Ta5+  5.0
  W6+  6.0
  O2-  -2.0
loop_
 _atom_site_type_symbol
 _atom_site_label
 _atom_site_symmetry_multiplicity
 _atom_site_fract_x
 _atom_site_fract_y
 _atom_site_fract_z
 _atom_site_occupancy
  Gd3+  Gd0  1  0.48929079  0.76306549  0.49493498  1
  Gd3+  Gd1  1  0.74158811  0.75586308  0.24874029  1
  Gd3+  Gd2  1  0.74256553  0.25397617  0.74581023  1
  Gd3+  Gd3  1  0.25505229  0.78257530  0.00245606  1
  Gd3+  Gd4  1  0.48079238  0.27045554  0.02974324  1
  Gd3+  Gd5  1  0.23494211  0.25725323  0.76682622  1
  Gd3+  Gd6  1  0.03319160  0.72481165  0.49378909  1
  Gd3+  Gd7  1  0.53446375  0.23370043  0.25101764  1
  Gd3+  Gd8  1  0.72547589  0.76147300  0.73650003  1
  Gd3+  Gd9  1  0.72257162  0.25929215  -0.00166486  1
  Gd3+  Gd10  1  0.76197261  0.25067888  0.24423631  1
  Gd3+  Gd11  1  0.49011745  0.23829954  0.50384924  1
  Gd3+  Gd12  1  0.03620023  0.72424751  0.25404576  1
  Gd3+  Gd13  1  0.73199267  0.22926673  0.47397304  1
  Gd3+  Gd14  1  0.48178317  0.73787859  0.00484041  1
  Gd3+  Gd15  1  -0.00828405  0.25002011  0.49881097  1
  Gd3+  Gd16  1  0.77316632  0.73974180  0.48555647  1
  Gd3+  Gd17  1  0.00089936  0.25682433  0.25627177  1
  Gd3+  Gd18  1  0.50128356  0.75135293  0.25563590  1
  Ta5+  Ta19  1  0.14428300  0.61746201  0.63790781  1
  Ta5+  Ta20  1  0.60117645  0.60600506  0.60678673  1
  Ta5+  Ta21  1  0.59613022  0.11847554  0.85850566  1
  Ta5+  Ta22  1  0.18979011  0.61702083  0.38172071  1
  Ta5+  Ta23  1  0.88367315  0.64470262  0.87909767  1
  Ta5+  Ta24  1  0.35246756  0.63918643  0.14410342  1
  Ta5+  Ta25  1  0.58298248  0.93016082  0.60548071  1
  Ta5+  Ta26  1  0.33700574  0.12651348  0.14441137  1
  Ta5+  Ta27  1  0.62972276  0.11032153  0.61150457  1
  Ta5+  Ta28  1  0.86424191  0.39734526  0.37305789  1
  Ta5+  Ta29  1  0.62546894  0.60018078  0.36628899  1
  Ta5+  Ta30  1  0.35145589  0.42383458  0.39809549  1
  Ta5+  Ta31  1  0.33115070  0.87318694  0.34103790  1
  Ta5+  Ta32  1  0.70166588  0.45563146  0.36762863  1
  Ta5+  Ta33  1  0.11496289  0.38595426  0.63847184  1
  Ta5+  Ta34  1  0.86205180  0.09744633  0.37094914  1
  Ta5+  Ta35  1  0.61258067  0.43188945  0.16310730  1
  Ta5+  Ta36  1  0.85989310  0.58935999  0.36361243  1
  Ta5+  Ta37  1  0.55794411  0.62277201  0.85240537  1
  Ta5+  Ta38  1  0.13133658  0.86792283  0.63035618  1
  Ta5+  Ta39  1  0.88143492  0.12837746  0.86857916  1
  Ta5+  Ta40  1  0.09634182  0.86870169  0.88350752  1
  Ta5+  Ta41  1  0.88050155  0.38213541  0.62463943  1
  Ta5+  Ta42  1  0.38656849  0.12945945  0.88716182  1
  Ta5+  Ta43  1  0.63664527  0.87473433  0.37948713  1
  Ta5+  Ta44  1  0.37008933  0.10274579  0.39234869  1
  Ta5+  Ta45  1  0.14119317  0.11713289  0.62002560  1
  Ta5+  Ta46  1  0.35838133  0.62882200  0.38106816  1
  Ta5+  Ta47  1  0.89037161  0.62910845  0.12412284  1
  Ta5+  Ta48  1  0.89882105  0.61891918  0.62853901  1
  Ta5+  Ta49  1  0.89527313  0.12380479  0.62609373  1
  Ta5+  Ta50  1  0.80032720  0.94403812  0.37132891  1
  Ta5+  Ta51  1  0.39927670  0.38478917  0.84761060  1
  Ta5+  Ta52  1  0.43397833  0.90845780  0.12428441  1
  Ta5+  Ta53  1  0.38033839  0.63885216  0.63767135  1
  Ta5+  Ta54  1  0.17967735  0.62304274  0.88429436  1
  Ta5+  Ta55  1  0.86397776  0.12396580  0.11856351  1
  Ta5+  Ta56  1  0.61075752  0.61594882  0.11272919  1
  Ta5+  Ta57  1  0.40953582  0.38962593  0.63520987  1
  Ta5+  Ta58  1  0.36878840  0.88748472  0.63603256  1
  Ta5+  Ta59  1  0.60660664  0.38519926  0.83712437  1
  Ta5+  Ta60  1  0.11362978  0.12399788  0.12631856  1
  Ta5+  Ta61  1  0.87920568  0.87903936  0.12957552  1
  Ta5+  Ta62  1  0.41020357  0.11996072  0.67124866  1
  Ta5+  Ta63  1  0.36771413  0.39117830  0.16193906  1
  Ta5+  Ta64  1  0.62029112  0.07929050  0.10553354  1
  Ta5+  Ta65  1  0.88845874  0.39129111  0.11693001  1
  Ta5+  Ta66  1  0.13468406  0.37853823  0.13331092  1
  Ta5+  Ta67  1  0.41628431  0.88165344  0.87740957  1
  Ta5+  Ta68  1  0.85427666  0.39789265  0.87568470  1
  Ta5+  Ta69  1  0.12472596  0.38430184  0.38757709  1
  Ta5+  Ta70  1  0.65022581  0.07038712  0.35750262  1
  Ta5+  Ta71  1  0.64575649  0.38012601  0.58669043  1
  Ta5+  Ta72  1  0.18733825  0.62103814  0.13916096  1
  Ta5+  Ta73  1  0.10443486  0.38302115  0.89203270  1
  Ta5+  Ta74  1  0.35080333  0.62522569  0.88442570  1
  W6+  W75  1  0.59993762  0.87786704  0.11281642  1
  W6+  W76  1  0.57500378  0.86554074  0.84578871  1
  W6+  W77  1  0.15054691  0.87540782  0.37741837  1
  W6+  W78  1  0.13443108  0.12297231  0.37496003  1
  W6+  W79  1  0.86025801  0.87645062  0.61592915  1
  W6+  W80  1  0.84525327  0.87655447  0.87937663  1
  W6+  W81  1  0.12664824  0.87637696  0.15209168  1
  W6+  W82  1  0.11953847  0.12149050  0.88161261  1
  O2-  O83  1  0.14122087  0.00817652  0.13824393  1
  O2-  O84  1  0.16554251  0.00416146  0.38332642  1
  O2-  O85  1  0.14251289  -0.00365871  0.61947531  1
  O2-  O86  1  0.11413848  -0.01327336  0.87831602  1
  O2-  O87  1  0.15193471  0.50123987  0.12852543  1
  O2-  O88  1  0.12970511  0.50167222  0.40008904  1
  O2-  O89  1  0.17278597  0.49103003  0.61947769  1
  O2-  O90  1  0.14031465  0.50051683  0.89730811  1
  O2-  O91  1  0.35624752  0.00760917  0.13272922  1
  O2-  O92  1  0.37627970  -0.01795126  0.38934121  1
  O2-  O93  1  0.35048876  0.01157588  0.64456714  1
  O2-  O94  1  0.38768782  0.00760879  0.88749507  1
  O2-  O95  1  0.34742289  0.50807117  0.15705810  1
  O2-  O96  1  0.42451422  0.51584758  0.42272330  1
  O2-  O97  1  0.39695196  0.51042320  0.62795190  1
  O2-  O98  1  0.35804705  0.49048619  0.88556991  1
  O2-  O99  1  0.68987139  -0.01956563  0.10669369  1
  O2-  O100  1  0.56943098  -0.01803204  0.38274387  1
  O2-  O101  1  0.68930106  0.00145120  0.60973700  1
  O2-  O102  1  0.58792341  0.00092665  0.85339302  1
  O2-  O103  1  0.52862082  0.52721168  0.13171652  1
  O2-  O104  1  0.58801774  0.49339213  0.30014924  1
  O2-  O105  1  0.66623714  0.50142751  0.59950694  1
  O2-  O106  1  0.60209738  0.50633838  0.85226786  1
  O2-  O107  1  0.89203389  0.00725249  0.13036627  1
  O2-  O108  1  0.92690128  -0.00244547  0.36764410  1
  O2-  O109  1  0.89158973  0.00596129  0.61840638  1
  O2-  O110  1  0.85395763  0.01297904  0.87164152  1
  O2-  O111  1  0.85868049  0.50944250  0.11622738  1
  O2-  O112  1  0.94255066  0.50031656  0.39018988  1
  O2-  O113  1  0.84760894  0.50777309  0.62331424  1
  O2-  O114  1  0.85948258  0.51818472  0.87794770  1
  O2-  O115  1  0.08257830  0.25793020  0.13851850  1
  O2-  O116  1  0.08115932  0.25037575  0.38079314  1
  O2-  O117  1  0.15944990  0.26741624  0.63546848  1
  O2-  O118  1  0.14427109  0.26061419  0.87830733  1
  O2-  O119  1  0.13380986  0.73894134  0.14627022  1
  O2-  O120  1  0.12196929  0.73619250  0.37604235  1
  O2-  O121  1  0.10251396  0.74087932  0.62697726  1
  O2-  O122  1  0.17059575  0.75796669  0.87718232  1
  O2-  O123  1  0.41479955  0.22070802  0.16146891  1
  O2-  O124  1  0.45597615  0.19118867  0.36673382  1
  O2-  O125  1  0.42284099  0.24273580  0.64157986  1
  O2-  O126  1  0.36101592  0.26910838  0.87503679  1
  O2-  O127  1  0.40016403  0.76625237  0.13454985  1
  O2-  O128  1  0.40125427  0.76582389  0.37039329  1
  O2-  O129  1  0.42056575  0.76079925  0.63204134  1
  O2-  O130  1  0.36165375  0.76132952  0.89270781  1
  O2-  O131  1  0.59021684  0.20725058  0.10682917  1
  O2-  O132  1  0.65938370  0.20397566  0.34154727  1
  O2-  O133  1  0.62069467  0.24213304  0.59840293  1
  O2-  O134  1  0.63190541  0.25598318  0.86231561  1
  O2-  O135  1  0.57697552  0.74062888  0.11914942  1
  O2-  O136  1  0.66082680  0.74233573  0.38677309  1
  O2-  O137  1  0.67962031  0.69899203  0.60693402  1
  O2-  O138  1  0.61368630  0.72925674  0.83239500  1
  O2-  O139  1  0.84356767  0.26505217  0.11479255  1
  O2-  O140  1  0.83325136  0.26166329  0.37318105  1
  O2-  O141  1  0.76435519  0.32668241  0.59903358  1
  O2-  O142  1  0.81710798  0.24401348  0.87626434  1
  O2-  O143  1  0.84819721  0.74490491  0.14459961  1
  O2-  O144  1  0.83794907  0.71492480  0.34954193  1
  O2-  O145  1  0.84454706  0.73586714  0.62648832  1
  O2-  O146  1  0.80773817  0.73805765  0.86832734  1
  O2-  O147  1  0.07431810  0.12369134  0.01184113  1
  O2-  O148  1  0.07454095  0.12880249  0.25002917  1
  O2-  O149  1  0.17775790  0.14416764  0.50609541  1
  O2-  O150  1  0.15668067  0.13229803  0.74379358  1
  O2-  O151  1  0.18139919  0.64310490  0.01054759  1
  O2-  O152  1  0.14084794  0.61479561  0.26269454  1
  O2-  O153  1  0.14875117  0.63347399  0.50336335  1
  O2-  O154  1  0.13511021  0.61592168  0.76021727  1
  O2-  O155  1  0.35610691  0.14529667  0.00928996  1
  O2-  O156  1  0.32261374  0.11810384  0.27407748  1
  O2-  O157  1  0.39150860  0.12889201  0.51637271  1
  O2-  O158  1  0.32659074  0.13886505  0.76686191  1
  O2-  O159  1  0.37169722  0.63031291  0.01582630  1
  O2-  O160  1  0.40866751  0.63480508  0.26217791  1
  O2-  O161  1  0.38476679  0.65731397  0.50550640  1
  O2-  O162  1  0.38405052  0.63285444  0.76263236  1
  O2-  O163  1  0.66030549  0.11944760  -0.02836507  1
  O2-  O164  1  0.59318349  0.09109432  0.23096572  1
  O2-  O165  1  0.60434836  0.12669298  0.48393443  1
  O2-  O166  1  0.65357345  0.13312394  0.74296084  1
  O2-  O167  1  0.58311469  0.62476865  -0.01722837  1
  O2-  O168  1  0.62504193  0.65229686  0.24548893  1
  O2-  O169  1  0.56894942  0.63018695  0.48575973  1
  O2-  O170  1  0.55189295  0.60980410  0.71961345  1
  O2-  O171  1  0.88482312  0.14067705  -0.00278921  1
  O2-  O172  1  0.88880300  0.15397240  0.24425314  1
  O2-  O173  1  0.87256665  0.15235246  0.50043421  1
  O2-  O174  1  0.91850152  0.25960768  0.63333229  1
  O2-  O175  1  0.91521886  0.64919496  -0.00102791  1
  O2-  O176  1  0.93123211  0.61364581  0.24403513  1
  O2-  O177  1  0.89595811  0.64411435  0.49481329  1
  O2-  O178  1  0.91269367  0.63418520  0.75364151  1
  O2-  O179  1  0.14730772  0.36689314  0.00947851  1
  O2-  O180  1  0.09080979  0.38084739  0.26485863  1
  O2-  O181  1  0.08425661  0.36651909  0.51040656  1
  O2-  O182  1  0.13869445  0.38363118  0.76538453  1
  O2-  O183  1  0.14015706  0.86562829  0.00707740  1
  O2-  O184  1  0.06793252  0.86507276  0.27545293  1
  O2-  O185  1  0.08444123  0.86196474  0.51001043  1
  O2-  O186  1  0.09866354  0.86863239  0.74787587  1
  O2-  O187  1  0.37263506  0.36377252  0.04357676  1
  O2-  O188  1  0.39452059  0.37206257  0.29720317  1
  O2-  O189  1  0.37123933  0.36148257  0.51377055  1
  O2-  O190  1  0.32734491  0.37163686  0.73272798  1
  O2-  O191  1  0.38310172  0.87577766  0.00916983  1
  O2-  O192  1  0.42965078  0.88708031  0.24973182  1
  O2-  O193  1  0.46343768  0.90299129  0.55199812  1
  O2-  O194  1  0.39039789  0.87995747  0.75571311  1
  O2-  O195  1  0.64556725  0.36736720  0.06345457  1
  O2-  O196  1  0.67396136  0.36531089  0.25250469  1
  O2-  O197  1  0.65768283  0.36360908  0.45849201  1
  O2-  O198  1  0.64882396  0.37054655  0.72069191  1
  O2-  O199  1  0.57572589  0.84758240  -0.01928424  1
  O2-  O200  1  0.62448537  0.85489224  0.25065351  1
  O2-  O201  1  0.62473904  0.85415960  0.51526030  1
  O2-  O202  1  0.60920955  0.86067776  0.70151453  1
  O2-  O203  1  0.84152153  0.37439973  -0.00147991  1
  O2-  O204  1  0.88507211  0.36129722  0.24280482  1
  O2-  O205  1  0.90010141  0.36998303  0.49836868  1
  O2-  O206  1  0.84478100  0.37047130  0.75196262  1
  O2-  O207  1  0.83600322  0.87421616  0.01797662  1
  O2-  O208  1  0.82200764  0.88400437  0.24585825  1
  O2-  O209  1  0.83113528  0.87898651  0.48463730  1
  O2-  O210  1  0.82167546  0.86761895  0.74295109  1
  O2-  O211  1  -0.01870620  -0.15196443  -0.10618407  1
  O2-  O212  1  -0.00651384  -0.15139176  0.12283503  1
  O2-  O213  1  0.02136785  0.13390081  0.60484649  1
  O2-  O214  1  -0.00786419  0.14533708  0.83633477  1
  O2-  O215  1  -0.01742097  0.38003701  -0.11637370  1
  O2-  O216  1  0.00390596  0.40203143  0.10487255  1
  O2-  O217  1  0.01601767  0.59726457  0.61127210  1
  O2-  O218  1  -0.00160161  0.41201119  0.65890052  1
  O2-  O219  1  0.22763298  0.17022225  0.12421697  1
  O2-  O220  1  0.24000083  -0.12255817  0.26019836  1
  O2-  O221  1  0.26766808  -0.15131878  0.44302468  1
  O2-  O222  1  0.25200974  -0.14948452  0.63142662  1
  O2-  O223  1  0.25007194  0.35286122  0.17621522  1
  O2-  O224  1  0.28256854  0.52125783  0.34631465  1
  O2-  O225  1  0.23941963  0.35436365  0.39614976  1
  O2-  O226  1  0.26227714  0.65196325  0.63742631  1
  O2-  O227  1  0.50041205  0.15994218  -0.06508823  1
  O2-  O228  1  0.52050832  0.00267115  0.08666371  1
  O2-  O229  1  0.51770118  0.05267250  0.63369394  1
  O2-  O230  1  0.48130908  0.13053572  0.78115634  1
  O2-  O231  1  0.50667040  0.36904900  -0.08146155  1
  O2-  O232  1  0.50166954  0.36275877  0.16863339  1
  O2-  O233  1  0.52225441  0.38064527  0.57874151  1
  O2-  O234  1  0.48653163  0.39102059  0.75592404  1
  O2-  O235  1  0.74344461  0.13897271  0.12560764  1
  O2-  O236  1  0.75975543  0.05252558  0.28665055  1
  O2-  O237  1  0.75331607  0.05901807  0.44346185  1
  O2-  O238  1  0.84007864  0.14052224  0.73799975  1
  O2-  O239  1  0.69354559  0.52639149  0.12867299  1
  O2-  O240  1  0.80091851  0.49935518  0.29350183  1
  O2-  O241  1  0.74161254  0.58525867  0.43007917  1
  O2-  O242  1  0.72441309  0.38995923  0.88188628  1
