# generated using pymatgen
data_Gd19Ta56(WO20)8
_symmetry_space_group_name_H-M   'P 1'
_cell_length_a   15.49568504
_cell_length_b   15.40550299
_cell_length_c   15.28297083
_cell_angle_alpha   89.90750373
_cell_angle_beta   90.48153127
_cell_angle_gamma   89.98904411
_symmetry_Int_Tables_number   1
_chemical_formula_structural   Gd19Ta56(WO20)8
_chemical_formula_sum   'Gd19 Ta56 W8 O160'
_cell_volume   3648.19912188
_cell_formula_units_Z   1
loop_
 _symmetry_equiv_pos_site_id
 _symmetry_equiv_pos_as_xyz
  1  'x, y, z'
loop_
 _atom_type_symbol
 _atom_type_oxidation_number
  Gd3+  3.0
  Ta5+  5.0
  W6+  6.0
  O2-  -2.0
loop_
 _atom_site_type_symbol
 _atom_site_label
 _atom_site_symmetry_multiplicity
 _atom_site_fract_x
 _atom_site_fract_y
 _atom_site_fract_z
 _atom_site_occupancy
  Gd3+  Gd0  1  0.73745325  0.77948399  0.24884764  1
  Gd3+  Gd1  1  0.79366905  0.26018869  0.03570990  1
  Gd3+  Gd2  1  0.23500649  0.74303209  -0.01353808  1
  Gd3+  Gd3  1  -0.01583061  0.76261852  0.51998100  1
  Gd3+  Gd4  1  0.48715956  0.77278781  0.00841747  1
  Gd3+  Gd5  1  0.24324568  0.75344334  0.50110147  1
  Gd3+  Gd6  1  0.74711794  0.77400860  -0.02593000  1
  Gd3+  Gd7  1  0.77159024  0.26525323  0.48114702  1
  Gd3+  Gd8  1  0.51196643  0.26527911  0.47981788  1
  Gd3+  Gd9  1  0.24020819  0.24803721  0.01133881  1
  Gd3+  Gd10  1  0.27610097  0.22803912  0.52370185  1
  Gd3+  Gd11  1  0.53475510  0.24542494  0.01304150  1
  Gd3+  Gd12  1  0.26685973  0.23476960  0.24623884  1
  Gd3+  Gd13  1  0.25076898  0.22429970  0.75777779  1
  Gd3+  Gd14  1  0.48555963  0.74127009  0.54734421  1
  Gd3+  Gd15  1  0.23113106  0.73916058  0.24325599  1
  Gd3+  Gd16  1  -0.01027601  0.25595050  0.22676457  1
  Gd3+  Gd17  1  0.49648160  0.24288725  0.75792541  1
  Gd3+  Gd18  1  0.74188448  0.77755199  0.51628583  1
  Ta5+  Ta19  1  0.10117156  0.60848191  0.11468254  1
  Ta5+  Ta20  1  0.90213014  0.11592322  0.36851393  1
  Ta5+  Ta21  1  0.33292101  0.61349483  0.64247821  1
  Ta5+  Ta22  1  0.87412128  0.67364819  0.12101978  1
  Ta5+  Ta23  1  0.63277319  0.12900366  0.18518948  1
  Ta5+  Ta24  1  0.39564184  0.11287321  0.11539635  1
  Ta5+  Ta25  1  0.64124420  0.39185003  0.87039936  1
  Ta5+  Ta26  1  0.39922382  0.39217416  0.63111796  1
  Ta5+  Ta27  1  0.13966897  0.10893369  0.37306528  1
  Ta5+  Ta28  1  0.60806998  0.40985785  0.62827881  1
  Ta5+  Ta29  1  0.07648129  0.35236465  0.61193833  1
  Ta5+  Ta30  1  0.37281235  0.38922405  0.87911652  1
  Ta5+  Ta31  1  0.63631677  0.62424604  0.63369122  1
  Ta5+  Ta32  1  0.87662876  0.88981379  0.36898829  1
  Ta5+  Ta33  1  0.57123857  0.86605045  0.37924735  1
  Ta5+  Ta34  1  0.88570434  0.63487134  0.36977025  1
  Ta5+  Ta35  1  0.61434807  0.63228196  0.37487841  1
  Ta5+  Ta36  1  0.08144293  0.86245713  0.87548140  1
  Ta5+  Ta37  1  0.11977204  0.87437370  0.36668624  1
  Ta5+  Ta38  1  0.58815698  0.89741297  0.13162385  1
  Ta5+  Ta39  1  0.34496894  0.87642467  0.12770082  1
  Ta5+  Ta40  1  0.88909618  0.39100642  0.87155037  1
  Ta5+  Ta41  1  0.62635518  0.39244409  0.37314927  1
  Ta5+  Ta42  1  0.08300023  0.86328201  0.11411350  1
  Ta5+  Ta43  1  0.41182800  0.62686451  0.87549595  1
  Ta5+  Ta44  1  0.13826611  0.41415161  0.12180930  1
  Ta5+  Ta45  1  0.12464551  0.37344911  0.86172373  1
  Ta5+  Ta46  1  0.39344645  0.10707583  0.37203003  1
  Ta5+  Ta47  1  0.90117509  0.15598726  0.62517347  1
  Ta5+  Ta48  1  0.40341910  0.85521902  0.37154067  1
  Ta5+  Ta49  1  0.38383977  0.62089515  0.13007344  1
  Ta5+  Ta50  1  0.12349367  0.10775750  0.88580087  1
  Ta5+  Ta51  1  0.57927394  0.64013685  0.87313049  1
  Ta5+  Ta52  1  0.11462899  0.12461202  0.62648469  1
  Ta5+  Ta53  1  0.12892069  0.87427938  0.63249208  1
  Ta5+  Ta54  1  0.85409540  0.61676619  0.61383666  1
  Ta5+  Ta55  1  0.37611151  0.62223365  0.37707720  1
  Ta5+  Ta56  1  0.63961099  0.39388411  0.12600722  1
  Ta5+  Ta57  1  0.66821190  0.09531320  0.62571892  1
  Ta5+  Ta58  1  0.88576959  0.12338764  0.86641889  1
  Ta5+  Ta59  1  0.91300867  0.87678298  0.85802631  1
  Ta5+  Ta60  1  0.36952634  0.84588143  0.84263746  1
  Ta5+  Ta61  1  0.13760933  0.36562037  0.37408677  1
  Ta5+  Ta62  1  0.36538972  0.04767157  0.87109657  1
  Ta5+  Ta63  1  0.91596105  0.87473444  0.11229008  1
  Ta5+  Ta64  1  0.62765934  0.11133176  0.38073172  1
  Ta5+  Ta65  1  0.90566763  0.37569793  0.62041527  1
  Ta5+  Ta66  1  0.35505297  0.37374709  0.37428941  1
  Ta5+  Ta67  1  0.62581111  0.64225564  0.11438333  1
  Ta5+  Ta68  1  0.66149714  0.13791588  0.86506806  1
  Ta5+  Ta69  1  0.09971948  0.61664865  0.85598339  1
  Ta5+  Ta70  1  0.92492929  0.07688268  0.11219398  1
  Ta5+  Ta71  1  0.86016166  0.94358811  0.61785886  1
  Ta5+  Ta72  1  0.31525173  0.01589279  0.59266220  1
  Ta5+  Ta73  1  0.15611719  0.04731654  0.12196362  1
  Ta5+  Ta74  1  0.10914351  0.61287377  0.37544910  1
  W6+  W75  1  0.61296890  0.88175880  0.64316933  1
  W6+  W76  1  0.88828009  0.44606457  0.11452790  1
  W6+  W77  1  0.11501917  0.60389506  0.62208018  1
  W6+  W78  1  0.37993703  0.36848708  0.12357668  1
  W6+  W79  1  0.35364019  0.85177558  0.66940991  1
  W6+  W80  1  0.87664255  0.64508121  0.86222092  1
  W6+  W81  1  0.88886800  0.38444951  0.35784834  1
  W6+  W82  1  0.58387038  0.90835547  0.86783985  1
  O2-  O83  1  0.21853374  -0.05924826  0.11687504  1
  O2-  O84  1  0.16791230  -0.01316360  0.38444697  1
  O2-  O85  1  0.10774792  0.00336018  0.61918198  1
  O2-  O86  1  0.09103785  -0.00724060  0.88693715  1
  O2-  O87  1  0.20041395  0.51934212  0.11988939  1
  O2-  O88  1  0.10843870  0.48606728  0.37702849  1
  O2-  O89  1  0.10237224  0.46778076  0.60704867  1
  O2-  O90  1  0.14462626  0.49607094  0.85965138  1
  O2-  O91  1  0.38626994  -0.00689384  0.13580871  1
  O2-  O92  1  0.39658683  -0.01364287  0.36767192  1
  O2-  O93  1  0.40541234  -0.01217929  0.66238159  1
  O2-  O94  1  0.45020424  -0.04725449  0.87503333  1
  O2-  O95  1  0.39052542  0.50309523  0.13097129  1
  O2-  O96  1  0.36215878  0.49634485  0.38174408  1
  O2-  O97  1  0.31922229  0.48329244  0.62625999  1
  O2-  O98  1  0.41723758  0.50087317  0.89449814  1
  O2-  O99  1  0.64176214  0.01029195  0.14519787  1
  O2-  O100  1  0.60516535  -0.00669239  0.38328098  1
  O2-  O101  1  0.58704215  0.01394423  0.60979058  1
  O2-  O102  1  0.58638438  0.04856239  0.87343405  1
  O2-  O103  1  0.62579035  0.51321150  0.11621158  1
  O2-  O104  1  0.65555921  0.51320276  0.38535554  1
  O2-  O105  1  0.50374329  0.47055617  0.61582888  1
  O2-  O106  1  0.60812992  0.50598260  0.87694013  1
  O2-  O107  1  0.84039196  -0.00500726  0.11632983  1
  O2-  O108  1  0.83904746  0.00927682  0.38103717  1
  O2-  O109  1  0.94204609  0.03882709  0.60478626  1
  O2-  O110  1  0.90868110  -0.00179916  0.85030035  1
  O2-  O111  1  0.83001330  0.55790856  0.12948456  1
  O2-  O112  1  0.87297114  0.51900937  0.35385983  1
  O2-  O113  1  0.88520575  0.49583345  0.61549566  1
  O2-  O114  1  0.89542041  0.50970243  0.87339258  1
  O2-  O115  1  0.26177787  0.13130810  0.12202381  1
  O2-  O116  1  0.12722296  0.23551612  0.33293351  1
  O2-  O117  1  0.17247681  0.25131328  0.62836430  1
  O2-  O118  1  0.15508724  0.24664788  0.88403825  1
  O2-  O119  1  0.14144278  0.73342696  0.11437026  1
  O2-  O120  1  0.15486170  0.74988215  0.37447724  1
  O2-  O121  1  0.10219263  0.74885198  0.62004444  1
  O2-  O122  1  0.12948483  0.73789104  0.86678469  1
  O2-  O123  1  0.38585673  0.23636087  0.07749660  1
  O2-  O124  1  0.38217202  0.24202769  0.40535177  1
  O2-  O125  1  0.34724952  0.27564771  0.65058082  1
  O2-  O126  1  0.32436083  0.37825241  0.99229147  1
  O2-  O127  1  0.31774145  0.74021283  0.12097114  1
  O2-  O128  1  0.32515872  0.73833769  0.37488580  1
  O2-  O129  1  0.28939180  0.72937654  0.64557025  1
  O2-  O130  1  0.32404502  0.73034949  0.86382785  1
  O2-  O131  1  0.66375200  0.23723065  0.13525730  1
  O2-  O132  1  0.64304195  0.26187070  0.39062819  1
  O2-  O133  1  0.52203628  0.30031571  0.62092807  1
  O2-  O134  1  0.60208492  0.25303406  0.86515138  1
  O2-  O135  1  0.63588107  0.77523573  0.10792800  1
  O2-  O136  1  0.65758719  0.75146469  0.38783361  1
  O2-  O137  1  0.64576752  0.74958599  0.63294432  1
  O2-  O138  1  0.58713648  0.76879931  0.88994462  1
  O2-  O139  1  0.89904685  0.20351862  0.11970752  1
  O2-  O140  1  0.89281835  0.23972425  0.34115225  1
  O2-  O141  1  0.82452068  0.25842954  0.62303446  1
  O2-  O142  1  0.85599241  0.24349725  0.89757337  1
  O2-  O143  1  0.80685450  0.78748639  0.11294405  1
  O2-  O144  1  0.84438661  0.76786281  0.40290690  1
  O2-  O145  1  0.86334463  0.74711675  0.59834933  1
  O2-  O146  1  0.83151816  0.77476451  0.85305741  1
  O2-  O147  1  0.12721801  0.12066202  0.01719397  1
  O2-  O148  1  0.13402014  0.08634400  0.23798591  1
  O2-  O149  1  0.15549623  0.13746717  0.49903964  1
  O2-  O150  1  0.11726746  0.13159470  0.75485191  1
  O2-  O151  1  0.09825381  0.61486857  -0.00963341  1
  O2-  O152  1  0.13849284  0.61659127  0.25234883  1
  O2-  O153  1  0.16935390  0.62184632  0.48690216  1
  O2-  O154  1  0.05283757  0.61301827  0.74507396  1
  O2-  O155  1  0.38982293  0.08695069  -0.01390566  1
  O2-  O156  1  0.38716210  0.13655088  0.24681428  1
  O2-  O157  1  0.35488100  0.09670764  0.50566470  1
  O2-  O158  1  0.25070130  0.10576107  0.64989102  1
  O2-  O159  1  0.38113205  0.64398406  0.00231791  1
  O2-  O160  1  0.33892653  0.62714208  0.25109115  1
  O2-  O161  1  0.36792067  0.63655255  0.51312960  1
  O2-  O162  1  0.38969598  0.60862639  0.74799760  1
  O2-  O163  1  0.68908237  0.16217900  -0.01789400  1
  O2-  O164  1  0.55672678  0.15203914  0.27912884  1
  O2-  O165  1  0.66985766  0.14365075  0.50840289  1
  O2-  O166  1  0.62861593  0.15940879  0.72345565  1
  O2-  O167  1  0.65537192  0.64624280  -0.00969956  1
  O2-  O168  1  0.64715833  0.65116024  0.24670831  1
  O2-  O169  1  0.58162873  0.62926132  0.51003878  1
  O2-  O170  1  0.58730010  0.62987470  0.74657791  1
  O2-  O171  1  0.92653883  0.10013807  -0.01450957  1
  O2-  O172  1  0.93464422  0.09671006  0.24535399  1
  O2-  O173  1  0.86590403  0.15211098  0.49084469  1
  O2-  O174  1  0.92292772  0.15402261  0.74977390  1
  O2-  O175  1  0.85816036  0.67380282  -0.00572790  1
  O2-  O176  1  0.84978358  0.68028381  0.25408680  1
  O2-  O177  1  0.92050913  0.62606233  0.49718507  1
  O2-  O178  1  0.84475287  0.62598941  0.73369107  1
  O2-  O179  1  0.13971737  0.36746860  0.00542241  1
  O2-  O180  1  0.09534652  0.36601341  0.23242152  1
  O2-  O181  1  0.08096231  0.33291957  0.48025259  1
  O2-  O182  1  0.09987095  0.34831174  0.74322935  1
  O2-  O183  1  0.13103424  0.85525658  -0.00623486  1
  O2-  O184  1  0.12312257  0.86314976  0.24042220  1
  O2-  O185  1  0.10736379  0.85842404  0.49741350  1
  O2-  O186  1  0.11882490  0.87445620  0.75315185  1
  O2-  O187  1  0.52139167  0.35241932  0.11245831  1
  O2-  O188  1  0.39224331  0.33173628  0.26143573  1
  O2-  O189  1  0.39976096  0.36521615  0.50764145  1
  O2-  O190  1  0.44573515  0.29129902  0.90145377  1
  O2-  O191  1  0.35152158  0.84864584  -0.00606597  1
  O2-  O192  1  0.33237532  0.85801835  0.25248720  1
  O2-  O193  1  0.38318220  0.83382617  0.49540313  1
  O2-  O194  1  0.45254968  0.81328945  0.75868616  1
  O2-  O195  1  0.63829112  0.35604597  -0.00603524  1
  O2-  O196  1  0.64094919  0.38574511  0.25243066  1
  O2-  O197  1  0.64936837  0.37463721  0.51353790  1
  O2-  O198  1  0.62063544  0.36355375  0.74530180  1
  O2-  O199  1  0.56606092  0.90308564  0.00544453  1
  O2-  O200  1  0.61154621  0.86502902  0.25534851  1
  O2-  O201  1  0.57787968  0.84946514  0.50803934  1
  O2-  O202  1  0.65861343  0.90726828  0.76697815  1
  O2-  O203  1  0.88199547  0.37662727  0.00450240  1
  O2-  O204  1  0.91504968  0.37723012  0.22004077  1
  O2-  O205  1  0.87719479  0.36265014  0.49475936  1
  O2-  O206  1  0.89744014  0.36478365  0.74916446  1
  O2-  O207  1  0.89921537  0.87001225  -0.01481467  1
  O2-  O208  1  0.86626715  0.87514317  0.24646466  1
  O2-  O209  1  0.90405646  0.89335661  0.51107098  1
  O2-  O210  1  0.89225923  0.88907470  0.71883077  1
  O2-  O211  1  0.02715675  -0.00723764  0.11203142  1
  O2-  O212  1  -0.00190297  -0.11753152  0.36417602  1
  O2-  O213  1  0.01677500  0.09451825  0.40160685  1
  O2-  O214  1  0.01437663  0.20688794  0.60503537  1
  O2-  O215  1  0.03294146  0.48569923  0.11014572  1
  O2-  O216  1  -0.00935684  0.65220993  0.14556199  1
  O2-  O217  1  0.00546757  0.68319471  0.36705029  1
  O2-  O218  1  0.00932393  0.36547225  0.89187305  1
  O2-  O219  1  0.25038986  0.11380220  -0.11978943  1
  O2-  O220  1  0.26557522  0.13288445  0.36263692  1
  O2-  O221  1  0.24631217  -0.09106946  0.58639070  1
  O2-  O222  1  0.29206997  -0.04783793  0.83765179  1
  O2-  O223  1  0.23982407  0.32768179  0.13572338  1
  O2-  O224  1  0.24648513  0.37740251  0.30186471  1
  O2-  O225  1  0.24497445  0.34977063  0.45158883  1
  O2-  O226  1  0.26383494  0.36166070  0.82312534  1
  O2-  O227  1  0.52055841  0.13014087  0.11068062  1
  O2-  O228  1  0.47077386  -0.15590621  0.13874732  1
  O2-  O229  1  0.50610736  0.12725454  0.43366388  1
  O2-  O230  1  0.39538110  0.13898873  0.79177687  1
  O2-  O231  1  0.50147426  0.65946955  0.13173046  1
  O2-  O232  1  0.49467490  0.62671044  0.35028897  1
  O2-  O233  1  0.50749802  0.38407229  0.38375848  1
  O2-  O234  1  0.43176983  0.37921169  0.75639368  1
  O2-  O235  1  0.77028463  0.09682834  -0.17137021  1
  O2-  O236  1  0.71432130  0.11737400  0.28727193  1
  O2-  O237  1  0.74383868  -0.09146434  0.58779173  1
  O2-  O238  1  0.78741029  0.06514489  0.64188070  1
  O2-  O239  1  0.75836038  0.39168637  -0.13396491  1
  O2-  O240  1  0.76249019  0.38231907  0.11705596  1
  O2-  O241  1  0.74534407  0.62777270  0.55153357  1
  O2-  O242  1  0.68253847  0.50366934  0.64982839  1
