# generated using pymatgen
data_Gd19Ta56(WO20)8
_symmetry_space_group_name_H-M   'P 1'
_cell_length_a   15.49785420
_cell_length_b   15.55602413
_cell_length_c   15.31066910
_cell_angle_alpha   89.95219444
_cell_angle_beta   89.91658966
_cell_angle_gamma   89.91000815
_symmetry_Int_Tables_number   1
_chemical_formula_structural   Gd19Ta56(WO20)8
_chemical_formula_sum   'Gd19 Ta56 W8 O160'
_cell_volume   3691.16282401
_cell_formula_units_Z   1
loop_
 _symmetry_equiv_pos_site_id
 _symmetry_equiv_pos_as_xyz
  1  'x, y, z'
loop_
 _atom_type_symbol
 _atom_type_oxidation_number
  Gd3+  3.0
  Ta5+  5.0
  W6+  6.0
  O2-  -2.0
loop_
 _atom_site_type_symbol
 _atom_site_label
 _atom_site_symmetry_multiplicity
 _atom_site_fract_x
 _atom_site_fract_y
 _atom_site_fract_z
 _atom_site_occupancy
  Gd3+  Gd0  1  0.24073757  0.24682775  0.21553077  1
  Gd3+  Gd1  1  0.00169619  0.75616423  -0.01739158  1
  Gd3+  Gd2  1  0.49097804  0.24256240  0.74862423  1
  Gd3+  Gd3  1  0.01518903  0.75138275  0.47760562  1
  Gd3+  Gd4  1  0.26506907  0.75090780  0.47751459  1
  Gd3+  Gd5  1  0.47838254  0.77609152  0.01670716  1
  Gd3+  Gd6  1  0.72147136  0.76746074  0.01233151  1
  Gd3+  Gd7  1  -0.01372907  0.74791871  0.74333534  1
  Gd3+  Gd8  1  0.49503721  0.78653025  0.75917058  1
  Gd3+  Gd9  1  0.48787651  0.24855544  0.26807057  1
  Gd3+  Gd10  1  0.75473639  0.74845500  0.25283842  1
  Gd3+  Gd11  1  0.74974496  0.75544412  0.50206162  1
  Gd3+  Gd12  1  0.48406781  0.23818766  0.01228323  1
  Gd3+  Gd13  1  0.01412687  0.24334899  0.25609739  1
  Gd3+  Gd14  1  0.23400083  0.74356976  -0.00757055  1
  Gd3+  Gd15  1  0.01731828  0.23480125  0.75423511  1
  Gd3+  Gd16  1  0.72988650  0.75834946  0.75485681  1
  Gd3+  Gd17  1  0.76959451  0.25283838  0.74649352  1
  Gd3+  Gd18  1  0.24947201  0.74654736  0.75035162  1
  Ta5+  Ta19  1  0.88844450  0.61455675  0.38439866  1
  Ta5+  Ta20  1  0.13521591  0.36543703  0.86926047  1
  Ta5+  Ta21  1  0.39444364  0.61973122  0.61253010  1
  Ta5+  Ta22  1  0.87190048  0.37497300  0.61126531  1
  Ta5+  Ta23  1  0.11948585  0.88485018  0.86064150  1
  Ta5+  Ta24  1  0.62680563  0.12745772  0.62235283  1
  Ta5+  Ta25  1  0.62481811  0.36533115  0.39249901  1
  Ta5+  Ta26  1  0.13500782  0.61824730  0.35742571  1
  Ta5+  Ta27  1  0.17427310  0.12083530  0.36480252  1
  Ta5+  Ta28  1  0.13615760  0.13066027  0.60857314  1
  Ta5+  Ta29  1  0.36771228  0.63321711  0.13450706  1
  Ta5+  Ta30  1  0.36556127  0.38601784  0.12939124  1
  Ta5+  Ta31  1  0.35553132  0.91604708  0.88334581  1
  Ta5+  Ta32  1  0.40989535  0.88258606  0.37000118  1
  Ta5+  Ta33  1  0.37494395  0.37283615  0.87590823  1
  Ta5+  Ta34  1  0.13373050  0.88065393  0.36177696  1
  Ta5+  Ta35  1  0.63793552  0.60574310  0.37890670  1
  Ta5+  Ta36  1  0.86889263  0.12509956  0.61202930  1
  Ta5+  Ta37  1  0.63340953  0.13053416  0.14524846  1
  Ta5+  Ta38  1  0.88054393  0.38117476  0.14279961  1
  Ta5+  Ta39  1  0.11632933  0.61173779  0.86557022  1
  Ta5+  Ta40  1  0.11908559  0.11360047  0.10916669  1
  Ta5+  Ta41  1  0.63949756  0.13730437  0.88779401  1
  Ta5+  Ta42  1  0.09597634  0.60890492  0.61324787  1
  Ta5+  Ta43  1  0.87979909  0.37992922  0.88796483  1
  Ta5+  Ta44  1  0.16836398  0.37457013  0.36359514  1
  Ta5+  Ta45  1  0.33600248  0.37637160  0.36068567  1
  Ta5+  Ta46  1  0.17712500  0.11350317  0.86596423  1
  Ta5+  Ta47  1  0.86429842  0.61760271  0.88081210  1
  Ta5+  Ta48  1  0.89037515  0.88749711  0.61962861  1
  Ta5+  Ta49  1  0.88347745  0.61504462  0.62066016  1
  Ta5+  Ta50  1  0.90941531  0.62695026  0.13514345  1
  Ta5+  Ta51  1  0.62015029  0.61671957  0.88165325  1
  Ta5+  Ta52  1  0.10077443  0.88832058  0.61499702  1
  Ta5+  Ta53  1  0.39690174  0.61659379  0.37647693  1
  Ta5+  Ta54  1  0.30751166  0.87339032  0.14384222  1
  Ta5+  Ta55  1  0.34628123  0.11761168  0.86665758  1
  Ta5+  Ta56  1  0.84837301  0.13398102  0.37978434  1
  Ta5+  Ta57  1  0.11539974  0.38310712  0.11729739  1
  Ta5+  Ta58  1  0.14029725  0.88015148  0.11851413  1
  Ta5+  Ta59  1  0.07758100  0.62721970  0.12649365  1
  Ta5+  Ta60  1  0.36356543  0.13212621  0.60803051  1
  Ta5+  Ta61  1  0.63193269  0.37546764  0.88548073  1
  Ta5+  Ta62  1  0.36805608  0.10385308  0.12527212  1
  Ta5+  Ta63  1  0.36315014  0.37486333  0.61179466  1
  Ta5+  Ta64  1  0.86539805  0.88802641  0.87532212  1
  Ta5+  Ta65  1  0.60115111  0.61652273  0.62159423  1
  Ta5+  Ta66  1  0.13344367  0.36403839  0.61259953  1
  Ta5+  Ta67  1  0.89982210  0.37129586  0.39546607  1
  Ta5+  Ta68  1  0.67981253  0.12941933  0.37922094  1
  Ta5+  Ta69  1  0.62291642  0.37450927  0.62018403  1
  Ta5+  Ta70  1  0.34347017  0.11931199  0.36104646  1
  Ta5+  Ta71  1  0.88400809  0.88938550  0.37808979  1
  Ta5+  Ta72  1  0.63351016  0.37308732  0.14217895  1
  Ta5+  Ta73  1  0.88883557  0.87462097  0.13104678  1
  Ta5+  Ta74  1  0.37521631  0.61458034  0.87356665  1
  W6+  W75  1  0.88464533  0.12576911  0.13054203  1
  W6+  W76  1  0.35201952  0.88146262  0.61590591  1
  W6+  W77  1  0.59505064  0.88309858  0.16418550  1
  W6+  W78  1  0.90210647  0.13350903  0.88518302  1
  W6+  W79  1  0.61921218  0.61934077  0.14316923  1
  W6+  W80  1  0.61957255  0.88736937  0.37732721  1
  W6+  W81  1  0.61288533  0.88835263  0.88414264  1
  W6+  W82  1  0.56899479  0.90705327  0.58778211  1
  O2-  O83  1  0.09664645  -0.00356345  0.12655656  1
  O2-  O84  1  0.17448089  -0.00772436  0.36304997  1
  O2-  O85  1  0.12868531  0.00514096  0.61543142  1
  O2-  O86  1  0.11545519  0.00083292  0.83883835  1
  O2-  O87  1  0.08929643  0.50015511  0.12392318  1
  O2-  O88  1  0.15772459  0.50111616  0.36400523  1
  O2-  O89  1  0.11291488  0.48793560  0.61809172  1
  O2-  O90  1  0.11142206  0.49393011  0.85168885  1
  O2-  O91  1  0.36563244  -0.01525456  0.12362742  1
  O2-  O92  1  0.38134390  0.00008439  0.36566581  1
  O2-  O93  1  0.35866173  0.01459976  0.61691308  1
  O2-  O94  1  0.42134581  0.01149496  0.84721693  1
  O2-  O95  1  0.36288766  0.51380676  0.10918417  1
  O2-  O96  1  0.36196409  0.50109936  0.37244763  1
  O2-  O97  1  0.37121618  0.50099677  0.63368775  1
  O2-  O98  1  0.39615538  0.49971880  0.88486684  1
  O2-  O99  1  0.59202349  0.01999501  0.14753467  1
  O2-  O100  1  0.64749138  0.01459181  0.36755777  1
  O2-  O101  1  0.55753751  0.02945244  0.63386519  1
  O2-  O102  1  0.62300015  0.02337466  0.88931856  1
  O2-  O103  1  0.59431911  0.48401528  0.13657585  1
  O2-  O104  1  0.66170309  0.48654984  0.38390297  1
  O2-  O105  1  0.62001382  0.49636950  0.64491682  1
  O2-  O106  1  0.59155151  0.49066615  0.88259355  1
  O2-  O107  1  0.87285496  -0.00973014  0.13672383  1
  O2-  O108  1  0.85786007  0.00298462  0.36049894  1
  O2-  O109  1  0.85930100  0.00102510  0.64143471  1
  O2-  O110  1  0.88066613  0.00267649  0.86044297  1
  O2-  O111  1  0.90045118  0.50133469  0.14654482  1
  O2-  O112  1  0.86838879  0.49563560  0.38577053  1
  O2-  O113  1  0.84866200  0.50030065  0.63189679  1
  O2-  O114  1  0.90083152  0.49662578  0.85805861  1
  O2-  O115  1  0.11249436  0.24788408  0.12426748  1
  O2-  O116  1  0.15064125  0.24740414  0.34891896  1
  O2-  O117  1  0.07518721  0.25065171  0.61370193  1
  O2-  O118  1  0.14439810  0.24302864  0.86542901  1
  O2-  O119  1  0.11213784  0.75147247  0.09108468  1
  O2-  O120  1  0.14048303  0.74873786  0.38340182  1
  O2-  O121  1  0.07812732  0.74597887  0.61739219  1
  O2-  O122  1  0.12152153  0.74587596  0.86800213  1
  O2-  O123  1  0.37685152  0.25152542  0.13311339  1
  O2-  O124  1  0.34830248  0.24912350  0.33579839  1
  O2-  O125  1  0.41333096  0.26128033  0.61988387  1
  O2-  O126  1  0.38409733  0.24921572  0.88081279  1
  O2-  O127  1  0.29868305  0.73914283  0.13069503  1
  O2-  O128  1  0.38830194  0.74444017  0.38775658  1
  O2-  O129  1  0.31963155  0.73368544  0.61745084  1
  O2-  O130  1  0.49264758  0.65998692  0.87132571  1
  O2-  O131  1  0.56753513  0.25740864  0.13629026  1
  O2-  O132  1  0.67610967  0.26002295  0.40444317  1
  O2-  O133  1  0.58825213  0.24885728  0.62398470  1
  O2-  O134  1  0.56610656  0.26433106  0.88668235  1
  O2-  O135  1  0.65339859  0.75155176  0.14736643  1
  O2-  O136  1  0.66500737  0.73570214  0.38049940  1
  O2-  O137  1  0.67845112  0.71652527  0.62574599  1
  O2-  O138  1  0.64400724  0.74785749  0.87596065  1
  O2-  O139  1  0.92286035  0.26345649  0.13356357  1
  O2-  O140  1  0.85812506  0.25994361  0.40760672  1
  O2-  O141  1  0.87178491  0.25105465  0.60330448  1
  O2-  O142  1  0.94022411  0.27248604  0.88217676  1
  O2-  O143  1  0.83914154  0.74904464  0.11559759  1
  O2-  O144  1  0.88173220  0.75019163  0.40368653  1
  O2-  O145  1  0.89046415  0.75184282  0.61170963  1
  O2-  O146  1  0.84391900  0.74491298  0.89019209  1
  O2-  O147  1  0.13583611  0.11413002  -0.01504422  1
  O2-  O148  1  0.11542651  0.12510588  0.24417094  1
  O2-  O149  1  0.13352310  0.12839403  0.48417703  1
  O2-  O150  1  0.12384471  0.13581450  0.73973756  1
  O2-  O151  1  0.10503720  0.62064362  -0.00969749  1
  O2-  O152  1  0.14061105  0.63925614  0.23669040  1
  O2-  O153  1  0.15204180  0.63140564  0.50058968  1
  O2-  O154  1  0.15051644  0.63423071  0.73046087  1
  O2-  O155  1  0.39545199  0.12328576  -0.00150381  1
  O2-  O156  1  0.41699034  0.11958377  0.24127846  1
  O2-  O157  1  0.36757384  0.14339651  0.48423381  1
  O2-  O158  1  0.38140055  0.14599771  0.74281995  1
  O2-  O159  1  0.36694870  0.66774038  -0.00783358  1
  O2-  O160  1  0.36071787  0.62798313  0.25735761  1
  O2-  O161  1  0.34027527  0.62182030  0.49539013  1
  O2-  O162  1  0.35428365  0.63480251  0.75147765  1
  O2-  O163  1  0.61222880  0.15468239  0.01243376  1
  O2-  O164  1  0.61413653  0.16264470  0.26655544  1
  O2-  O165  1  0.65515339  0.12420445  0.50619884  1
  O2-  O166  1  0.61081364  0.15347664  0.76383044  1
  O2-  O167  1  0.61459415  0.64761605  0.00563871  1
  O2-  O168  1  0.68433869  0.61162195  0.26131768  1
  O2-  O169  1  0.65446262  0.61421836  0.50355033  1
  O2-  O170  1  0.63854061  0.62503493  0.75756881  1
  O2-  O171  1  0.92184311  0.12030067  0.01103315  1
  O2-  O172  1  0.89450651  0.15139072  0.26481449  1
  O2-  O173  1  0.90165874  0.10724298  0.49759737  1
  O2-  O174  1  0.89126014  0.15804497  0.74651876  1
  O2-  O175  1  0.89834474  0.62354516  0.00219285  1
  O2-  O176  1  0.86799250  0.64115319  0.26343575  1
  O2-  O177  1  0.82716161  0.62539480  0.50298643  1
  O2-  O178  1  0.84088866  0.64986321  0.74406789  1
  O2-  O179  1  0.09974422  0.37468188  -0.01373596  1
  O2-  O180  1  0.10444910  0.37068332  0.24491044  1
  O2-  O181  1  0.15231496  0.36270860  0.49374150  1
  O2-  O182  1  0.08808836  0.36171688  0.74803630  1
  O2-  O183  1  0.10951297  0.88083023  -0.01472870  1
  O2-  O184  1  0.14142233  0.85329177  0.24323150  1
  O2-  O185  1  0.15280263  0.86034252  0.50072285  1
  O2-  O186  1  0.15332098  0.85681114  0.72894694  1
  O2-  O187  1  0.41535090  0.37154331  0.00017860  1
  O2-  O188  1  0.41329810  0.38376072  0.24328636  1
  O2-  O189  1  0.34901381  0.37079981  0.49320773  1
  O2-  O190  1  0.41730658  0.37351847  0.75681524  1
  O2-  O191  1  0.34860841  0.85553775  0.00685693  1
  O2-  O192  1  0.33784859  0.86573398  0.26547786  1
  O2-  O193  1  0.33575236  0.87604803  0.47675143  1
  O2-  O194  1  0.36165370  0.85670702  0.76194602  1
  O2-  O195  1  0.63157670  0.35972569  0.00934417  1
  O2-  O196  1  0.60219537  0.35684839  0.26644926  1
  O2-  O197  1  0.56976559  0.38472610  0.50892113  1
  O2-  O198  1  0.62679418  0.35032281  0.75535903  1
  O2-  O199  1  0.60241980  0.85885928  0.02480387  1
  O2-  O200  1  0.68455594  0.87746847  0.26322552  1
  O2-  O201  1  0.66321418  0.87357785  0.50788490  1
  O2-  O202  1  0.61567562  0.86462687  0.73642974  1
  O2-  O203  1  0.87391563  0.38811247  0.00819352  1
  O2-  O204  1  0.91263520  0.36586885  0.26888722  1
  O2-  O205  1  0.94845390  0.39205720  0.51712701  1
  O2-  O206  1  0.87966295  0.35459763  0.74182596  1
  O2-  O207  1  0.90401165  0.86976118  0.00089029  1
  O2-  O208  1  0.87228034  0.84934438  0.25799496  1
  O2-  O209  1  0.83625442  0.88186997  0.50062838  1
  O2-  O210  1  0.84501239  0.85301184  0.74881237  1
  O2-  O211  1  -0.00652011  -0.15269691  -0.14088603  1
  O2-  O212  1  0.00753991  -0.12117643  0.37032952  1
  O2-  O213  1  -0.00728793  -0.11332445  0.53912619  1
  O2-  O214  1  -0.00415183  -0.11042510  0.69485726  1
  O2-  O215  1  -0.00754398  0.64936119  -0.14110090  1
  O2-  O216  1  0.01012012  0.62324945  0.36984406  1
  O2-  O217  1  -0.01442256  0.61564161  0.53610307  1
  O2-  O218  1  -0.00942836  0.60509018  0.69213793  1
  O2-  O219  1  0.27372813  0.01402593  -0.08814419  1
  O2-  O220  1  0.24660506  0.12484102  0.12073250  1
  O2-  O221  1  0.24799836  0.17428898  0.61760302  1
  O2-  O222  1  0.24335607  -0.15324945  0.87550687  1
  O2-  O223  1  0.25606365  0.38763902  -0.13578883  1
  O2-  O224  1  0.24293397  0.37613580  0.11435392  1
  O2-  O225  1  0.24907314  0.35875010  0.65631064  1
  O2-  O226  1  0.24599993  0.63298874  0.88152599  1
  O2-  O227  1  0.47362163  -0.14684832  -0.10821512  1
  O2-  O228  1  0.51826307  -0.12278528  0.29015550  1
  O2-  O229  1  0.51059752  -0.10310217  0.45651098  1
  O2-  O230  1  0.47653586  -0.17274419  0.61996290  1
  O2-  O231  1  0.48447559  0.66510642  0.12193624  1
  O2-  O232  1  0.51758025  0.60860983  0.36337947  1
  O2-  O233  1  0.49648166  0.59274037  0.54384538  1
  O2-  O234  1  0.49691407  0.66373618  0.68004335  1
  O2-  O235  1  0.75478129  0.17437172  -0.12630168  1
  O2-  O236  1  0.75068508  0.13609045  0.14352116  1
  O2-  O237  1  0.74568656  0.13596690  0.66013887  1
  O2-  O238  1  0.74849879  -0.11497663  0.91039966  1
  O2-  O239  1  0.75505881  0.36719291  -0.12876914  1
  O2-  O240  1  0.75438022  0.37287770  0.15166601  1
  O2-  O241  1  0.74175419  0.35828840  0.60982011  1
  O2-  O242  1  0.74470465  0.59084712  0.89636013  1
