# generated using pymatgen
data_Gd19Ta56(WO20)8
_symmetry_space_group_name_H-M   'P 1'
_cell_length_a   15.51989047
_cell_length_b   15.43784752
_cell_length_c   15.22496109
_cell_angle_alpha   89.87200886
_cell_angle_beta   90.10301930
_cell_angle_gamma   90.14268119
_symmetry_Int_Tables_number   1
_chemical_formula_structural   Gd19Ta56(WO20)8
_chemical_formula_sum   'Gd19 Ta56 W8 O160'
_cell_volume   3647.77852849
_cell_formula_units_Z   1
loop_
 _symmetry_equiv_pos_site_id
 _symmetry_equiv_pos_as_xyz
  1  'x, y, z'
loop_
 _atom_type_symbol
 _atom_type_oxidation_number
  Gd3+  3.0
  Ta5+  5.0
  W6+  6.0
  O2-  -2.0
loop_
 _atom_site_type_symbol
 _atom_site_label
 _atom_site_symmetry_multiplicity
 _atom_site_fract_x
 _atom_site_fract_y
 _atom_site_fract_z
 _atom_site_occupancy
  Gd3+  Gd0  1  0.51420897  0.75463644  0.74146547  1
  Gd3+  Gd1  1  0.01785640  0.76005379  0.25816286  1
  Gd3+  Gd2  1  0.21434341  0.74406198  0.50339619  1
  Gd3+  Gd3  1  0.00330264  0.74206095  -0.01367850  1
  Gd3+  Gd4  1  0.25817356  0.23891404  0.50177809  1
  Gd3+  Gd5  1  -0.00594692  0.23441773  0.25914965  1
  Gd3+  Gd6  1  0.51507652  0.75325679  0.23606456  1
  Gd3+  Gd7  1  0.47569391  0.76807257  -0.01032583  1
  Gd3+  Gd8  1  0.50128508  0.25897365  0.23604900  1
  Gd3+  Gd9  1  0.75818042  0.75455942  0.28209351  1
  Gd3+  Gd10  1  0.00219620  0.24106879  0.50906206  1
  Gd3+  Gd11  1  0.01672333  0.26752377  0.75943980  1
  Gd3+  Gd12  1  0.01594318  0.25321654  0.00391173  1
  Gd3+  Gd13  1  0.75173553  0.24991614  -0.00703647  1
  Gd3+  Gd14  1  0.77843566  0.76735249  0.01403410  1
  Gd3+  Gd15  1  0.27260808  0.74042991  0.74719677  1
  Gd3+  Gd16  1  0.49802074  0.26844492  0.48682827  1
  Gd3+  Gd17  1  0.24359939  0.73646839  0.26627364  1
  Gd3+  Gd18  1  0.47223483  0.71871977  0.51803896  1
  Ta5+  Ta19  1  0.87808649  0.12576159  0.86313565  1
  Ta5+  Ta20  1  0.17960659  0.13392729  0.88548344  1
  Ta5+  Ta21  1  0.10267849  0.58267623  0.62053195  1
  Ta5+  Ta22  1  0.34653596  0.61715771  0.11625177  1
  Ta5+  Ta23  1  0.15045422  0.37770793  0.62958349  1
  Ta5+  Ta24  1  0.63916376  0.62229379  0.10988811  1
  Ta5+  Ta25  1  0.12573887  0.60419000  0.12386330  1
  Ta5+  Ta26  1  0.89077013  0.40327756  0.62395469  1
  Ta5+  Ta27  1  0.61207126  0.62356526  0.86884854  1
  Ta5+  Ta28  1  0.14002340  0.11700261  0.13638255  1
  Ta5+  Ta29  1  0.09988280  0.59472605  0.38001561  1
  Ta5+  Ta30  1  0.34783604  0.12973932  0.88088290  1
  Ta5+  Ta31  1  0.88092442  0.62135532  0.14520514  1
  Ta5+  Ta32  1  0.61915427  0.89418878  0.86914170  1
  Ta5+  Ta33  1  0.66613016  0.12897363  0.13086867  1
  Ta5+  Ta34  1  0.16451215  0.88705954  0.85688743  1
  Ta5+  Ta35  1  0.91489724  0.87779282  0.84473579  1
  Ta5+  Ta36  1  0.59797941  0.61878102  0.38085214  1
  Ta5+  Ta37  1  0.83962513  0.13003601  0.12925865  1
  Ta5+  Ta38  1  0.87473355  0.37808649  0.12892208  1
  Ta5+  Ta39  1  0.84558430  0.11888460  0.39461608  1
  Ta5+  Ta40  1  0.87025999  0.37424036  0.38371547  1
  Ta5+  Ta41  1  0.07051656  0.89142243  0.66127668  1
  Ta5+  Ta42  1  0.85561273  0.38374849  0.87061252  1
  Ta5+  Ta43  1  0.34068227  0.35724610  0.89141721  1
  Ta5+  Ta44  1  0.37541047  0.12195909  0.36616969  1
  Ta5+  Ta45  1  0.68714785  0.38557227  0.85581268  1
  Ta5+  Ta46  1  0.63412732  0.38166500  0.11087384  1
  Ta5+  Ta47  1  0.16356547  0.35918589  0.35580675  1
  Ta5+  Ta48  1  0.33658116  0.89059493  0.86782813  1
  Ta5+  Ta49  1  0.39985776  0.12853319  0.63407247  1
  Ta5+  Ta50  1  0.57148668  0.88630960  0.38685616  1
  Ta5+  Ta51  1  0.38034143  0.88838211  0.61289104  1
  Ta5+  Ta52  1  0.11188856  0.89360079  0.09696309  1
  Ta5+  Ta53  1  0.88296726  0.89624894  0.16691033  1
  Ta5+  Ta54  1  0.17276995  0.36263666  0.89166567  1
  Ta5+  Ta55  1  0.12444873  0.59893160  0.86998530  1
  Ta5+  Ta56  1  0.63463767  0.38281236  0.36540140  1
  Ta5+  Ta57  1  0.89258141  0.89012794  0.38356618  1
  Ta5+  Ta58  1  0.62096626  0.13999821  0.86759767  1
  Ta5+  Ta59  1  0.64932000  0.11997652  0.38348094  1
  Ta5+  Ta60  1  0.65136239  0.39560688  0.61522299  1
  Ta5+  Ta61  1  0.31809198  0.56975019  0.62919603  1
  Ta5+  Ta62  1  0.37692390  0.36606396  0.64094142  1
  Ta5+  Ta63  1  0.15884302  0.36164455  0.14481785  1
  Ta5+  Ta64  1  0.13114919  0.10415028  0.37906734  1
  Ta5+  Ta65  1  0.89738516  0.61354892  0.39050236  1
  Ta5+  Ta66  1  0.37176474  0.11497595  0.13461333  1
  Ta5+  Ta67  1  0.61701929  0.89402417  0.61872009  1
  Ta5+  Ta68  1  0.32574636  0.36575528  0.13958103  1
  Ta5+  Ta69  1  0.40103270  0.59969886  0.87683810  1
  Ta5+  Ta70  1  0.60741736  0.14144633  0.62612243  1
  Ta5+  Ta71  1  0.33363947  0.36868011  0.35342375  1
  Ta5+  Ta72  1  0.87325864  0.12952873  0.65545769  1
  Ta5+  Ta73  1  0.34325349  0.88331798  0.12634769  1
  Ta5+  Ta74  1  0.14835849  0.12385139  0.64097090  1
  W6+  W75  1  0.39012393  0.60175734  0.36961308  1
  W6+  W76  1  0.68304677  0.64882487  0.61841261  1
  W6+  W77  1  0.82016659  0.88291752  0.62389968  1
  W6+  W78  1  0.87386889  0.66026338  0.62774295  1
  W6+  W79  1  0.66580704  0.94784664  0.04610247  1
  W6+  W80  1  0.02388605  0.93688475  0.48631574  1
  W6+  W81  1  0.87941724  0.62501377  0.86207165  1
  W6+  W82  1  0.36224121  0.87310670  0.38720107  1
  O2-  O83  1  0.07670141  0.00784456  0.11980790  1
  O2-  O84  1  0.11822113  -0.01227956  0.39735330  1
  O2-  O85  1  0.11185692  0.00840513  0.65861126  1
  O2-  O86  1  0.16042519  0.00701337  0.86983988  1
  O2-  O87  1  0.13199056  0.48580756  0.12255449  1
  O2-  O88  1  0.14230589  0.48304359  0.36151185  1
  O2-  O89  1  0.05494100  0.46341800  0.61503006  1
  O2-  O90  1  0.17994064  0.49404793  0.90045407  1
  O2-  O91  1  0.40551494  -0.01454933  0.13482737  1
  O2-  O92  1  0.37252686  0.00676162  0.38788268  1
  O2-  O93  1  0.38638743  0.01043243  0.59910198  1
  O2-  O94  1  0.37269924  0.00372242  0.88203723  1
  O2-  O95  1  0.33483395  0.49989881  0.11354662  1
  O2-  O96  1  0.33785735  0.48598178  0.38319276  1
  O2-  O97  1  0.41019567  0.48711673  0.62091573  1
  O2-  O98  1  0.38285320  0.48468605  0.89727729  1
  O2-  O99  1  0.61924052  0.01878068  0.14767652  1
  O2-  O100  1  0.58357765  0.00762298  0.37511522  1
  O2-  O101  1  0.63218143  0.01545828  0.62588595  1
  O2-  O102  1  0.63652640  0.01804907  0.85424089  1
  O2-  O103  1  0.59584594  0.50967954  0.10717079  1
  O2-  O104  1  0.64298440  0.50483852  0.35200497  1
  O2-  O105  1  0.64340666  0.51517166  0.61714888  1
  O2-  O106  1  0.64633106  0.50875351  0.86554616  1
  O2-  O107  1  0.88507802  0.01198153  0.13281804  1
  O2-  O108  1  0.92625037  0.01523907  0.40236864  1
  O2-  O109  1  0.83950938  0.01627392  0.64304220  1
  O2-  O110  1  0.89656271  0.00560341  0.86443651  1
  O2-  O111  1  0.90992196  0.50272017  0.13339719  1
  O2-  O112  1  0.85489795  0.49627387  0.38901519  1
  O2-  O113  1  0.88373544  0.52013783  0.61420808  1
  O2-  O114  1  0.83588351  0.50084412  0.88708324  1
  O2-  O115  1  0.09483091  0.23475790  0.13880224  1
  O2-  O116  1  0.09584162  0.23662723  0.37572382  1
  O2-  O117  1  0.10066960  0.25390424  0.62934181  1
  O2-  O118  1  0.10415584  0.24852505  0.88547081  1
  O2-  O119  1  0.00951790  0.66070443  0.13587768  1
  O2-  O120  1  0.13379211  0.72423365  0.37586347  1
  O2-  O121  1  0.21435789  0.66415027  0.63493303  1
  O2-  O122  1  0.17447279  0.71426410  0.85703742  1
  O2-  O123  1  0.37069595  0.23800107  0.15368465  1
  O2-  O124  1  0.40812422  0.25359932  0.35498198  1
  O2-  O125  1  0.43748143  0.25727371  0.63269827  1
  O2-  O126  1  0.39060621  0.24611177  0.88417087  1
  O2-  O127  1  0.39444432  0.76044267  0.13458975  1
  O2-  O128  1  0.33785176  0.73478820  0.38740805  1
  O2-  O129  1  0.39273669  0.75617324  0.64249041  1
  O2-  O130  1  0.39092422  0.75679226  0.84710160  1
  O2-  O131  1  0.62053562  0.25654317  0.11748456  1
  O2-  O132  1  0.58600516  0.26075268  0.36782366  1
  O2-  O133  1  0.61977480  0.26478564  0.60213526  1
  O2-  O134  1  0.67526924  0.25340204  0.85970019  1
  O2-  O135  1  0.57083155  0.72626643  0.09997994  1
  O2-  O136  1  0.55368337  0.74377798  0.39218373  1
  O2-  O137  1  0.58441905  0.74909032  0.60898405  1
  O2-  O138  1  0.57606692  0.76662649  0.87924183  1
  O2-  O139  1  0.90515116  0.25135503  0.12751762  1
  O2-  O140  1  0.91118026  0.24678944  0.38806760  1
  O2-  O141  1  0.92085873  0.26395783  0.63685172  1
  O2-  O142  1  0.91918698  0.25536514  0.87614593  1
  O2-  O143  1  0.86005293  0.75558486  0.16727119  1
  O2-  O144  1  0.90089100  0.75931899  0.35995156  1
  O2-  O145  1  0.78164635  0.75024001  0.62249469  1
  O2-  O146  1  0.94522591  0.74895874  0.84896487  1
  O2-  O147  1  0.15464735  0.13278426  0.01330080  1
  O2-  O148  1  0.08328239  0.10862205  0.26035665  1
  O2-  O149  1  0.12699068  0.13669244  0.50859623  1
  O2-  O150  1  0.15179706  0.15537080  0.76013014  1
  O2-  O151  1  0.11157921  0.63581586  0.00090445  1
  O2-  O152  1  0.14610556  0.62027290  0.24870879  1
  O2-  O153  1  0.15229122  0.60387840  0.49914818  1
  O2-  O154  1  0.12426791  0.57647666  0.74458913  1
  O2-  O155  1  0.35899914  0.12177711  0.01516191  1
  O2-  O156  1  0.44099591  0.11638154  0.25633435  1
  O2-  O157  1  0.39029736  0.15785481  0.49225960  1
  O2-  O158  1  0.37776511  0.12603487  0.75216670  1
  O2-  O159  1  0.35347543  0.64719544  -0.01259072  1
  O2-  O160  1  0.33459680  0.62583154  0.24354002  1
  O2-  O161  1  0.34226120  0.62585661  0.52146771  1
  O2-  O162  1  0.33145200  0.60084126  0.75461279  1
  O2-  O163  1  0.64474596  0.13867073  -0.00507084  1
  O2-  O164  1  0.64768447  0.14827504  0.26209052  1
  O2-  O165  1  0.57913306  0.13646786  0.49396409  1
  O2-  O166  1  0.57659793  0.15155297  0.74550747  1
  O2-  O167  1  0.67380056  0.65183219  -0.01664846  1
  O2-  O168  1  0.64639446  0.65856313  0.24120200  1
  O2-  O169  1  0.67200867  0.64114669  0.47445563  1
  O2-  O170  1  0.65330940  0.66504303  0.76011430  1
  O2-  O171  1  0.85240393  0.13418220  -0.00816959  1
  O2-  O172  1  0.86162919  0.13621756  0.26824773  1
  O2-  O173  1  0.89205242  0.13919421  0.52222662  1
  O2-  O174  1  0.96320097  0.12847226  0.74924427  1
  O2-  O175  1  0.88409666  0.65970022  0.01395656  1
  O2-  O176  1  0.83782227  0.62145053  0.26865239  1
  O2-  O177  1  0.85318322  0.65768819  0.49327969  1
  O2-  O178  1  0.83472963  0.62522650  0.74256125  1
  O2-  O179  1  0.14265682  0.34254024  0.01720379  1
  O2-  O180  1  0.08003088  0.35783539  0.25241337  1
  O2-  O181  1  0.15337264  0.35190937  0.49499126  1
  O2-  O182  1  0.14308276  0.37091065  0.75692038  1
  O2-  O183  1  0.10795115  0.85394568  -0.02361983  1
  O2-  O184  1  0.13617945  0.81396386  0.19026136  1
  O2-  O185  1  0.11352170  0.83940778  0.55420566  1
  O2-  O186  1  0.16682462  0.84187502  0.73082849  1
  O2-  O187  1  0.34007760  0.35016807  0.01861092  1
  O2-  O188  1  0.40727695  0.38162070  0.24385585  1
  O2-  O189  1  0.36461364  0.34607143  0.49326217  1
  O2-  O190  1  0.37030046  0.37578344  0.76030344  1
  O2-  O191  1  0.35670250  0.85758574  -0.00324222  1
  O2-  O192  1  0.30586259  0.86907786  0.24755030  1
  O2-  O193  1  0.29819077  0.86321853  0.51944361  1
  O2-  O194  1  0.33638714  0.89084845  0.73201810  1
  O2-  O195  1  0.66194906  0.37784244  -0.01259744  1
  O2-  O196  1  0.59978803  0.37751495  0.24240433  1
  O2-  O197  1  0.59502005  0.39071172  0.48874275  1
  O2-  O198  1  0.63939557  0.37874566  0.73610367  1
  O2-  O199  1  0.71910140  0.87061866  -0.06678416  1
  O2-  O200  1  0.64030959  0.84366241  0.29394606  1
  O2-  O201  1  0.63997024  0.87978745  0.49603257  1
  O2-  O202  1  0.63866942  0.86471232  0.74506658  1
  O2-  O203  1  0.86448012  0.36421051  0.00281498  1
  O2-  O204  1  0.89923549  0.36960764  0.26295230  1
  O2-  O205  1  0.93138532  0.37509260  0.49955973  1
  O2-  O206  1  0.91285292  0.39070379  0.74832400  1
  O2-  O207  1  0.89130186  0.85111249  -0.03444021  1
  O2-  O208  1  0.81246381  0.89269830  0.27792693  1
  O2-  O209  1  0.83078102  0.88177692  0.48587974  1
  O2-  O210  1  0.83095167  0.86799723  0.76119588  1
  O2-  O211  1  -0.01076559  -0.15344037  0.10624779  1
  O2-  O212  1  -0.02856470  -0.10233987  0.26564258  1
  O2-  O213  1  -0.04364857  -0.11110992  0.61392749  1
  O2-  O214  1  0.02870728  -0.10040350  0.79410099  1
  O2-  O215  1  0.00498450  0.58894604  -0.12048778  1
  O2-  O216  1  -0.00318121  0.62226928  0.30569914  1
  O2-  O217  1  0.00014388  0.56837848  0.45306242  1
  O2-  O218  1  0.01127256  0.65632138  0.62229511  1
  O2-  O219  1  0.23213003  -0.07775921  0.09159805  1
  O2-  O220  1  0.25291921  0.09520098  0.17551515  1
  O2-  O221  1  0.25165115  0.14091059  0.36746135  1
  O2-  O222  1  0.26784753  0.14013702  0.61570921  1
  O2-  O223  1  0.23219758  0.67414422  0.11387079  1
  O2-  O224  1  0.24608258  0.31136337  0.25430728  1
  O2-  O225  1  0.26316926  0.31683511  0.63237639  1
  O2-  O226  1  0.22564771  0.48939851  0.61932319  1
  O2-  O227  1  0.54851476  -0.09248898  -0.02471700  1
  O2-  O228  1  0.47167131  -0.12517347  0.30618661  1
  O2-  O229  1  0.46353129  -0.13401930  0.48543309  1
  O2-  O230  1  0.50009515  -0.10770480  0.65774373  1
  O2-  O231  1  0.50770965  0.61957663  -0.04708298  1
  O2-  O232  1  0.49360151  0.61728019  0.28928429  1
  O2-  O233  1  0.50255710  0.58541721  0.45449541  1
  O2-  O234  1  0.49806510  0.61341118  0.79360745  1
  O2-  O235  1  0.76943818  -0.11686983  0.10653659  1
  O2-  O236  1  0.74949539  0.04041825  0.38330925  1
  O2-  O237  1  0.74618123  0.19097632  0.42655069  1
  O2-  O238  1  0.80543652  0.15795928  0.76030623  1
  O2-  O239  1  0.75999923  0.60833867  0.11836829  1
  O2-  O240  1  0.75383329  0.39144154  0.14573498  1
  O2-  O241  1  0.75112453  0.35440354  0.37834850  1
  O2-  O242  1  0.77236789  0.37612853  0.60143468  1
