# generated using pymatgen
data_Gd19Ta56(WO20)8
_symmetry_space_group_name_H-M   'P 1'
_cell_length_a   15.57662687
_cell_length_b   15.42665297
_cell_length_c   15.30063123
_cell_angle_alpha   90.07967985
_cell_angle_beta   89.90820450
_cell_angle_gamma   90.09321519
_symmetry_Int_Tables_number   1
_chemical_formula_structural   Gd19Ta56(WO20)8
_chemical_formula_sum   'Gd19 Ta56 W8 O160'
_cell_volume   3676.65537664
_cell_formula_units_Z   1
loop_
 _symmetry_equiv_pos_site_id
 _symmetry_equiv_pos_as_xyz
  1  'x, y, z'
loop_
 _atom_type_symbol
 _atom_type_oxidation_number
  Gd3+  3.0
  Ta5+  5.0
  W6+  6.0
  O2-  -2.0
loop_
 _atom_site_type_symbol
 _atom_site_label
 _atom_site_symmetry_multiplicity
 _atom_site_fract_x
 _atom_site_fract_y
 _atom_site_fract_z
 _atom_site_occupancy
  Gd3+  Gd0  1  -0.00567505  0.75952180  0.74301157  1
  Gd3+  Gd1  1  0.73449056  0.75664851  0.52660087  1
  Gd3+  Gd2  1  0.46377808  0.76474898  0.77558675  1
  Gd3+  Gd3  1  0.00551390  0.76280834  0.24695163  1
  Gd3+  Gd4  1  0.29132330  0.24708534  0.01077672  1
  Gd3+  Gd5  1  -0.00198555  0.23431248  0.25984295  1
  Gd3+  Gd6  1  0.01331387  0.75091758  -0.00289754  1
  Gd3+  Gd7  1  0.49420420  0.23561680  0.25087392  1
  Gd3+  Gd8  1  0.22449155  0.76023769  0.72045582  1
  Gd3+  Gd9  1  0.00188913  0.24655255  0.75341373  1
  Gd3+  Gd10  1  0.49098573  0.24412745  0.76337472  1
  Gd3+  Gd11  1  0.25719756  0.74843740  0.47699495  1
  Gd3+  Gd12  1  -0.03807865  0.23567554  0.50496941  1
  Gd3+  Gd13  1  0.75620873  0.73757035  0.25036603  1
  Gd3+  Gd14  1  0.29168328  0.23024790  0.52865343  1
  Gd3+  Gd15  1  0.71883474  0.27463806  0.78986094  1
  Gd3+  Gd16  1  0.52119241  0.25317749  -0.00188096  1
  Gd3+  Gd17  1  0.01803087  0.74170111  0.49270933  1
  Gd3+  Gd18  1  0.00732481  0.24699373  -0.00449796  1
  Ta5+  Ta19  1  0.14454601  0.37777955  0.15698653  1
  Ta5+  Ta20  1  0.64622586  0.61547977  0.11132159  1
  Ta5+  Ta21  1  0.61567695  0.36477335  0.37745835  1
  Ta5+  Ta22  1  0.37935747  0.62165367  0.62466874  1
  Ta5+  Ta23  1  0.58658118  0.62690544  0.62447295  1
  Ta5+  Ta24  1  0.63856997  0.88022963  0.36761418  1
  Ta5+  Ta25  1  0.38982866  0.61128740  0.38135251  1
  Ta5+  Ta26  1  0.31938032  0.63355856  0.88512500  1
  Ta5+  Ta27  1  0.62400837  0.13002110  0.62572918  1
  Ta5+  Ta28  1  0.87978826  0.11838260  0.87228434  1
  Ta5+  Ta29  1  0.64650597  0.85248679  0.86645030  1
  Ta5+  Ta30  1  0.16664382  0.86811143  0.11295361  1
  Ta5+  Ta31  1  0.07635570  0.08817850  0.60631590  1
  Ta5+  Ta32  1  0.85388983  0.37204216  0.37230853  1
  Ta5+  Ta33  1  0.62584815  0.61506132  0.37744545  1
  Ta5+  Ta34  1  0.88738914  0.88320984  0.38606808  1
  Ta5+  Ta35  1  0.57671435  0.88776512  0.62331688  1
  Ta5+  Ta36  1  0.11173247  0.36273829  0.59967106  1
  Ta5+  Ta37  1  0.69407085  0.86897102  0.10822840  1
  Ta5+  Ta38  1  0.39293079  0.09605975  0.12221565  1
  Ta5+  Ta39  1  0.15052250  0.11629318  0.14825751  1
  Ta5+  Ta40  1  0.13234369  0.87936032  0.36315542  1
  Ta5+  Ta41  1  0.89137170  0.61936514  0.11942419  1
  Ta5+  Ta42  1  0.13222628  0.88294839  0.86621061  1
  Ta5+  Ta43  1  0.09881752  0.60435293  0.62333501  1
  Ta5+  Ta44  1  0.86106972  0.87386867  0.12162988  1
  Ta5+  Ta45  1  0.83205432  0.12218398  0.64537555  1
  Ta5+  Ta46  1  0.32791216  0.85562026  0.13294199  1
  Ta5+  Ta47  1  0.86204680  0.12292462  0.12283355  1
  Ta5+  Ta48  1  0.88157861  0.61655305  0.38565653  1
  Ta5+  Ta49  1  0.88122554  0.87726486  0.87039973  1
  Ta5+  Ta50  1  0.31266231  0.62400662  0.13713677  1
  Ta5+  Ta51  1  0.89527062  0.38015344  0.13337072  1
  Ta5+  Ta52  1  0.11840187  0.37228331  0.40401997  1
  Ta5+  Ta53  1  0.12609900  0.60143255  0.37601092  1
  Ta5+  Ta54  1  0.67060040  0.09094448  0.87798330  1
  Ta5+  Ta55  1  0.86172690  0.62294102  0.86826246  1
  Ta5+  Ta56  1  0.66721615  0.12477025  0.37559200  1
  Ta5+  Ta57  1  0.15390517  0.62716166  0.87073476  1
  Ta5+  Ta58  1  0.40189984  0.87189581  0.37026368  1
  Ta5+  Ta59  1  0.63657541  0.10892153  0.12489582  1
  Ta5+  Ta60  1  0.37118470  0.10980488  0.38134174  1
  Ta5+  Ta61  1  0.38431475  0.38508006  0.13345258  1
  Ta5+  Ta62  1  0.29969235  0.86482167  0.88795563  1
  Ta5+  Ta63  1  0.89610842  0.90173000  0.61109246  1
  Ta5+  Ta64  1  0.09534829  0.89802895  0.60703707  1
  Ta5+  Ta65  1  0.83360031  0.12226852  0.37949428  1
  Ta5+  Ta66  1  0.35361526  0.39005213  0.87078884  1
  Ta5+  Ta67  1  0.34724066  0.37334126  0.65997319  1
  Ta5+  Ta68  1  0.62652608  0.62269065  0.86594123  1
  Ta5+  Ta69  1  0.15889258  0.12066899  0.83772322  1
  Ta5+  Ta70  1  0.36648050  0.88876168  0.61868657  1
  Ta5+  Ta71  1  0.88290524  0.38489340  0.87898600  1
  Ta5+  Ta72  1  0.12913003  0.11676644  0.38746369  1
  Ta5+  Ta73  1  0.83751317  0.37589496  0.63130320  1
  Ta5+  Ta74  1  0.88679702  0.61998385  0.62468943  1
  W6+  W75  1  0.15126414  0.62638397  0.12365569  1
  W6+  W76  1  0.14577341  0.38005128  0.83678119  1
  W6+  W77  1  0.39778984  0.09306161  0.64589810  1
  W6+  W78  1  0.63262746  0.42536374  0.93271046  1
  W6+  W79  1  0.64346512  0.36335856  0.13739249  1
  W6+  W80  1  0.35432799  0.10899264  0.87097970  1
  W6+  W81  1  0.40115626  0.36173478  0.39909617  1
  W6+  W82  1  0.60484380  0.37391270  0.58396199  1
  O2-  O83  1  0.15782232  -0.00625746  0.12901506  1
  O2-  O84  1  0.16588165  -0.00472833  0.38175232  1
  O2-  O85  1  0.15750840  0.00271946  0.57432956  1
  O2-  O86  1  0.12109423  0.00734281  0.87384104  1
  O2-  O87  1  0.16764250  0.49004448  0.12079139  1
  O2-  O88  1  0.16377534  0.49048141  0.41501536  1
  O2-  O89  1  0.13174651  0.49125875  0.60282743  1
  O2-  O90  1  0.13791333  0.50850835  0.86802935  1
  O2-  O91  1  0.36416479  -0.01988207  0.11574256  1
  O2-  O92  1  0.42147044  -0.00202215  0.37450454  1
  O2-  O93  1  0.31095286  -0.00901396  0.64595140  1
  O2-  O94  1  0.33290250  -0.02165649  0.89329818  1
  O2-  O95  1  0.36264069  0.50378769  0.13725304  1
  O2-  O96  1  0.40374356  0.49428449  0.39036717  1
  O2-  O97  1  0.35555829  0.50397376  0.64065026  1
  O2-  O98  1  0.36042919  0.51180093  0.87390175  1
  O2-  O99  1  0.66774578  -0.00570272  0.09608277  1
  O2-  O100  1  0.64553391  -0.00207821  0.38153772  1
  O2-  O101  1  0.62446170  0.00485354  0.64412932  1
  O2-  O102  1  0.63639417  -0.02295668  0.87044648  1
  O2-  O103  1  0.77208559  0.61637232  0.11011135  1
  O2-  O104  1  0.63526619  0.49649268  0.38845377  1
  O2-  O105  1  0.60682031  0.50885116  0.60980565  1
  O2-  O106  1  0.56384119  0.52105379  0.86726869  1
  O2-  O107  1  0.86153633  0.00101193  0.12368913  1
  O2-  O108  1  0.85075218  -0.00067524  0.37553655  1
  O2-  O109  1  0.82037642  0.00009433  0.63380307  1
  O2-  O110  1  0.90546086  -0.00286826  0.86728788  1
  O2-  O111  1  0.92535619  0.50230213  0.13609942  1
  O2-  O112  1  0.84978633  0.49721009  0.37465997  1
  O2-  O113  1  0.85611098  0.49789355  0.62140692  1
  O2-  O114  1  0.90540124  0.50862647  0.86360370  1
  O2-  O115  1  0.13162052  0.24386983  0.18388595  1
  O2-  O116  1  0.08756183  0.24460872  0.38774837  1
  O2-  O117  1  0.07501198  0.22934958  0.60298509  1
  O2-  O118  1  0.13998213  0.24494221  0.82597327  1
  O2-  O119  1  0.09603882  0.75483999  0.12935204  1
  O2-  O120  1  0.10444498  0.74059686  0.36452085  1
  O2-  O121  1  0.09240998  0.75208803  0.62795492  1
  O2-  O122  1  0.09863976  0.74999171  0.84890709  1
  O2-  O123  1  0.41605095  0.24891447  0.11633166  1
  O2-  O124  1  0.42101413  0.22389058  0.39056540  1
  O2-  O125  1  0.36678008  0.23878083  0.66145894  1
  O2-  O126  1  0.38465525  0.25774269  0.87913801  1
  O2-  O127  1  0.36135837  0.73744923  0.13958395  1
  O2-  O128  1  0.37661219  0.74856045  0.39218434  1
  O2-  O129  1  0.31962972  0.74908711  0.60631925  1
  O2-  O130  1  0.37008670  0.75291369  0.89375700  1
  O2-  O131  1  0.59083492  0.23479541  0.13601178  1
  O2-  O132  1  0.60636425  0.23766303  0.36182419  1
  O2-  O133  1  0.55929618  0.23805721  0.62882960  1
  O2-  O134  1  0.59031032  0.31521423  0.85288199  1
  O2-  O135  1  0.66324046  0.74610838  0.13363492  1
  O2-  O136  1  0.68356463  0.74946076  0.38003255  1
  O2-  O137  1  0.62979360  0.75272712  0.62638761  1
  O2-  O138  1  0.57739348  0.74006277  0.86843511  1
  O2-  O139  1  0.92169890  0.24863655  0.13150684  1
  O2-  O140  1  0.89514727  0.24542836  0.37353608  1
  O2-  O141  1  0.88935454  0.25390710  0.63421424  1
  O2-  O142  1  0.85709267  0.25171209  0.86456284  1
  O2-  O143  1  0.91849144  0.74834080  0.12329460  1
  O2-  O144  1  0.90746477  0.74841913  0.39235761  1
  O2-  O145  1  0.89859692  0.75221323  0.60874658  1
  O2-  O146  1  0.90896268  0.74363387  0.86691828  1
  O2-  O147  1  0.08526726  0.14014337  0.05247039  1
  O2-  O148  1  0.08974308  0.10417276  0.26591926  1
  O2-  O149  1  0.04050319  0.10366749  0.47632225  1
  O2-  O150  1  0.09282957  0.11242567  0.72524881  1
  O2-  O151  1  0.12176747  0.64877282  -0.00853044  1
  O2-  O152  1  0.15197800  0.60265722  0.25970667  1
  O2-  O153  1  0.14589574  0.64748612  0.50478771  1
  O2-  O154  1  0.16035508  0.62677510  0.73090061  1
  O2-  O155  1  0.41046674  0.12952498  0.00032141  1
  O2-  O156  1  0.38613683  0.12632581  0.25053985  1
  O2-  O157  1  0.36632881  0.10649115  0.50846630  1
  O2-  O158  1  0.44542009  0.10560392  0.77375088  1
  O2-  O159  1  0.31449124  0.62697712  0.01105176  1
  O2-  O160  1  0.33619810  0.61892975  0.27296977  1
  O2-  O161  1  0.32468476  0.61762590  0.49422868  1
  O2-  O162  1  0.33407647  0.66065467  0.74730749  1
  O2-  O163  1  0.60896844  0.13353398  -0.02148559  1
  O2-  O164  1  0.65880406  0.10943487  0.24557870  1
  O2-  O165  1  0.64204030  0.12794708  0.50613085  1
  O2-  O166  1  0.61819488  0.15347339  0.77662114  1
  O2-  O167  1  0.60986426  0.63781051  -0.00120649  1
  O2-  O168  1  0.66160594  0.62030240  0.25466737  1
  O2-  O169  1  0.64444811  0.64018188  0.50082083  1
  O2-  O170  1  0.64526677  0.62573049  0.74298163  1
  O2-  O171  1  0.90970443  0.13802180  0.00698118  1
  O2-  O172  1  0.88381601  0.13165454  0.25027119  1
  O2-  O173  1  0.84827980  0.13258434  0.51469839  1
  O2-  O174  1  0.91800384  0.12193101  0.73526941  1
  O2-  O175  1  0.90997733  0.62912039  -0.00700740  1
  O2-  O176  1  0.87799187  0.64365920  0.25538387  1
  O2-  O177  1  0.82689230  0.63353310  0.50225606  1
  O2-  O178  1  0.83900265  0.63741693  0.74311176  1
  O2-  O179  1  0.03734652  0.36507055  0.09985193  1
  O2-  O180  1  0.12120576  0.38858809  0.27688756  1
  O2-  O181  1  0.03040609  0.37497090  0.49961616  1
  O2-  O182  1  0.07327445  0.37429962  0.71616143  1
  O2-  O183  1  0.10847117  0.86375161  -0.00753082  1
  O2-  O184  1  0.16031111  0.86030253  0.24532262  1
  O2-  O185  1  0.14745583  0.84682284  0.49055907  1
  O2-  O186  1  0.11322697  0.88264423  0.73271625  1
  O2-  O187  1  0.40668542  0.37670712  0.00310757  1
  O2-  O188  1  0.40601494  0.35859653  0.25423367  1
  O2-  O189  1  0.36994494  0.35577056  0.53564127  1
  O2-  O190  1  0.43037854  0.38195190  0.75615288  1
  O2-  O191  1  0.27491686  0.84534474  0.01508338  1
  O2-  O192  1  0.34660502  0.87408582  0.26394959  1
  O2-  O193  1  0.34602994  0.88240545  0.49008463  1
  O2-  O194  1  0.34272395  0.85281267  0.74970304  1
  O2-  O195  1  0.65316325  0.32238259  0.01028117  1
  O2-  O196  1  0.58298433  0.37546655  0.25966439  1
  O2-  O197  1  0.53002309  0.36877711  0.46677845  1
  O2-  O198  1  0.72373006  0.36712892  0.66913624  1
  O2-  O199  1  0.68519660  0.84236901  -0.01888342  1
  O2-  O200  1  0.67829966  0.87463945  0.24887059  1
  O2-  O201  1  0.62481274  0.86940588  0.50504427  1
  O2-  O202  1  0.58016068  0.86504616  0.74925300  1
  O2-  O203  1  0.88821343  0.37195715  0.00496244  1
  O2-  O204  1  0.92741558  0.36915464  0.26406100  1
  O2-  O205  1  0.85432715  0.36006636  0.50159937  1
  O2-  O206  1  0.88829230  0.37422348  0.74559408  1
  O2-  O207  1  0.89417844  0.86364356  -0.00486314  1
  O2-  O208  1  0.86350624  0.85224541  0.25931448  1
  O2-  O209  1  0.82471124  0.87238115  0.49925298  1
  O2-  O210  1  0.89443114  0.87045186  0.73598736  1
  O2-  O211  1  0.00356136  0.15684270  -0.12501311  1
  O2-  O212  1  0.00856363  -0.11124672  0.34104980  1
  O2-  O213  1  -0.01405994  -0.11691513  0.51759648  1
  O2-  O214  1  -0.00355906  -0.00982486  0.63545717  1
  O2-  O215  1  0.00801364  0.34931118  -0.12019657  1
  O2-  O216  1  0.00255634  0.59703678  0.37386729  1
  O2-  O217  1  -0.01112262  0.60397158  0.54580506  1
  O2-  O218  1  -0.00580981  0.61499406  0.70406450  1
  O2-  O219  1  0.23360088  0.13737449  -0.06002602  1
  O2-  O220  1  0.26786800  0.14058674  0.12161312  1
  O2-  O221  1  0.24789081  0.15271817  0.38307176  1
  O2-  O222  1  0.25915462  0.10709937  0.77325064  1
  O2-  O223  1  0.24630644  0.36526362  -0.06636340  1
  O2-  O224  1  0.26531544  0.34294709  0.12775255  1
  O2-  O225  1  0.22774481  0.33170014  0.61852383  1
  O2-  O226  1  0.27089595  0.38690804  0.77042584  1
  O2-  O227  1  0.51379865  0.08282836  0.14132166  1
  O2-  O228  1  0.52010256  -0.15041933  0.35079198  1
  O2-  O229  1  0.47254071  -0.18872216  0.62909241  1
  O2-  O230  1  0.46879241  -0.03386530  0.60897028  1
  O2-  O231  1  0.64252487  0.49327858  0.09827729  1
  O2-  O232  1  0.51036701  0.64076678  0.36135622  1
  O2-  O233  1  0.47864746  0.63116356  0.54723121  1
  O2-  O234  1  0.48436904  0.63602138  0.70423260  1
  O2-  O235  1  0.77444896  0.08528388  -0.05657641  1
  O2-  O236  1  0.75224780  0.16305254  0.10664745  1
  O2-  O237  1  0.73032790  0.19391186  0.64658957  1
  O2-  O238  1  0.77289456  0.12190054  0.79017428  1
  O2-  O239  1  0.75858803  0.39611403  -0.12902555  1
  O2-  O240  1  0.78017242  0.37859416  0.15462327  1
  O2-  O241  1  0.74058783  0.35037551  0.35231969  1
  O2-  O242  1  0.74665062  0.60917832  0.89888480  1
