# generated using pymatgen
data_Gd19Ta56(WO20)8
_symmetry_space_group_name_H-M   'P 1'
_cell_length_a   15.59494677
_cell_length_b   15.50041036
_cell_length_c   15.12985757
_cell_angle_alpha   90.10516799
_cell_angle_beta   90.31787203
_cell_angle_gamma   90.10064585
_symmetry_Int_Tables_number   1
_chemical_formula_structural   Gd19Ta56(WO20)8
_chemical_formula_sum   'Gd19 Ta56 W8 O160'
_cell_volume   3657.24318561
_cell_formula_units_Z   1
loop_
 _symmetry_equiv_pos_site_id
 _symmetry_equiv_pos_as_xyz
  1  'x, y, z'
loop_
 _atom_type_symbol
 _atom_type_oxidation_number
  Gd3+  3.0
  Ta5+  5.0
  W6+  6.0
  O2-  -2.0
loop_
 _atom_site_type_symbol
 _atom_site_label
 _atom_site_symmetry_multiplicity
 _atom_site_fract_x
 _atom_site_fract_y
 _atom_site_fract_z
 _atom_site_occupancy
  Gd3+  Gd0  1  0.23885587  0.73385662  0.25557962  1
  Gd3+  Gd1  1  0.21756233  0.25479332  0.49996679  1
  Gd3+  Gd2  1  0.52436712  0.26295167  0.23408012  1
  Gd3+  Gd3  1  -0.03715253  0.24067977  0.76540517  1
  Gd3+  Gd4  1  0.28781522  0.25367297  0.26169838  1
  Gd3+  Gd5  1  0.55098223  0.24878258  0.50974757  1
  Gd3+  Gd6  1  0.00789253  0.24472102  0.24583784  1
  Gd3+  Gd7  1  0.48035211  0.73357815  0.49672016  1
  Gd3+  Gd8  1  0.00856265  0.74497343  0.23323270  1
  Gd3+  Gd9  1  0.23350594  0.22484541  0.73829946  1
  Gd3+  Gd10  1  0.75026754  0.74436206  0.75025121  1
  Gd3+  Gd11  1  0.73946414  0.74808390  0.49884924  1
  Gd3+  Gd12  1  0.75687227  0.75481002  0.25704609  1
  Gd3+  Gd13  1  0.50616758  0.25582684  -0.01077309  1
  Gd3+  Gd14  1  0.54435323  0.75158186  -0.01040375  1
  Gd3+  Gd15  1  0.00408836  0.24358722  0.00653188  1
  Gd3+  Gd16  1  -0.03394153  0.76471084  0.01493760  1
  Gd3+  Gd17  1  0.23971223  0.76170036  0.74408822  1
  Gd3+  Gd18  1  0.23089586  0.76831443  0.00137878  1
  Ta5+  Ta19  1  0.09614959  0.87708536  0.61840437  1
  Ta5+  Ta20  1  0.65774157  0.12664345  0.09981681  1
  Ta5+  Ta21  1  0.37078914  0.39119339  0.09134483  1
  Ta5+  Ta22  1  0.67805007  0.12211564  0.61005590  1
  Ta5+  Ta23  1  0.35952942  0.62508600  0.88166553  1
  Ta5+  Ta24  1  0.90638254  0.62643080  0.87767168  1
  Ta5+  Ta25  1  0.11648214  0.86315110  0.38446395  1
  Ta5+  Ta26  1  0.11070719  0.37472344  0.86460129  1
  Ta5+  Ta27  1  0.38069461  0.36277419  0.63862364  1
  Ta5+  Ta28  1  0.89106541  0.87395896  0.61752073  1
  Ta5+  Ta29  1  0.61000222  0.60757537  0.62138800  1
  Ta5+  Ta30  1  0.07467271  0.37404582  0.61502732  1
  Ta5+  Ta31  1  0.11137926  0.89203452  0.12044673  1
  Ta5+  Ta32  1  0.41120946  0.87718824  0.63951325  1
  Ta5+  Ta33  1  0.36037608  0.11655085  0.39608917  1
  Ta5+  Ta34  1  0.84079330  0.88278791  0.13085179  1
  Ta5+  Ta35  1  0.61637522  0.88167182  0.62585074  1
  Ta5+  Ta36  1  0.60082576  0.88588105  0.84381589  1
  Ta5+  Ta37  1  0.67424386  0.37689213  0.09734679  1
  Ta5+  Ta38  1  0.67283189  0.87790837  0.10242904  1
  Ta5+  Ta39  1  0.35887826  0.87256486  0.39319050  1
  Ta5+  Ta40  1  0.36344678  0.88236738  0.88494415  1
  Ta5+  Ta41  1  0.59475799  0.61805445  0.83805074  1
  Ta5+  Ta42  1  0.85679355  0.38391428  0.90172365  1
  Ta5+  Ta43  1  0.15877207  0.12276398  0.12948176  1
  Ta5+  Ta44  1  0.07527705  0.62088756  0.42200469  1
  Ta5+  Ta45  1  0.85697080  0.37315247  0.63599245  1
  Ta5+  Ta46  1  0.60209663  0.87457074  0.35875632  1
  Ta5+  Ta47  1  0.11619552  0.62370377  0.87327394  1
  Ta5+  Ta48  1  0.83320450  0.62303676  0.12145461  1
  Ta5+  Ta49  1  0.84481103  0.11854585  0.63819563  1
  Ta5+  Ta50  1  0.84158161  0.11758923  0.90386688  1
  Ta5+  Ta51  1  0.65579760  0.38436574  0.35934638  1
  Ta5+  Ta52  1  0.61517444  0.13318578  0.84542857  1
  Ta5+  Ta53  1  0.36231395  0.88141744  0.14547274  1
  Ta5+  Ta54  1  0.39434607  0.12763852  0.63189297  1
  Ta5+  Ta55  1  0.87525161  0.38457688  0.12833816  1
  Ta5+  Ta56  1  0.11010282  0.62069038  0.64012942  1
  Ta5+  Ta57  1  0.62109384  0.37853469  0.84741285  1
  Ta5+  Ta58  1  0.14896573  0.10708763  0.37081549  1
  Ta5+  Ta59  1  0.37915892  0.37983775  0.40471135  1
  Ta5+  Ta60  1  0.36003451  0.12711530  0.88975647  1
  Ta5+  Ta61  1  0.88917866  0.88273125  0.39601910  1
  Ta5+  Ta62  1  0.15930754  0.37982225  0.10970244  1
  Ta5+  Ta63  1  0.87208766  0.61139793  0.38389581  1
  Ta5+  Ta64  1  0.68860206  0.37916811  0.60970914  1
  Ta5+  Ta65  1  0.07685549  0.12525204  0.60911710  1
  Ta5+  Ta66  1  0.11220670  0.10905427  0.87197316  1
  Ta5+  Ta67  1  0.34266314  0.37782645  0.88528174  1
  Ta5+  Ta68  1  0.13302486  0.38913147  0.36048795  1
  Ta5+  Ta69  1  0.60433172  0.62411299  0.35134285  1
  Ta5+  Ta70  1  0.87395718  0.87763409  0.87290613  1
  Ta5+  Ta71  1  0.10453177  0.62072005  0.08710622  1
  Ta5+  Ta72  1  0.85796381  0.12692942  0.12594417  1
  Ta5+  Ta73  1  0.37651453  0.62828349  0.13680689  1
  Ta5+  Ta74  1  0.66644343  0.62234225  0.09793642  1
  W6+  W75  1  0.88341771  0.61886973  0.61517766  1
  W6+  W76  1  0.63237097  0.12127464  0.34982783  1
  W6+  W77  1  0.90088459  0.36369916  0.38517202  1
  W6+  W78  1  0.35131159  0.61380017  0.38761218  1
  W6+  W79  1  0.40676611  0.11773020  0.13896733  1
  W6+  W80  1  0.87623784  0.12750659  0.38303697  1
  W6+  W81  1  0.11953328  0.89280741  0.86129649  1
  W6+  W82  1  0.40423583  0.60932558  0.64438885  1
  O2-  O83  1  0.16834051  0.00156832  0.14444197  1
  O2-  O84  1  0.12567537  -0.01233614  0.37084744  1
  O2-  O85  1  0.08238728  0.00451977  0.60686281  1
  O2-  O86  1  0.04958104  0.00918190  0.86702631  1
  O2-  O87  1  0.12907403  0.49522307  0.09799920  1
  O2-  O88  1  0.10432331  0.51246120  0.37246249  1
  O2-  O89  1  0.09293830  0.49119990  0.62662402  1
  O2-  O90  1  0.10686792  0.49369409  0.87030046  1
  O2-  O91  1  0.41951795  -0.01368324  0.15313317  1
  O2-  O92  1  0.38449804  -0.00293862  0.39316312  1
  O2-  O93  1  0.40083361  0.00820485  0.63652075  1
  O2-  O94  1  0.35212840  0.00202745  0.87435747  1
  O2-  O95  1  0.40616226  0.49848466  0.13311311  1
  O2-  O96  1  0.41017807  0.49368848  0.39804348  1
  O2-  O97  1  0.36418758  0.47940276  0.64015772  1
  O2-  O98  1  0.33997150  0.50418188  0.87611860  1
  O2-  O99  1  0.65752901  0.00601953  0.10171610  1
  O2-  O100  1  0.60505126  -0.00885424  0.35476383  1
  O2-  O101  1  0.66094430  -0.00946429  0.60806611  1
  O2-  O102  1  0.59542816  0.01112127  0.85331944  1
  O2-  O103  1  0.64800827  0.49388938  0.09754365  1
  O2-  O104  1  0.64636098  0.51027215  0.37051888  1
  O2-  O105  1  0.67745979  0.51043420  0.60407857  1
  O2-  O106  1  0.57659065  0.49209405  0.84999334  1
  O2-  O107  1  0.85203436  0.00483749  0.12635403  1
  O2-  O108  1  0.90761746  0.00056437  0.39235238  1
  O2-  O109  1  0.87035341  -0.00985441  0.63816358  1
  O2-  O110  1  0.83402770  -0.00333267  0.89503609  1
  O2-  O111  1  0.87749568  0.50597450  0.12165510  1
  O2-  O112  1  0.88400224  0.49470173  0.38152093  1
  O2-  O113  1  0.88785922  0.49117597  0.63602089  1
  O2-  O114  1  0.88301559  0.50330069  0.89676889  1
  O2-  O115  1  0.11355644  0.25217898  0.12708467  1
  O2-  O116  1  0.15801070  0.25330977  0.34998162  1
  O2-  O117  1  0.13008056  0.25022391  0.62327584  1
  O2-  O118  1  0.07622290  0.23906067  0.87183351  1
  O2-  O119  1  0.09770936  0.75567889  0.08440059  1
  O2-  O120  1  0.12883405  0.72745314  0.37782455  1
  O2-  O121  1  0.13962936  0.74721176  0.63230638  1
  O2-  O122  1  0.14713843  0.75126460  0.86564451  1
  O2-  O123  1  0.41992432  0.27689572  0.11856343  1
  O2-  O124  1  0.33499640  0.24989128  0.40876071  1
  O2-  O125  1  0.32175016  0.24331454  0.61325472  1
  O2-  O126  1  0.36659323  0.25441603  0.91082051  1
  O2-  O127  1  0.37713694  0.75325554  0.15609970  1
  O2-  O128  1  0.32467599  0.75034979  0.37794928  1
  O2-  O129  1  0.42618305  0.75147330  0.63774102  1
  O2-  O130  1  0.32771632  0.75489897  0.88710535  1
  O2-  O131  1  0.61309438  0.26268832  0.10826623  1
  O2-  O132  1  0.59938084  0.26208897  0.36494238  1
  O2-  O133  1  0.67548457  0.25201647  0.60002512  1
  O2-  O134  1  0.56771220  0.25736571  0.84802983  1
  O2-  O135  1  0.65306004  0.75087711  0.09776239  1
  O2-  O136  1  0.65531609  0.74233395  0.36059498  1
  O2-  O137  1  0.64807377  0.75013852  0.63098969  1
  O2-  O138  1  0.60999347  0.75035311  0.84150083  1
  O2-  O139  1  0.91036176  0.25128898  0.12157233  1
  O2-  O140  1  0.94500142  0.23714548  0.37959464  1
  O2-  O141  1  0.85630188  0.24363982  0.66189834  1
  O2-  O142  1  0.88550308  0.25035278  0.90367941  1
  O2-  O143  1  0.87863082  0.74799360  0.15142408  1
  O2-  O144  1  0.84440006  0.74971092  0.38479879  1
  O2-  O145  1  0.83695016  0.75416640  0.61868698  1
  O2-  O146  1  0.92965800  0.75864179  0.86975606  1
  O2-  O147  1  0.11746072  0.12139245  0.00948321  1
  O2-  O148  1  0.09860545  0.12373719  0.24664550  1
  O2-  O149  1  0.08864290  0.14616288  0.47716080  1
  O2-  O150  1  0.10150649  0.13095471  0.74095498  1
  O2-  O151  1  0.18621251  0.62529982  -0.01596322  1
  O2-  O152  1  0.12355903  0.64696023  0.20777212  1
  O2-  O153  1  0.15368736  0.61329061  0.51835707  1
  O2-  O154  1  0.16650797  0.61551923  0.75253963  1
  O2-  O155  1  0.41965436  0.11947816  -0.00126351  1
  O2-  O156  1  0.41345887  0.15696716  0.28399564  1
  O2-  O157  1  0.43040308  0.14285880  0.50361653  1
  O2-  O158  1  0.36910752  0.15038949  0.75581944  1
  O2-  O159  1  0.35340361  0.63590898  0.01499418  1
  O2-  O160  1  0.31874844  0.60801292  0.24839216  1
  O2-  O161  1  0.37003336  0.64452859  0.51898402  1
  O2-  O162  1  0.33714420  0.64508615  0.75725627  1
  O2-  O163  1  0.59909472  0.14149496  -0.01670109  1
  O2-  O164  1  0.58794122  0.12929822  0.21004046  1
  O2-  O165  1  0.63222233  0.12616669  0.49028931  1
  O2-  O166  1  0.61820910  0.13138329  0.72033198  1
  O2-  O167  1  0.63662338  0.62821142  -0.03558243  1
  O2-  O168  1  0.63304391  0.62885884  0.22989608  1
  O2-  O169  1  0.61460711  0.65602316  0.49444699  1
  O2-  O170  1  0.68027706  0.61283077  0.74634457  1
  O2-  O171  1  0.92631011  0.11714005  0.00736355  1
  O2-  O172  1  0.91340019  0.12926318  0.24092847  1
  O2-  O173  1  0.85778673  0.12844694  0.51791783  1
  O2-  O174  1  0.88395203  0.11804068  0.78092646  1
  O2-  O175  1  0.85761334  0.65453587  -0.00449072  1
  O2-  O176  1  0.81920305  0.61883468  0.26421552  1
  O2-  O177  1  0.80481958  0.61610916  0.49316985  1
  O2-  O178  1  0.85509640  0.63519160  0.76601024  1
  O2-  O179  1  0.11252330  0.35166491  -0.00738225  1
  O2-  O180  1  0.11084675  0.38101835  0.23354272  1
  O2-  O181  1  0.10800816  0.36502232  0.48577627  1
  O2-  O182  1  0.06720622  0.35838608  0.74526541  1
  O2-  O183  1  0.14228967  0.89482641  -0.00040808  1
  O2-  O184  1  0.13292010  0.84332250  0.24640987  1
  O2-  O185  1  0.15471784  0.86542929  0.50209678  1
  O2-  O186  1  0.16299126  0.89211910  0.72147586  1
  O2-  O187  1  0.43548911  0.39336766  -0.02012663  1
  O2-  O188  1  0.41160818  0.34570996  0.28765960  1
  O2-  O189  1  0.43610490  0.34818524  0.51604879  1
  O2-  O190  1  0.38003279  0.34990718  0.76574326  1
  O2-  O191  1  0.34725682  0.87710004  0.01609721  1
  O2-  O192  1  0.31594365  0.88118130  0.26843295  1
  O2-  O193  1  0.34909034  0.86721450  0.52000067  1
  O2-  O194  1  0.34840274  0.86715991  0.75158964  1
  O2-  O195  1  0.61134943  0.36249180  -0.02201492  1
  O2-  O196  1  0.60954587  0.38284359  0.23830131  1
  O2-  O197  1  0.62944398  0.37654526  0.48737297  1
  O2-  O198  1  0.63557600  0.37400728  0.72103076  1
  O2-  O199  1  0.64217786  0.87290345  -0.03221127  1
  O2-  O200  1  0.64579781  0.86232743  0.23765371  1
  O2-  O201  1  0.64410753  0.86053667  0.47846460  1
  O2-  O202  1  0.68051095  0.87926896  0.74614026  1
  O2-  O203  1  0.93926187  0.37785601  0.00952618  1
  O2-  O204  1  0.93064537  0.37269811  0.24232173  1
  O2-  O205  1  0.87327993  0.35398791  0.51588604  1
  O2-  O206  1  0.88960254  0.36900045  0.77900741  1
  O2-  O207  1  0.85146832  0.85449223  -0.00020677  1
  O2-  O208  1  0.84078930  0.88040270  0.27334581  1
  O2-  O209  1  0.81657130  0.87904211  0.50027934  1
  O2-  O210  1  0.84677583  0.86224073  0.75291000  1
  O2-  O211  1  -0.01242405  -0.12249478  0.13432572  1
  O2-  O212  1  -0.00219926  -0.16073365  0.34870114  1
  O2-  O213  1  -0.02296179  -0.13142788  0.52004034  1
  O2-  O214  1  -0.00417659  -0.15233026  0.68299062  1
  O2-  O215  1  0.02189981  0.62767067  -0.03404537  1
  O2-  O216  1  -0.01700050  0.64052309  0.32722122  1
  O2-  O217  1  -0.02830301  0.62556299  0.49103645  1
  O2-  O218  1  -0.00019621  0.64537322  0.67117370  1
  O2-  O219  1  0.26988585  0.16804798  0.12966621  1
  O2-  O220  1  0.25772762  0.11107327  0.30330549  1
  O2-  O221  1  0.24920019  0.11218906  0.46492582  1
  O2-  O222  1  0.23453527  0.14082368  0.86759984  1
  O2-  O223  1  0.27267499  0.38944577  0.01144740  1
  O2-  O224  1  0.27033394  0.37223994  0.17302634  1
  O2-  O225  1  0.25455528  0.39648574  0.37560326  1
  O2-  O226  1  0.22647152  0.34351215  0.83445609  1
  O2-  O227  1  0.48280248  -0.14296602  -0.10538448  1
  O2-  O228  1  0.48296256  -0.15758472  0.37212612  1
  O2-  O229  1  0.50985307  -0.12352907  0.55610584  1
  O2-  O230  1  0.52462431  -0.11023811  0.71862801  1
  O2-  O231  1  0.47824800  0.64597671  -0.10448101  1
  O2-  O232  1  0.48878275  0.65032404  0.36031009  1
  O2-  O233  1  0.50854992  0.56058340  0.57504030  1
  O2-  O234  1  0.52431065  0.62455843  0.72415732  1
  O2-  O235  1  0.76661559  0.13267711  0.02076206  1
  O2-  O236  1  0.75189321  0.16571810  0.17665002  1
  O2-  O237  1  0.75910609  0.14657391  0.36191532  1
  O2-  O238  1  0.73138639  0.15556452  0.85617454  1
  O2-  O239  1  0.77938749  0.36861132  0.02405275  1
  O2-  O240  1  0.76595341  0.36513084  0.18359869  1
  O2-  O241  1  0.76747811  0.35898302  0.36070946  1
  O2-  O242  1  0.73945076  0.38702831  0.86171764  1
