# generated using pymatgen
data_Gd19Ta56(WO20)8
_symmetry_space_group_name_H-M   'P 1'
_cell_length_a   15.57541733
_cell_length_b   15.37217522
_cell_length_c   15.26570132
_cell_angle_alpha   90.14926887
_cell_angle_beta   89.99390955
_cell_angle_gamma   90.33859402
_symmetry_Int_Tables_number   1
_chemical_formula_structural   Gd19Ta56(WO20)8
_chemical_formula_sum   'Gd19 Ta56 W8 O160'
_cell_volume   3654.96076911
_cell_formula_units_Z   1
loop_
 _symmetry_equiv_pos_site_id
 _symmetry_equiv_pos_as_xyz
  1  'x, y, z'
loop_
 _atom_type_symbol
 _atom_type_oxidation_number
  Gd3+  3.0
  Ta5+  5.0
  W6+  6.0
  O2-  -2.0
loop_
 _atom_site_type_symbol
 _atom_site_label
 _atom_site_symmetry_multiplicity
 _atom_site_fract_x
 _atom_site_fract_y
 _atom_site_fract_z
 _atom_site_occupancy
  Gd3+  Gd0  1  0.76072185  0.75426575  -0.00758733  1
  Gd3+  Gd1  1  0.69243011  0.24226383  0.71712799  1
  Gd3+  Gd2  1  -0.02319342  0.25946486  0.50381271  1
  Gd3+  Gd3  1  0.70985939  0.22655229  0.26279841  1
  Gd3+  Gd4  1  0.76317040  0.75655389  0.23648309  1
  Gd3+  Gd5  1  -0.05054666  0.21423255  0.23233273  1
  Gd3+  Gd6  1  0.26130954  0.24833120  0.26818438  1
  Gd3+  Gd7  1  0.24320920  0.76436315  0.22490722  1
  Gd3+  Gd8  1  0.01426115  0.74410320  -0.00228110  1
  Gd3+  Gd9  1  0.07505555  0.78039991  0.75685393  1
  Gd3+  Gd10  1  0.46154437  0.75822751  0.27216705  1
  Gd3+  Gd11  1  0.71794135  0.74540132  0.72911736  1
  Gd3+  Gd12  1  0.73900679  0.25257077  0.49738738  1
  Gd3+  Gd13  1  0.49201226  0.21203076  0.25216082  1
  Gd3+  Gd14  1  0.48371579  0.24291473  0.49475893  1
  Gd3+  Gd15  1  -0.03760889  0.24828249  -0.01289963  1
  Gd3+  Gd16  1  0.03800048  0.75311094  0.49263863  1
  Gd3+  Gd17  1  0.00134842  0.75809552  0.24828808  1
  Gd3+  Gd18  1  0.25609606  0.76536979  -0.01123040  1
  Ta5+  Ta19  1  0.34301229  0.36376055  0.88037972  1
  Ta5+  Ta20  1  0.10103558  0.90542902  0.12363530  1
  Ta5+  Ta21  1  0.90835859  0.89228020  0.84374561  1
  Ta5+  Ta22  1  0.45355400  0.86436803  0.60122147  1
  Ta5+  Ta23  1  0.89730381  0.63320751  0.84960394  1
  Ta5+  Ta24  1  0.64391904  0.12124410  0.09549199  1
  Ta5+  Ta25  1  0.37901844  0.86087992  0.43572574  1
  Ta5+  Ta26  1  0.38400318  0.62126316  0.45053476  1
  Ta5+  Ta27  1  0.38083656  0.11014190  0.62690102  1
  Ta5+  Ta28  1  0.11889407  0.57327625  0.12397968  1
  Ta5+  Ta29  1  0.40353697  0.11942806  0.87295411  1
  Ta5+  Ta30  1  0.12671796  0.15010214  0.11785912  1
  Ta5+  Ta31  1  0.59736268  0.40375388  0.59663578  1
  Ta5+  Ta32  1  0.36477775  0.87757481  0.82756964  1
  Ta5+  Ta33  1  0.62334412  0.39640550  0.39309045  1
  Ta5+  Ta34  1  0.14325978  0.60259452  0.88310259  1
  Ta5+  Ta35  1  0.82165122  0.12437505  0.87678528  1
  Ta5+  Ta36  1  0.57497650  0.63894740  0.59386196  1
  Ta5+  Ta37  1  0.63046676  0.88387560  0.35753530  1
  Ta5+  Ta38  1  0.10575216  0.38708072  0.36647819  1
  Ta5+  Ta39  1  0.11021370  0.37806219  0.12236057  1
  Ta5+  Ta40  1  0.81418372  0.10904523  0.10036386  1
  Ta5+  Ta41  1  0.41772101  0.61314835  0.63975414  1
  Ta5+  Ta42  1  0.16146061  0.62579986  0.36837816  1
  Ta5+  Ta43  1  0.84128470  0.11779791  0.62708138  1
  Ta5+  Ta44  1  0.08662598  0.13300860  0.63384506  1
  Ta5+  Ta45  1  0.85217294  0.38735336  0.11586954  1
  Ta5+  Ta46  1  0.89736131  0.92466541  0.09285826  1
  Ta5+  Ta47  1  0.14786666  0.89466719  0.37654243  1
  Ta5+  Ta48  1  0.57302882  0.11952915  0.85988614  1
  Ta5+  Ta49  1  0.62554553  0.61907012  0.11616469  1
  Ta5+  Ta50  1  0.34897260  0.39233028  0.38414753  1
  Ta5+  Ta51  1  0.33957781  0.36956171  0.63252381  1
  Ta5+  Ta52  1  0.66445964  0.03636107  0.47055458  1
  Ta5+  Ta53  1  0.92062866  0.58086119  0.36519293  1
  Ta5+  Ta54  1  0.09884883  0.38410549  0.62638120  1
  Ta5+  Ta55  1  0.57972573  0.05414546  0.61692986  1
  Ta5+  Ta56  1  0.58120286  0.37172709  0.84882837  1
  Ta5+  Ta57  1  0.33801927  0.05716935  0.38809193  1
  Ta5+  Ta58  1  0.10325753  0.13170753  0.37600392  1
  Ta5+  Ta59  1  0.88374174  0.62474611  0.61033532  1
  Ta5+  Ta60  1  0.41520497  0.61575131  0.11005155  1
  Ta5+  Ta61  1  0.86838956  0.87113941  0.63658994  1
  Ta5+  Ta62  1  0.64600297  0.61321219  0.86212631  1
  Ta5+  Ta63  1  0.38700528  0.37036497  0.12961131  1
  Ta5+  Ta64  1  0.59321771  0.86854512  0.87551404  1
  Ta5+  Ta65  1  0.15331108  0.15968684  0.87117684  1
  Ta5+  Ta66  1  0.85980576  0.38788451  0.35915919  1
  Ta5+  Ta67  1  0.83894743  0.10679836  0.37585391  1
  Ta5+  Ta68  1  0.61458438  0.37230852  0.09539474  1
  Ta5+  Ta69  1  0.61835954  0.87825112  0.10399729  1
  Ta5+  Ta70  1  0.35889504  0.10805889  0.12352642  1
  Ta5+  Ta71  1  0.89995950  0.91683149  0.39943932  1
  Ta5+  Ta72  1  0.41767627  0.88790754  0.07252536  1
  Ta5+  Ta73  1  0.60390149  0.62528029  0.33802556  1
  Ta5+  Ta74  1  0.62499101  0.87764363  0.60078567  1
  W6+  W75  1  0.16311928  0.62325295  0.62661042  1
  W6+  W76  1  0.83487641  0.38315678  0.86994786  1
  W6+  W77  1  0.12648568  0.34961817  0.87274678  1
  W6+  W78  1  0.16284279  0.90816733  0.88007130  1
  W6+  W79  1  0.21478780  0.92825057  0.61617233  1
  W6+  W80  1  0.84303854  0.38884728  0.63070943  1
  W6+  W81  1  0.35667368  0.61904390  0.86809577  1
  W6+  W82  1  0.92793299  0.53969638  0.01130279  1
  O2-  O83  1  0.10677890  0.02932002  0.11179201  1
  O2-  O84  1  0.10415948  0.00897167  0.36731667  1
  O2-  O85  1  0.11273328  0.01662395  0.61424920  1
  O2-  O86  1  0.16481327  0.04285560  0.88063904  1
  O2-  O87  1  0.04317647  0.47377449  0.16336441  1
  O2-  O88  1  0.14871512  0.50295763  0.34926425  1
  O2-  O89  1  0.09716454  0.50552536  0.63068147  1
  O2-  O90  1  0.15636317  0.48643605  0.87842498  1
  O2-  O91  1  0.39540347  -0.01066256  0.14047927  1
  O2-  O92  1  0.42571857  -0.02449715  0.39757803  1
  O2-  O93  1  0.45243649  0.00921465  0.60123263  1
  O2-  O94  1  0.36066858  0.00067679  0.84884091  1
  O2-  O95  1  0.40990712  0.49474364  0.12002225  1
  O2-  O96  1  0.39567196  0.50545180  0.38498628  1
  O2-  O97  1  0.38893505  0.48117788  0.63573185  1
  O2-  O98  1  0.34239757  0.48604313  0.88945677  1
  O2-  O99  1  0.60662426  -0.00219656  0.10419061  1
  O2-  O100  1  0.59989128  0.00069570  0.36477293  1
  O2-  O101  1  0.67117750  -0.01962762  0.65727067  1
  O2-  O102  1  0.58429284  -0.00858717  0.87039185  1
  O2-  O103  1  0.60296161  0.49620724  0.12315489  1
  O2-  O104  1  0.59880594  0.49392675  0.32716136  1
  O2-  O105  1  0.61752019  0.52456128  0.60351007  1
  O2-  O106  1  0.61914605  0.49383374  0.86666498  1
  O2-  O107  1  0.92543186  0.03883612  0.13855039  1
  O2-  O108  1  0.93703208  0.02817775  0.35194154  1
  O2-  O109  1  0.85312650  -0.00522589  0.62373869  1
  O2-  O110  1  0.87185999  0.00914151  0.84467428  1
  O2-  O111  1  0.86060864  0.50685093  0.12804956  1
  O2-  O112  1  0.97745648  0.46093586  0.35499312  1
  O2-  O113  1  0.82478218  0.52156005  0.60857212  1
  O2-  O114  1  0.86731211  0.51455160  0.88413211  1
  O2-  O115  1  0.04425956  0.25204359  0.12071618  1
  O2-  O116  1  0.05181994  0.26056699  0.36955299  1
  O2-  O117  1  0.10659683  0.24858367  0.58557065  1
  O2-  O118  1  0.04992451  0.22691441  0.87237339  1
  O2-  O119  1  0.10263992  0.77158941  0.13453311  1
  O2-  O120  1  0.15517345  0.76258163  0.34781192  1
  O2-  O121  1  0.06588543  0.71962933  0.62582919  1
  O2-  O122  1  0.12941355  0.75666322  0.90316833  1
  O2-  O123  1  0.37362912  0.23672903  0.15880124  1
  O2-  O124  1  0.40401574  0.28151909  0.35485375  1
  O2-  O125  1  0.39189554  0.24645094  0.61381740  1
  O2-  O126  1  0.35385196  0.23224494  0.88281992  1
  O2-  O127  1  0.33394756  0.80885109  0.11771011  1
  O2-  O128  1  0.42625263  0.73567138  0.42675243  1
  O2-  O129  1  0.46451049  0.73858444  0.61672071  1
  O2-  O130  1  0.31718657  0.75866207  0.85440109  1
  O2-  O131  1  0.65255332  0.25526759  0.12363591  1
  O2-  O132  1  0.58567260  0.28357131  0.34552631  1
  O2-  O133  1  0.61737794  0.27241371  0.58254116  1
  O2-  O134  1  0.61674531  0.25241697  0.84438459  1
  O2-  O135  1  0.66742237  0.74941091  0.11247886  1
  O2-  O136  1  0.60234017  0.75531521  0.33098659  1
  O2-  O137  1  0.64561340  0.74767868  0.60047098  1
  O2-  O138  1  0.63778869  0.74162253  0.88868229  1
  O2-  O139  1  0.86268250  0.24567494  0.10914101  1
  O2-  O140  1  0.86971404  0.24254468  0.36110909  1
  O2-  O141  1  0.81889919  0.25175028  0.62172520  1
  O2-  O142  1  0.83804679  0.24711546  0.88430349  1
  O2-  O143  1  0.84040059  0.81323943  0.12432321  1
  O2-  O144  1  1.01577143  0.85452150  0.36864254  1
  O2-  O145  1  0.83915638  0.74175351  0.62154607  1
  O2-  O146  1  0.94553918  0.75501870  0.84359126  1
  O2-  O147  1  0.16300039  0.17496387  0.00281591  1
  O2-  O148  1  0.08048526  0.14341396  0.24975884  1
  O2-  O149  1  0.05151404  0.12776794  0.48761040  1
  O2-  O150  1  0.14247705  0.15457318  0.74006699  1
  O2-  O151  1  0.16199723  0.62648787  0.01689753  1
  O2-  O152  1  0.16217580  0.62967650  0.22583066  1
  O2-  O153  1  0.13821068  0.63804407  0.48862034  1
  O2-  O154  1  0.15091411  0.64079601  0.76509288  1
  O2-  O155  1  0.37648695  0.11071074  0.00623762  1
  O2-  O156  1  0.37462760  0.11138518  0.28015307  1
  O2-  O157  1  0.37286689  0.12811409  0.48397226  1
  O2-  O158  1  0.41273317  0.12845111  0.74296608  1
  O2-  O159  1  0.34345516  0.64247656  0.01651498  1
  O2-  O160  1  0.35958095  0.66545991  0.20674474  1
  O2-  O161  1  0.31724195  0.63578112  0.55220554  1
  O2-  O162  1  0.42650986  0.62287072  0.76017752  1
  O2-  O163  1  0.60297062  0.14277143  -0.01870251  1
  O2-  O164  1  0.60528097  0.13244170  0.22254409  1
  O2-  O165  1  0.71995562  0.11918121  0.57454971  1
  O2-  O166  1  0.60235838  0.12217952  0.73125898  1
  O2-  O167  1  0.68105313  0.61386046  0.00116449  1
  O2-  O168  1  0.69154242  0.62478776  0.22984618  1
  O2-  O169  1  0.59126009  0.63225753  0.45959731  1
  O2-  O170  1  0.61628979  0.63439071  0.74143133  1
  O2-  O171  1  0.88311160  0.11910456  -0.01372319  1
  O2-  O172  1  0.81997404  0.12791685  0.24271022  1
  O2-  O173  1  0.87136321  0.14376689  0.49805952  1
  O2-  O174  1  0.79590117  0.13220692  0.74487970  1
  O2-  O175  1  0.88392632  0.67198413  -0.01787323  1
  O2-  O176  1  0.88469007  0.66147540  0.27834873  1
  O2-  O177  1  0.91702172  0.63287794  0.48095929  1
  O2-  O178  1  0.92855674  0.61885942  0.72730260  1
  O2-  O179  1  0.09048122  0.35822519  0.00340441  1
  O2-  O180  1  0.14134767  0.33662834  0.24308117  1
  O2-  O181  1  0.08005733  0.38828912  0.48483460  1
  O2-  O182  1  0.11870172  0.35339401  0.74003119  1
  O2-  O183  1  0.17727763  0.88938524  0.02545729  1
  O2-  O184  1  0.16290534  0.89615009  0.23929058  1
  O2-  O185  1  0.13940745  0.86378732  0.49796366  1
  O2-  O186  1  0.17730195  0.88289375  0.73993599  1
  O2-  O187  1  0.34463902  0.35489135  0.01713895  1
  O2-  O188  1  0.32913061  0.38487845  0.24158850  1
  O2-  O189  1  0.36804081  0.36435270  0.50043178  1
  O2-  O190  1  0.31903671  0.35566564  0.75498109  1
  O2-  O191  1  0.35147948  0.88343646  -0.03119292  1
  O2-  O192  1  0.34058079  0.82678019  0.31281125  1
  O2-  O193  1  0.32320552  0.86312558  0.54740892  1
  O2-  O194  1  0.37508575  0.87909838  0.70628733  1
  O2-  O195  1  0.58071823  0.36229387  -0.01750065  1
  O2-  O196  1  0.50532794  0.34300002  0.16413193  1
  O2-  O197  1  0.69420607  0.40152149  0.49795104  1
  O2-  O198  1  0.59021811  0.38109654  0.72058849  1
  O2-  O199  1  0.67627502  0.87441591  -0.01428328  1
  O2-  O200  1  0.67302295  0.87866375  0.22790152  1
  O2-  O201  1  0.66660085  0.86774472  0.47505150  1
  O2-  O202  1  0.62389179  0.85258243  0.75430565  1
  O2-  O203  1  0.90877329  0.38855539  0.00161122  1
  O2-  O204  1  0.89424024  0.35945234  0.23648368  1
  O2-  O205  1  0.86781764  0.36480036  0.48229544  1
  O2-  O206  1  0.78054099  0.36885319  0.74734765  1
  O2-  O207  1  0.86441673  0.86574926  -0.04258629  1
  O2-  O208  1  0.84683196  0.84030988  0.32476843  1
  O2-  O209  1  0.91979486  0.86215804  0.51245618  1
  O2-  O210  1  0.96847474  0.87128257  0.70047890  1
  O2-  O211  1  0.00575045  -0.10817818  0.03221585  1
  O2-  O212  1  -0.01436224  -0.10931546  0.19124748  1
  O2-  O213  1  -0.03460554  0.14038195  0.65325531  1
  O2-  O214  1  0.02752762  -0.09147968  0.85351409  1
  O2-  O215  1  0.00830742  0.62673014  0.09907990  1
  O2-  O216  1  0.03224463  0.64761814  0.35234050  1
  O2-  O217  1  -0.02488469  0.35579433  0.62294207  1
  O2-  O218  1  0.01801253  0.60739036  0.90387852  1
  O2-  O219  1  0.23931402  0.13380546  0.16813633  1
  O2-  O220  1  0.26098447  -0.04469940  0.39891275  1
  O2-  O221  1  0.22531587  0.14570836  0.37619782  1
  O2-  O222  1  0.28121622  0.04564426  0.63350976  1
  O2-  O223  1  0.19607472  0.47194195  0.11191902  1
  O2-  O224  1  0.28162435  0.63755409  0.37058799  1
  O2-  O225  1  0.22831416  0.35123123  0.38615965  1
  O2-  O226  1  0.22668733  0.38143016  0.59779006  1
  O2-  O227  1  0.52260077  -0.13704945  0.00738500  1
  O2-  O228  1  0.50753500  -0.15504067  0.16439909  1
  O2-  O229  1  0.56188464  0.11608603  0.49847217  1
  O2-  O230  1  0.47846422  -0.16093206  0.84816789  1
  O2-  O231  1  0.51886308  0.65770180  0.05882043  1
  O2-  O232  1  0.52813441  0.63146170  0.22115078  1
  O2-  O233  1  0.53175038  0.39005287  0.47913966  1
  O2-  O234  1  0.46409441  0.36672324  0.85746322  1
  O2-  O235  1  0.79036704  -0.01396337  0.07099653  1
  O2-  O236  1  0.71676883  0.14644273  0.39247822  1
  O2-  O237  1  0.79651204  -0.00833346  0.43202696  1
  O2-  O238  1  0.81516854  -0.14266464  0.75817740  1
  O2-  O239  1  0.73703665  0.39153115  0.08259283  1
  O2-  O240  1  0.73835180  0.35676836  0.33744805  1
  O2-  O241  1  0.81956893  0.50720731  0.36153647  1
  O2-  O242  1  0.77019141  0.64801605  0.83759472  1
