# generated using pymatgen
data_Gd19Ta56(WO20)8
_symmetry_space_group_name_H-M   'P 1'
_cell_length_a   15.52368278
_cell_length_b   15.52575638
_cell_length_c   15.25051943
_cell_angle_alpha   89.86592721
_cell_angle_beta   89.89789933
_cell_angle_gamma   90.05748932
_symmetry_Int_Tables_number   1
_chemical_formula_structural   Gd19Ta56(WO20)8
_chemical_formula_sum   'Gd19 Ta56 W8 O160'
_cell_volume   3675.61541024
_cell_formula_units_Z   1
loop_
 _symmetry_equiv_pos_site_id
 _symmetry_equiv_pos_as_xyz
  1  'x, y, z'
loop_
 _atom_type_symbol
 _atom_type_oxidation_number
  Gd3+  3.0
  Ta5+  5.0
  W6+  6.0
  O2-  -2.0
loop_
 _atom_site_type_symbol
 _atom_site_label
 _atom_site_symmetry_multiplicity
 _atom_site_fract_x
 _atom_site_fract_y
 _atom_site_fract_z
 _atom_site_occupancy
  Gd3+  Gd0  1  0.00447853  0.75424303  -0.00548861  1
  Gd3+  Gd1  1  -0.01174379  0.24186899  0.75448156  1
  Gd3+  Gd2  1  0.25853744  0.74884551  0.76581767  1
  Gd3+  Gd3  1  0.00846300  0.26663149  0.25949659  1
  Gd3+  Gd4  1  0.49400965  0.76365723  0.23731607  1
  Gd3+  Gd5  1  -0.00180895  0.75258841  0.51223215  1
  Gd3+  Gd6  1  0.24477492  0.23510427  0.49560393  1
  Gd3+  Gd7  1  -0.02070167  0.73934038  0.25349625  1
  Gd3+  Gd8  1  0.23196035  0.24871113  0.01010365  1
  Gd3+  Gd9  1  0.73391606  0.75389915  0.26810328  1
  Gd3+  Gd10  1  0.24646503  0.26951398  0.25525230  1
  Gd3+  Gd11  1  0.50408133  0.75595078  0.49792265  1
  Gd3+  Gd12  1  0.76180182  0.74715219  0.00690336  1
  Gd3+  Gd13  1  0.50374872  0.76381735  0.74870047  1
  Gd3+  Gd14  1  0.55308528  0.25327878  0.74450155  1
  Gd3+  Gd15  1  0.48903293  0.24944369  0.25546643  1
  Gd3+  Gd16  1  0.49217436  0.77137322  -0.00294344  1
  Gd3+  Gd17  1  0.76594658  0.76031475  0.76610571  1
  Gd3+  Gd18  1  -0.00049447  0.73301760  0.75120895  1
  Ta5+  Ta19  1  0.12530883  0.36772008  0.86050238  1
  Ta5+  Ta20  1  0.84789369  0.14021498  0.88681906  1
  Ta5+  Ta21  1  0.15193760  0.88165652  0.61926832  1
  Ta5+  Ta22  1  0.36091097  0.38638566  0.11558616  1
  Ta5+  Ta23  1  0.11978041  0.37729390  0.60421869  1
  Ta5+  Ta24  1  0.37068013  0.89143466  0.87666765  1
  Ta5+  Ta25  1  0.61180996  0.90906181  0.35945079  1
  Ta5+  Ta26  1  0.68993719  0.35591372  0.61018960  1
  Ta5+  Ta27  1  0.63847926  0.90349572  0.13233322  1
  Ta5+  Ta28  1  0.62742505  0.90857856  0.88240498  1
  Ta5+  Ta29  1  0.84435874  0.35756107  0.87835386  1
  Ta5+  Ta30  1  0.86123158  0.37158060  0.12812361  1
  Ta5+  Ta31  1  0.65834386  0.35077853  0.13789200  1
  Ta5+  Ta32  1  0.15689393  0.86575241  0.12493708  1
  Ta5+  Ta33  1  0.84859003  0.14137401  0.62589986  1
  Ta5+  Ta34  1  0.37205201  0.36497522  0.87057487  1
  Ta5+  Ta35  1  0.86907187  0.38036476  0.37457028  1
  Ta5+  Ta36  1  0.38130202  0.10064031  0.63379219  1
  Ta5+  Ta37  1  0.62702426  0.59474181  0.91454045  1
  Ta5+  Ta38  1  0.42083284  0.60194205  0.63136446  1
  Ta5+  Ta39  1  0.35056409  0.86599090  0.37295036  1
  Ta5+  Ta40  1  0.10832685  0.38647352  0.39775547  1
  Ta5+  Ta41  1  0.11808573  0.62492445  0.13032268  1
  Ta5+  Ta42  1  0.60760344  0.13587130  0.11940369  1
  Ta5+  Ta43  1  0.35642065  0.63206709  0.11951801  1
  Ta5+  Ta44  1  0.84934942  0.89292817  0.13469997  1
  Ta5+  Ta45  1  0.12169127  0.88231078  0.87451524  1
  Ta5+  Ta46  1  0.85461112  0.36232202  0.62717169  1
  Ta5+  Ta47  1  0.63853666  0.90136371  0.61430018  1
  Ta5+  Ta48  1  0.68179803  0.13558376  0.62251532  1
  Ta5+  Ta49  1  0.30861639  0.12391822  0.86097532  1
  Ta5+  Ta50  1  0.84590657  0.61830617  0.40107830  1
  Ta5+  Ta51  1  0.13086067  0.86658795  0.37066849  1
  Ta5+  Ta52  1  0.60839486  0.37739746  0.38253494  1
  Ta5+  Ta53  1  0.11266955  0.11088430  0.36298583  1
  Ta5+  Ta54  1  0.11314822  0.38015425  0.11932344  1
  Ta5+  Ta55  1  0.14024751  0.62675784  0.37335163  1
  Ta5+  Ta56  1  0.59921880  0.12006766  0.38658371  1
  Ta5+  Ta57  1  0.87772952  0.12815238  0.38051767  1
  Ta5+  Ta58  1  0.14088963  0.12542035  0.87067564  1
  Ta5+  Ta59  1  0.86965820  0.13701515  0.13555075  1
  Ta5+  Ta60  1  0.38486750  0.61637397  0.88102991  1
  Ta5+  Ta61  1  0.37215580  0.11387745  0.11488939  1
  Ta5+  Ta62  1  0.87510428  0.60620107  0.88329635  1
  Ta5+  Ta63  1  0.63312547  0.58331311  0.11954712  1
  Ta5+  Ta64  1  0.86823306  0.61353691  0.62375763  1
  Ta5+  Ta65  1  0.13143398  0.61428514  0.87918784  1
  Ta5+  Ta66  1  0.65903476  0.59899419  0.58353970  1
  Ta5+  Ta67  1  0.35722149  0.87308162  0.61555428  1
  Ta5+  Ta68  1  0.10485899  0.11712629  0.61624546  1
  Ta5+  Ta69  1  0.84124315  0.60867208  0.14360651  1
  Ta5+  Ta70  1  0.90914145  0.89757967  0.87749610  1
  Ta5+  Ta71  1  0.68045456  0.15164340  0.88231458  1
  Ta5+  Ta72  1  0.40716903  0.37694544  0.41364028  1
  Ta5+  Ta73  1  0.32426401  0.87692933  0.12453078  1
  Ta5+  Ta74  1  0.87228384  0.89472726  0.62963840  1
  W6+  W75  1  0.12571047  0.11311476  0.13828753  1
  W6+  W76  1  0.40408268  0.34929796  0.64488950  1
  W6+  W77  1  0.68176585  0.35966975  0.87868694  1
  W6+  W78  1  0.39045635  0.61283520  0.37394585  1
  W6+  W79  1  0.36630816  0.11356636  0.37574386  1
  W6+  W80  1  0.87854354  0.88102329  0.37580465  1
  W6+  W81  1  0.59991194  0.62377871  0.34668260  1
  W6+  W82  1  0.12750682  0.62249684  0.62223283  1
  O2-  O83  1  0.13559525  -0.01849674  0.13243360  1
  O2-  O84  1  0.11867918  -0.01335025  0.35781237  1
  O2-  O85  1  0.09401533  -0.00979646  0.62502761  1
  O2-  O86  1  0.15070706  -0.00040645  0.86402855  1
  O2-  O87  1  0.11228563  0.50441628  0.12561760  1
  O2-  O88  1  0.13506223  0.50419840  0.37751597  1
  O2-  O89  1  0.15216362  0.49056088  0.62477680  1
  O2-  O90  1  0.12522511  0.49710962  0.86465348  1
  O2-  O91  1  0.33131153  0.00117012  0.13273218  1
  O2-  O92  1  0.33505998  -0.01714957  0.37182958  1
  O2-  O93  1  0.42607545  -0.01476270  0.63573619  1
  O2-  O94  1  0.37095114  0.00845521  0.85745948  1
  O2-  O95  1  0.35909334  0.50909695  0.10629185  1
  O2-  O96  1  0.35555823  0.48185312  0.39668761  1
  O2-  O97  1  0.39970164  0.48733515  0.63788784  1
  O2-  O98  1  0.38674362  0.49674005  0.87736594  1
  O2-  O99  1  0.65658992  0.02501491  0.13570737  1
  O2-  O100  1  0.66796236  0.01415237  0.34867159  1
  O2-  O101  1  0.63307874  0.01714872  0.64414873  1
  O2-  O102  1  0.66158393  0.02062605  0.88201487  1
  O2-  O103  1  0.64824448  0.47158699  0.16087532  1
  O2-  O104  1  0.62860379  0.49295678  0.36468886  1
  O2-  O105  1  0.66185469  0.48240001  0.60017628  1
  O2-  O106  1  0.66309837  0.49453040  0.86263294  1
  O2-  O107  1  0.87837514  0.00914013  0.12732037  1
  O2-  O108  1  0.87051407  0.00941547  0.36843308  1
  O2-  O109  1  0.86804561  0.01329395  0.62537002  1
  O2-  O110  1  0.86662363  0.00928737  0.89078133  1
  O2-  O111  1  0.88409236  0.49701610  0.12976940  1
  O2-  O112  1  0.82973489  0.49987571  0.38253860  1
  O2-  O113  1  0.85186881  0.49529599  0.63346959  1
  O2-  O114  1  0.86011442  0.48948254  0.88328528  1
  O2-  O115  1  0.13365378  0.25051674  0.13803355  1
  O2-  O116  1  0.12546330  0.25353086  0.37746367  1
  O2-  O117  1  0.13382512  0.24549412  0.59856857  1
  O2-  O118  1  0.09398296  0.24743831  0.86789250  1
  O2-  O119  1  0.06523143  0.74863159  0.12775977  1
  O2-  O120  1  0.06479399  0.74824121  0.37394606  1
  O2-  O121  1  0.08336806  0.76204849  0.63135985  1
  O2-  O122  1  0.09759701  0.75065862  0.87097390  1
  O2-  O123  1  0.24013684  0.38048922  0.09572919  1
  O2-  O124  1  0.35676310  0.25705455  0.36677272  1
  O2-  O125  1  0.44112826  0.20520333  0.65351943  1
  O2-  O126  1  0.34407934  0.24012317  0.86500455  1
  O2-  O127  1  0.40097036  0.75937081  0.11435242  1
  O2-  O128  1  0.42227868  0.75174786  0.37022175  1
  O2-  O129  1  0.41960998  0.74935167  0.62617355  1
  O2-  O130  1  0.39757778  0.75093078  0.87584066  1
  O2-  O131  1  0.56533852  0.26386996  0.12669448  1
  O2-  O132  1  0.56276972  0.23911092  0.38926630  1
  O2-  O133  1  0.62522462  0.24590006  0.60916770  1
  O2-  O134  1  0.60322521  0.25341051  0.88284831  1
  O2-  O135  1  0.62825366  0.78045931  0.16158296  1
  O2-  O136  1  0.60656704  0.77704992  0.35096166  1
  O2-  O137  1  0.57617745  0.79537011  0.62318483  1
  O2-  O138  1  0.74494209  0.65173093  0.88408844  1
  O2-  O139  1  0.91868297  0.25497867  0.14271664  1
  O2-  O140  1  0.90080584  0.25555480  0.35829620  1
  O2-  O141  1  0.91769689  0.25143812  0.61792944  1
  O2-  O142  1  0.91278208  0.24862468  0.88639162  1
  O2-  O143  1  0.83397488  0.74622462  0.14891314  1
  O2-  O144  1  0.85830381  0.74630283  0.37768230  1
  O2-  O145  1  0.88740009  0.75448533  0.64015144  1
  O2-  O146  1  0.89136988  0.76294796  0.87051866  1
  O2-  O147  1  0.14259019  0.13124512  0.00203195  1
  O2-  O148  1  0.20113096  0.12927629  0.27017409  1
  O2-  O149  1  0.15403412  0.11050294  0.48796095  1
  O2-  O150  1  0.10512041  0.13186133  0.73837282  1
  O2-  O151  1  0.10319843  0.63481332  0.00181194  1
  O2-  O152  1  0.08604587  0.62979015  0.25484976  1
  O2-  O153  1  0.10524673  0.64040754  0.49053998  1
  O2-  O154  1  0.15186832  0.64538297  0.75636517  1
  O2-  O155  1  0.32803892  0.12331164  -0.00504724  1
  O2-  O156  1  0.33217364  0.24139619  0.12278002  1
  O2-  O157  1  0.34106622  0.12015925  0.51916521  1
  O2-  O158  1  0.30410814  0.10665564  0.72556978  1
  O2-  O159  1  0.41837149  0.63665061  0.00298475  1
  O2-  O160  1  0.38655689  0.63298686  0.23652076  1
  O2-  O161  1  0.41248964  0.62602765  0.51072875  1
  O2-  O162  1  0.37450455  0.63878238  0.74901580  1
  O2-  O163  1  0.66318554  0.15478571  0.01289978  1
  O2-  O164  1  0.59402760  0.14423556  0.25009757  1
  O2-  O165  1  0.65510020  0.11826693  0.49510483  1
  O2-  O166  1  0.66837822  0.15116570  0.75209396  1
  O2-  O167  1  0.61959950  0.69611319  0.00505671  1
  O2-  O168  1  0.55676856  0.62924933  0.20510099  1
  O2-  O169  1  0.60199527  0.64740610  0.48614693  1
  O2-  O170  1  0.54188082  0.61503972  0.65243733  1
  O2-  O171  1  0.83883609  0.14988072  0.01780786  1
  O2-  O172  1  0.82867359  0.14032115  0.25494813  1
  O2-  O173  1  0.83259333  0.14513867  0.49182251  1
  O2-  O174  1  0.86714474  0.14483174  0.75513305  1
  O2-  O175  1  0.89241702  0.64737193  0.00879674  1
  O2-  O176  1  0.88928459  0.62180357  0.26788192  1
  O2-  O177  1  0.92707714  0.62064060  0.49561253  1
  O2-  O178  1  0.86169455  0.63501637  0.75862142  1
  O2-  O179  1  0.11287788  0.36583107  -0.00907306  1
  O2-  O180  1  0.13397904  0.37081353  0.25752006  1
  O2-  O181  1  0.19740239  0.37432899  0.48813034  1
  O2-  O182  1  0.08970125  0.35958643  0.73183981  1
  O2-  O183  1  0.15007013  0.84338158  0.00018050  1
  O2-  O184  1  0.14173077  0.83384333  0.25147983  1
  O2-  O185  1  0.10559368  0.86313870  0.50027667  1
  O2-  O186  1  0.16054961  0.86295707  0.74509377  1
  O2-  O187  1  0.39729941  0.35510966  -0.00698595  1
  O2-  O188  1  0.35074215  0.37201837  0.23706998  1
  O2-  O189  1  0.35912709  0.32418196  0.51949834  1
  O2-  O190  1  0.45447753  0.36044238  0.77920453  1
  O2-  O191  1  0.38430329  0.88333462  0.00173932  1
  O2-  O192  1  0.35553775  0.85078906  0.24723682  1
  O2-  O193  1  0.40256468  0.86833163  0.49761038  1
  O2-  O194  1  0.37791283  0.85702082  0.74445559  1
  O2-  O195  1  0.67426149  0.35879067  0.01803011  1
  O2-  O196  1  0.65244732  0.33169111  0.27118895  1
  O2-  O197  1  0.68183422  0.34922397  0.47748619  1
  O2-  O198  1  0.66353871  0.35390312  0.73736960  1
  O2-  O199  1  0.58537350  0.89323573  0.01143908  1
  O2-  O200  1  0.55619368  0.91110703  0.24272086  1
  O2-  O201  1  0.60502613  0.90208778  0.48982863  1
  O2-  O202  1  0.63463281  0.87227141  0.75604283  1
  O2-  O203  1  0.85411640  0.35961819  0.00684161  1
  O2-  O204  1  0.82766713  0.37315538  0.25376048  1
  O2-  O205  1  0.85668388  0.36517190  0.49611646  1
  O2-  O206  1  0.88515120  0.35568867  0.75445787  1
  O2-  O207  1  0.88662454  0.84965742  0.01620107  1
  O2-  O208  1  0.91968423  0.87058425  0.23741878  1
  O2-  O209  1  0.90966539  0.87362936  0.51128010  1
  O2-  O210  1  0.84456220  0.88507331  0.75875078  1
  O2-  O211  1  0.01610368  -0.09412813  -0.05324338  1
  O2-  O212  1  0.04017656  0.12630333  0.24923536  1
  O2-  O213  1  -0.00257532  0.12396440  0.41106774  1
  O2-  O214  1  0.00569665  -0.11987926  0.79240859  1
  O2-  O215  1  -0.00257219  0.61819007  -0.13685259  1
  O2-  O216  1  -0.01159410  0.40033841  0.34890546  1
  O2-  O217  1  0.03942612  0.38695107  0.50977488  1
  O2-  O218  1  -0.01069564  0.61542051  0.65034266  1
  O2-  O219  1  0.25462330  -0.14696689  -0.12555343  1
  O2-  O220  1  0.24283682  -0.17851651  0.40574721  1
  O2-  O221  1  0.25666589  -0.20832547  0.62190018  1
  O2-  O222  1  0.26010095  -0.05129713  0.59675205  1
  O2-  O223  1  0.25986374  0.63346195  -0.10683123  1
  O2-  O224  1  0.23800033  0.65543446  0.12281649  1
  O2-  O225  1  0.25399722  0.64595419  0.36526335  1
  O2-  O226  1  0.24820746  0.37456024  0.85923384  1
  O2-  O227  1  0.49158418  0.10285246  0.08646039  1
  O2-  O228  1  0.39662095  0.13228630  0.24097310  1
  O2-  O229  1  0.49245866  0.07187164  0.40773285  1
  O2-  O230  1  0.50592765  -0.12896037  0.86493682  1
  O2-  O231  1  0.57561229  0.53841614  0.01413945  1
  O2-  O232  1  0.49197276  0.37886185  0.31664299  1
  O2-  O233  1  0.50942364  0.39553468  0.47706892  1
  O2-  O234  1  0.52591865  0.63644107  0.85372883  1
  O2-  O235  1  0.74077978  -0.11515068  0.06074441  1
  O2-  O236  1  0.74779617  -0.10647322  0.22126098  1
  O2-  O237  1  0.75114349  -0.14085187  0.60866940  1
  O2-  O238  1  0.72335051  -0.16581542  0.89311668  1
  O2-  O239  1  0.74404303  0.59608559  0.05185834  1
  O2-  O240  1  0.73051755  0.61797729  0.20989028  1
  O2-  O241  1  0.77185304  0.61870526  0.51727349  1
  O2-  O242  1  0.72281867  0.65596616  0.67147573  1
