# generated using pymatgen
data_Gd19Ta56(WO20)8
_symmetry_space_group_name_H-M   'P 1'
_cell_length_a   15.54598305
_cell_length_b   15.51827458
_cell_length_c   15.46639127
_cell_angle_alpha   89.96138694
_cell_angle_beta   90.00013965
_cell_angle_gamma   89.94668461
_symmetry_Int_Tables_number   1
_chemical_formula_structural   Gd19Ta56(WO20)8
_chemical_formula_sum   'Gd19 Ta56 W8 O160'
_cell_volume   3731.21545886
_cell_formula_units_Z   1
loop_
 _symmetry_equiv_pos_site_id
 _symmetry_equiv_pos_as_xyz
  1  'x, y, z'
loop_
 _atom_type_symbol
 _atom_type_oxidation_number
  Gd3+  3.0
  Ta5+  5.0
  W6+  6.0
  O2-  -2.0
loop_
 _atom_site_type_symbol
 _atom_site_label
 _atom_site_symmetry_multiplicity
 _atom_site_fract_x
 _atom_site_fract_y
 _atom_site_fract_z
 _atom_site_occupancy
  Gd3+  Gd0  1  0.73473353  0.26444989  -0.00158453  1
  Gd3+  Gd1  1  -0.00657634  0.74514010  0.25725941  1
  Gd3+  Gd2  1  0.74036086  0.74960814  0.51174337  1
  Gd3+  Gd3  1  0.00143729  0.75687865  0.00673398  1
  Gd3+  Gd4  1  -0.03010637  0.24195594  0.50030540  1
  Gd3+  Gd5  1  0.51623793  0.24138526  0.46190316  1
  Gd3+  Gd6  1  0.74019661  0.24838231  0.25222417  1
  Gd3+  Gd7  1  0.50091297  0.74924431  0.24547379  1
  Gd3+  Gd8  1  -0.00263063  0.75075733  0.74982471  1
  Gd3+  Gd9  1  0.26175260  0.75706947  0.00671061  1
  Gd3+  Gd10  1  0.00510663  0.74305019  0.50365715  1
  Gd3+  Gd11  1  0.23897573  0.25028395  0.23871142  1
  Gd3+  Gd12  1  0.50885026  0.74182229  0.74464602  1
  Gd3+  Gd13  1  -0.01702840  0.24198681  0.26458911  1
  Gd3+  Gd14  1  0.74614878  0.27251907  0.75101685  1
  Gd3+  Gd15  1  0.25469265  0.75741170  0.51328679  1
  Gd3+  Gd16  1  0.73727915  0.75676519  -0.01470379  1
  Gd3+  Gd17  1  0.26040435  0.74713480  0.75313280  1
  Gd3+  Gd18  1  0.74881557  0.75481771  0.75279818  1
  Ta5+  Ta19  1  0.36363187  0.36722370  0.37248440  1
  Ta5+  Ta20  1  0.38414420  0.37137289  0.12138524  1
  Ta5+  Ta21  1  0.13591574  0.61417428  0.63439503  1
  Ta5+  Ta22  1  0.06556511  0.36462730  0.87767411  1
  Ta5+  Ta23  1  0.06480518  0.12799973  0.64280623  1
  Ta5+  Ta24  1  0.06461588  0.13788546  0.87118941  1
  Ta5+  Ta25  1  0.85547113  0.11010912  0.38083391  1
  Ta5+  Ta26  1  0.62714158  0.62034161  0.12310942  1
  Ta5+  Ta27  1  0.58787605  0.91612488  0.87249581  1
  Ta5+  Ta28  1  0.86474057  0.62511561  0.12776138  1
  Ta5+  Ta29  1  0.63900232  0.38376330  0.37396928  1
  Ta5+  Ta30  1  0.05192812  0.38122475  0.63840179  1
  Ta5+  Ta31  1  0.61406845  0.12059659  0.12000436  1
  Ta5+  Ta32  1  0.13978668  0.61829034  0.37080698  1
  Ta5+  Ta33  1  0.89856532  0.36331884  0.87680910  1
  Ta5+  Ta34  1  0.38745022  0.13021194  0.12066573  1
  Ta5+  Ta35  1  0.10261118  0.89753160  0.87703542  1
  Ta5+  Ta36  1  0.87844415  0.88780858  0.62336602  1
  Ta5+  Ta37  1  0.62886413  0.60768244  0.62078738  1
  Ta5+  Ta38  1  0.36196604  0.12297054  0.37158487  1
  Ta5+  Ta39  1  0.13272748  0.88460560  0.12726970  1
  Ta5+  Ta40  1  0.88700088  0.60992174  0.87700952  1
  Ta5+  Ta41  1  0.43971155  0.11978783  0.87266939  1
  Ta5+  Ta42  1  0.37860008  0.89267483  0.62256182  1
  Ta5+  Ta43  1  0.87636829  0.57924855  0.37355825  1
  Ta5+  Ta44  1  0.09999815  0.60693479  0.88165430  1
  Ta5+  Ta45  1  0.38120574  0.61393763  0.61720762  1
  Ta5+  Ta46  1  0.89677396  0.14167258  0.86778791  1
  Ta5+  Ta47  1  0.60877259  0.38128669  0.12888380  1
  Ta5+  Ta48  1  0.37502866  0.91235950  0.87279550  1
  Ta5+  Ta49  1  0.84348569  0.12842726  0.62694924  1
  Ta5+  Ta50  1  0.13086252  0.88576380  0.63063787  1
  Ta5+  Ta51  1  0.87359089  0.40060300  0.37391390  1
  Ta5+  Ta52  1  0.12167791  0.37369674  0.39304859  1
  Ta5+  Ta53  1  0.87175990  0.89966463  0.37451636  1
  Ta5+  Ta54  1  0.88966959  0.89536500  0.87473407  1
  Ta5+  Ta55  1  0.12532240  0.12513211  0.39170733  1
  Ta5+  Ta56  1  0.63906599  0.62828944  0.37385268  1
  Ta5+  Ta57  1  0.61029540  0.13764619  0.86331177  1
  Ta5+  Ta58  1  0.41949691  0.57552732  0.87718470  1
  Ta5+  Ta59  1  0.10106262  0.37550534  0.12395066  1
  Ta5+  Ta60  1  0.37628280  0.61942813  0.11908430  1
  Ta5+  Ta61  1  0.13433746  0.61765388  0.12415611  1
  Ta5+  Ta62  1  0.63898142  0.58514716  0.87400535  1
  Ta5+  Ta63  1  0.86384864  0.12161162  0.11622672  1
  Ta5+  Ta64  1  0.10429482  0.12790009  0.11642166  1
  Ta5+  Ta65  1  0.86714931  0.37935287  0.12535165  1
  Ta5+  Ta66  1  0.58921116  0.37557501  0.87370932  1
  Ta5+  Ta67  1  0.62327245  0.88593278  0.62425374  1
  Ta5+  Ta68  1  0.67055907  0.13179308  0.61681089  1
  Ta5+  Ta69  1  0.62924544  0.87414417  0.36682404  1
  Ta5+  Ta70  1  0.42202945  0.35934339  0.87227953  1
  Ta5+  Ta71  1  0.37358553  0.88549264  0.12581712  1
  Ta5+  Ta72  1  0.85311675  0.87378990  0.12530927  1
  Ta5+  Ta73  1  0.36478981  0.87170610  0.36894063  1
  Ta5+  Ta74  1  0.58820242  0.36378007  0.62448022  1
  W6+  W75  1  0.38960813  0.61592546  0.36675108  1
  W6+  W76  1  0.11102859  0.87563404  0.37135909  1
  W6+  W77  1  0.44387459  0.13187360  0.62296387  1
  W6+  W78  1  0.88585287  0.61627378  0.61872072  1
  W6+  W79  1  0.63046804  0.10962084  0.36894544  1
  W6+  W80  1  0.89277369  0.38005775  0.62601413  1
  W6+  W81  1  0.42713023  0.36859523  0.62166217  1
  W6+  W82  1  0.60084125  0.87039211  0.11052426  1
  O2-  O83  1  0.14238202  0.00917711  0.12839467  1
  O2-  O84  1  0.12638283  0.00831473  0.38127043  1
  O2-  O85  1  0.09813735  0.00056697  0.63166662  1
  O2-  O86  1  0.11952679  0.01440850  0.87598894  1
  O2-  O87  1  0.13934158  0.49401275  0.12614350  1
  O2-  O88  1  0.12721903  0.49525798  0.38402665  1
  O2-  O89  1  0.10677938  0.49990110  0.62879098  1
  O2-  O90  1  0.11660524  0.49028093  0.88361487  1
  O2-  O91  1  0.36457437  0.00943250  0.13553761  1
  O2-  O92  1  0.36673103  0.00171797  0.37158659  1
  O2-  O93  1  0.39794644  0.00713200  0.61104782  1
  O2-  O94  1  0.33675301  0.02612517  0.86665549  1
  O2-  O95  1  0.36600860  0.49393186  0.11548335  1
  O2-  O96  1  0.39737642  0.48009543  0.36552539  1
  O2-  O97  1  0.39627540  0.49753140  0.61685534  1
  O2-  O98  1  0.35205583  0.47689957  0.87515601  1
  O2-  O99  1  0.60700971  0.00420498  0.10138621  1
  O2-  O100  1  0.58066401  -0.01879172  0.38197486  1
  O2-  O101  1  0.63405971  0.00450738  0.62780599  1
  O2-  O102  1  0.65473257  0.01687247  0.86939620  1
  O2-  O103  1  0.58347461  0.50659867  0.12373035  1
  O2-  O104  1  0.62426815  0.50885573  0.38046298  1
  O2-  O105  1  0.61010251  0.48837409  0.61544475  1
  O2-  O106  1  0.68412901  0.47434646  0.87286654  1
  O2-  O107  1  0.85867246  -0.00471045  0.11673652  1
  O2-  O108  1  0.92631172  0.00788975  0.35153340  1
  O2-  O109  1  0.87360780  0.00317439  0.65226062  1
  O2-  O110  1  0.87270025  0.01138566  0.86340278  1
  O2-  O111  1  0.86561160  0.50358109  0.12651219  1
  O2-  O112  1  0.95183192  0.49000967  0.32922015  1
  O2-  O113  1  0.92702694  0.49812768  0.65469786  1
  O2-  O114  1  0.87608119  0.49326019  0.87740320  1
  O2-  O115  1  0.15011579  0.24869325  0.12095883  1
  O2-  O116  1  0.06957551  0.24985858  0.38699388  1
  O2-  O117  1  0.04335461  0.25170306  0.63628049  1
  O2-  O118  1  0.10630764  0.25072013  0.88533538  1
  O2-  O119  1  0.10166097  0.74975268  0.11788028  1
  O2-  O120  1  0.09347102  0.73734031  0.37066214  1
  O2-  O121  1  0.16487328  0.75025445  0.63701300  1
  O2-  O122  1  0.07955220  0.75498797  0.87672803  1
  O2-  O123  1  0.33447631  0.24841270  0.11945216  1
  O2-  O124  1  0.41284594  0.24898110  0.34628658  1
  O2-  O125  1  0.49931218  0.25588412  0.61513134  1
  O2-  O126  1  0.40373334  0.23894728  0.87117287  1
  O2-  O127  1  0.38696515  0.75142599  0.11511014  1
  O2-  O128  1  0.39961090  0.75251548  0.35594783  1
  O2-  O129  1  0.35470827  0.75147351  0.63769280  1
  O2-  O130  1  0.29309247  0.81039740  0.88001602  1
  O2-  O131  1  0.64898143  0.25578200  0.13233953  1
  O2-  O132  1  0.62627044  0.25391669  0.35425924  1
  O2-  O133  1  0.67041105  0.26265008  0.61697978  1
  O2-  O134  1  0.65323785  0.26113379  0.87204172  1
  O2-  O135  1  0.57389891  0.73263610  0.11351457  1
  O2-  O136  1  0.58558862  0.75367477  0.37269484  1
  O2-  O137  1  0.63862549  0.74685951  0.64530811  1
  O2-  O138  1  0.74954992  0.65239481  0.87041737  1
  O2-  O139  1  0.82771017  0.24695938  0.12125212  1
  O2-  O140  1  0.88143347  0.24151942  0.38067853  1
  O2-  O141  1  0.85690537  0.25379850  0.60085590  1
  O2-  O142  1  0.82844356  0.25210972  0.88346910  1
  O2-  O143  1  0.91535937  0.75103938  0.12929410  1
  O2-  O144  1  0.93163874  0.79207607  0.38463662  1
  O2-  O145  1  0.86985943  0.75258331  0.57855448  1
  O2-  O146  1  0.77041967  0.84189425  0.87054617  1
  O2-  O147  1  0.07518602  0.12656223  0.00199861  1
  O2-  O148  1  0.12008740  0.15076689  0.26182305  1
  O2-  O149  1  0.08781450  0.13425825  0.51107718  1
  O2-  O150  1  0.10960707  0.13760456  0.75253096  1
  O2-  O151  1  0.16219656  0.64250973  -0.00861557  1
  O2-  O152  1  0.09886114  0.62329323  0.24546941  1
  O2-  O153  1  0.14337584  0.63927459  0.50448430  1
  O2-  O154  1  0.15437061  0.63631815  0.76828024  1
  O2-  O155  1  0.41199835  0.12281560  0.00449180  1
  O2-  O156  1  0.33082812  0.13504438  0.24740721  1
  O2-  O157  1  0.41156511  0.14067282  0.48376616  1
  O2-  O158  1  0.46277417  0.11232940  0.75305232  1
  O2-  O159  1  0.37817254  0.62887463  -0.01843130  1
  O2-  O160  1  0.42438870  0.61886456  0.23109563  1
  O2-  O161  1  0.35902010  0.64103323  0.50074885  1
  O2-  O162  1  0.38307394  0.63733291  0.77290680  1
  O2-  O163  1  0.63234793  0.15043123  -0.00252624  1
  O2-  O164  1  0.66819548  0.11618985  0.23196702  1
  O2-  O165  1  0.61751365  0.13587967  0.50221053  1
  O2-  O166  1  0.64633968  0.14559759  0.74377921  1
  O2-  O167  1  0.64306308  0.62127191  -0.00453098  1
  O2-  O168  1  0.60950024  0.63541691  0.25239005  1
  O2-  O169  1  0.61907660  0.64709738  0.49913101  1
  O2-  O170  1  0.63921359  0.61345690  0.74827178  1
  O2-  O171  1  0.88167956  0.13274778  -0.00303940  1
  O2-  O172  1  0.85243552  0.14043860  0.25133284  1
  O2-  O173  1  0.88985139  0.11060896  0.50156576  1
  O2-  O174  1  0.85323171  0.15681438  0.74835443  1
  O2-  O175  1  0.84941977  0.65304673  -0.00121798  1
  O2-  O176  1  0.88569254  0.63587596  0.25375202  1
  O2-  O177  1  0.92275640  0.60982355  0.48195600  1
  O2-  O178  1  0.86289439  0.66363081  0.75521925  1
  O2-  O179  1  0.07560561  0.37424582  0.00741649  1
  O2-  O180  1  0.12006686  0.35342844  0.26102484  1
  O2-  O181  1  0.09746128  0.36366601  0.51365472  1
  O2-  O182  1  0.08825549  0.37116724  0.75249671  1
  O2-  O183  1  0.15556316  0.86436382  -0.00422042  1
  O2-  O184  1  0.07523633  0.87526874  0.23579031  1
  O2-  O185  1  0.12241490  0.84463752  0.50603790  1
  O2-  O186  1  0.15587412  0.86782974  0.75710488  1
  O2-  O187  1  0.41456327  0.36448350  0.00430733  1
  O2-  O188  1  0.32748857  0.36673231  0.24283871  1
  O2-  O189  1  0.40685090  0.34803269  0.48660793  1
  O2-  O190  1  0.43425674  0.37576584  0.75244069  1
  O2-  O191  1  0.37399519  0.88853065  0.00127607  1
  O2-  O192  1  0.41589726  0.87829969  0.24721685  1
  O2-  O193  1  0.38004851  0.85883514  0.49313938  1
  O2-  O194  1  0.35455008  0.88745799  0.74603366  1
  O2-  O195  1  0.61190386  0.36975444  0.00464571  1
  O2-  O196  1  0.66057377  0.38915053  0.24541342  1
  O2-  O197  1  0.59526604  0.36469975  0.49120579  1
  O2-  O198  1  0.61457665  0.36542736  0.74730387  1
  O2-  O199  1  0.61907474  0.85333141  -0.02893087  1
  O2-  O200  1  0.60683161  0.86451830  0.24697613  1
  O2-  O201  1  0.62933439  0.85795304  0.50410276  1
  O2-  O202  1  0.62362690  0.86660807  0.76187145  1
  O2-  O203  1  0.87375087  0.36583893  0.00356007  1
  O2-  O204  1  0.85272342  0.35334404  0.25373813  1
  O2-  O205  1  0.91343791  0.38359195  0.49078143  1
  O2-  O206  1  0.86755871  0.35655473  0.75403221  1
  O2-  O207  1  0.86445468  0.83926440  -0.00230505  1
  O2-  O208  1  0.87547631  0.86755953  0.24623730  1
  O2-  O209  1  0.88008776  0.90929685  0.50017147  1
  O2-  O210  1  0.87013398  0.83976022  0.74678239  1
  O2-  O211  1  -0.00216541  -0.10150157  -0.04389406  1
  O2-  O212  1  -0.01342693  0.14126852  0.15208291  1
  O2-  O213  1  0.00418196  -0.15295999  0.62762256  1
  O2-  O214  1  -0.00052376  -0.10494309  0.80222717  1
  O2-  O215  1  -0.00478917  0.61681430  -0.03917357  1
  O2-  O216  1  -0.01486751  0.33536077  0.15162353  1
  O2-  O217  1  0.01776877  0.66232834  0.63220215  1
  O2-  O218  1  -0.00366314  0.61051417  0.80719837  1
  O2-  O219  1  0.25223072  -0.14455663  0.14144622  1
  O2-  O220  1  0.24890914  -0.14710134  0.36513281  1
  O2-  O221  1  0.24538432  0.15501243  0.40006781  1
  O2-  O222  1  0.25195840  -0.10745023  0.59978343  1
  O2-  O223  1  0.25623048  0.64203263  0.13451082  1
  O2-  O224  1  0.25398537  0.63208208  0.35279287  1
  O2-  O225  1  0.24300779  0.34383360  0.39411430  1
  O2-  O226  1  0.25942736  0.60790140  0.64495853  1
  O2-  O227  1  0.48905090  -0.01159475  -0.09973858  1
  O2-  O228  1  0.49948344  0.15215811  0.16121769  1
  O2-  O229  1  0.50068658  -0.14248042  0.63886927  1
  O2-  O230  1  0.47990115  -0.16069029  0.85018168  1
  O2-  O231  1  0.52107177  0.49691701  -0.11700925  1
  O2-  O232  1  0.49358170  0.35154506  0.16905473  1
  O2-  O233  1  0.50242922  0.64211538  0.63572970  1
  O2-  O234  1  0.52813041  0.65592438  0.86546988  1
  O2-  O235  1  0.73854980  -0.15860371  0.11509585  1
  O2-  O236  1  0.75187541  -0.14757628  0.38278784  1
  O2-  O237  1  0.75227406  0.05280775  0.39240111  1
  O2-  O238  1  0.75213043  -0.13505834  0.62674772  1
  O2-  O239  1  0.74422782  0.65385665  0.13926054  1
  O2-  O240  1  0.76015720  0.65003589  0.38706318  1
  O2-  O241  1  0.75368334  0.37376941  0.40602522  1
  O2-  O242  1  0.75015989  0.61999819  0.60150088  1
