# generated using pymatgen
data_Gd19Ta56(WO20)8
_symmetry_space_group_name_H-M   'P 1'
_cell_length_a   15.54729375
_cell_length_b   15.48060727
_cell_length_c   15.27667572
_cell_angle_alpha   89.92707733
_cell_angle_beta   89.83455414
_cell_angle_gamma   90.04813725
_symmetry_Int_Tables_number   1
_chemical_formula_structural   Gd19Ta56(WO20)8
_chemical_formula_sum   'Gd19 Ta56 W8 O160'
_cell_volume   3676.79435534
_cell_formula_units_Z   1
loop_
 _symmetry_equiv_pos_site_id
 _symmetry_equiv_pos_as_xyz
  1  'x, y, z'
loop_
 _atom_type_symbol
 _atom_type_oxidation_number
  Gd3+  3.0
  Ta5+  5.0
  W6+  6.0
  O2-  -2.0
loop_
 _atom_site_type_symbol
 _atom_site_label
 _atom_site_symmetry_multiplicity
 _atom_site_fract_x
 _atom_site_fract_y
 _atom_site_fract_z
 _atom_site_occupancy
  Gd3+  Gd0  1  0.00735641  0.24162547  0.49331565  1
  Gd3+  Gd1  1  0.75310377  0.25411308  0.00967658  1
  Gd3+  Gd2  1  0.01063031  0.26993107  0.23701698  1
  Gd3+  Gd3  1  0.74879461  0.74378446  0.24081838  1
  Gd3+  Gd4  1  0.50731729  0.27956983  0.27533454  1
  Gd3+  Gd5  1  0.26233244  0.25124369  0.74685900  1
  Gd3+  Gd6  1  0.71635544  0.74264497  -0.00082610  1
  Gd3+  Gd7  1  0.00092910  0.72473693  0.25096634  1
  Gd3+  Gd8  1  0.74725686  0.70362088  0.75483827  1
  Gd3+  Gd9  1  -0.00656452  0.73592066  0.72971162  1
  Gd3+  Gd10  1  0.26812074  0.25805952  0.24995611  1
  Gd3+  Gd11  1  0.51313188  0.77320052  0.75192568  1
  Gd3+  Gd12  1  0.25160895  0.25490698  0.00147064  1
  Gd3+  Gd13  1  0.49853210  0.24633291  0.50390282  1
  Gd3+  Gd14  1  0.74730083  0.25687002  0.24966141  1
  Gd3+  Gd15  1  -0.00226431  0.74986669  -0.01680146  1
  Gd3+  Gd16  1  0.75800304  0.27291434  0.50089178  1
  Gd3+  Gd17  1  0.49881097  0.76267191  0.48794221  1
  Gd3+  Gd18  1  0.00214624  0.24069209  -0.01762050  1
  Ta5+  Ta19  1  0.58323717  0.62471637  0.88048070  1
  Ta5+  Ta20  1  0.33456639  0.84307013  0.37249659  1
  Ta5+  Ta21  1  0.15532532  0.63622144  0.61627642  1
  Ta5+  Ta22  1  0.10878010  0.11218708  0.12013439  1
  Ta5+  Ta23  1  0.87067512  0.58917803  0.63634649  1
  Ta5+  Ta24  1  0.11540707  0.88328232  0.61374050  1
  Ta5+  Ta25  1  0.62233619  0.11574437  0.37260758  1
  Ta5+  Ta26  1  0.12439684  0.11368244  0.86879391  1
  Ta5+  Ta27  1  0.83897179  0.86475648  0.63445814  1
  Ta5+  Ta28  1  0.38887703  0.38396667  0.62783125  1
  Ta5+  Ta29  1  0.38235473  0.63124055  0.62927386  1
  Ta5+  Ta30  1  0.87807234  0.37144491  0.85440743  1
  Ta5+  Ta31  1  0.13184654  0.87189126  0.85970053  1
  Ta5+  Ta32  1  0.16960133  0.65082919  0.11596290  1
  Ta5+  Ta33  1  0.89143807  0.38616462  0.62186453  1
  Ta5+  Ta34  1  0.13751420  0.11341648  0.36246533  1
  Ta5+  Ta35  1  0.83610079  0.86754194  0.86439811  1
  Ta5+  Ta36  1  0.41250011  0.62339696  0.88634425  1
  Ta5+  Ta37  1  0.15310164  0.38632579  0.61460203  1
  Ta5+  Ta38  1  0.06671644  0.88068438  0.37295767  1
  Ta5+  Ta39  1  0.85475689  0.11105417  0.40216877  1
  Ta5+  Ta40  1  0.63469361  0.13497276  0.87008976  1
  Ta5+  Ta41  1  0.85494415  0.60069027  0.89851392  1
  Ta5+  Ta42  1  0.17468250  0.65836609  0.36848203  1
  Ta5+  Ta43  1  0.11628092  0.39143910  0.86538256  1
  Ta5+  Ta44  1  0.61886735  0.38569464  0.63104856  1
  Ta5+  Ta45  1  0.62267572  0.61459060  0.62366929  1
  Ta5+  Ta46  1  0.87646314  0.11210303  0.86484803  1
  Ta5+  Ta47  1  0.38121871  0.11513199  0.62414405  1
  Ta5+  Ta48  1  0.16251104  0.63474803  0.86254110  1
  Ta5+  Ta49  1  0.64709657  0.86915778  0.37834618  1
  Ta5+  Ta50  1  0.88619024  0.38402088  0.36498863  1
  Ta5+  Ta51  1  0.67018527  0.88937147  0.86047820  1
  Ta5+  Ta52  1  0.89578244  0.86600986  0.38847608  1
  Ta5+  Ta53  1  0.40469660  0.37441699  0.87285554  1
  Ta5+  Ta54  1  0.86048308  0.62102806  0.38581661  1
  Ta5+  Ta55  1  0.87598000  0.86943888  0.11974186  1
  Ta5+  Ta56  1  0.38831544  0.10802056  0.11646742  1
  Ta5+  Ta57  1  0.90161059  0.11566748  0.12896917  1
  Ta5+  Ta58  1  0.67147193  0.87639488  0.63387923  1
  Ta5+  Ta59  1  0.12547732  0.40851496  0.09379152  1
  Ta5+  Ta60  1  0.62937832  0.12317992  0.62633752  1
  Ta5+  Ta61  1  0.12588051  0.42205917  0.41429713  1
  Ta5+  Ta62  1  0.39339955  0.11177140  0.87667082  1
  Ta5+  Ta63  1  0.34045544  0.64249133  0.37425572  1
  Ta5+  Ta64  1  0.58222744  0.63287627  0.12779148  1
  Ta5+  Ta65  1  0.34094538  0.62735851  0.12907016  1
  Ta5+  Ta66  1  0.59148422  0.13199081  0.11462149  1
  Ta5+  Ta67  1  0.36618574  0.86516722  0.89120732  1
  Ta5+  Ta68  1  0.85676497  0.61098979  0.10960135  1
  Ta5+  Ta69  1  0.35728783  0.87308665  0.62935169  1
  Ta5+  Ta70  1  0.60202590  0.38695197  0.11762240  1
  Ta5+  Ta71  1  0.61142315  0.61765362  0.37267252  1
  Ta5+  Ta72  1  0.14139709  0.12136428  0.61687026  1
  Ta5+  Ta73  1  0.63065762  0.89114196  0.12559156  1
  Ta5+  Ta74  1  0.37529741  0.09124237  0.37151934  1
  W6+  W75  1  0.91331280  0.39166031  0.10269472  1
  W6+  W76  1  0.64648931  0.41770686  0.37907924  1
  W6+  W77  1  0.65089158  0.38885009  0.87826996  1
  W6+  W78  1  0.30867511  0.86759904  0.14053632  1
  W6+  W79  1  0.87907065  0.11341086  0.61894081  1
  W6+  W80  1  0.09584050  0.87393737  0.11751156  1
  W6+  W81  1  0.32776383  0.39582118  0.40593330  1
  W6+  W82  1  0.41600399  0.42503743  0.09384698  1
  O2-  O83  1  0.14796948  0.00064238  0.12335203  1
  O2-  O84  1  0.07827388  0.01115022  0.35334962  1
  O2-  O85  1  0.09724397  0.00833781  0.63787537  1
  O2-  O86  1  0.15452579  -0.00466547  0.85681061  1
  O2-  O87  1  0.13849356  0.52774537  0.10010887  1
  O2-  O88  1  0.12382108  0.53374131  0.37667112  1
  O2-  O89  1  0.15429170  0.51407624  0.62321490  1
  O2-  O90  1  0.13530842  0.51464758  0.86841990  1
  O2-  O91  1  0.35060176  -0.00247638  0.13850449  1
  O2-  O92  1  0.36575422  -0.02686513  0.37606151  1
  O2-  O93  1  0.39523010  -0.01118440  0.61924734  1
  O2-  O94  1  0.39387388  -0.01203919  0.87693362  1
  O2-  O95  1  0.32321874  0.50780983  0.12980562  1
  O2-  O96  1  0.31549089  0.52527423  0.39831382  1
  O2-  O97  1  0.37834449  0.50620966  0.62808805  1
  O2-  O98  1  0.40392438  0.49620239  0.87446505  1
  O2-  O99  1  0.62737507  0.01765584  0.13676075  1
  O2-  O100  1  0.64485006  -0.00039615  0.37671780  1
  O2-  O101  1  0.65983978  0.00772696  0.62271036  1
  O2-  O102  1  0.66582419  0.01821606  0.86828893  1
  O2-  O103  1  0.59092436  0.51198253  0.11287840  1
  O2-  O104  1  0.55240230  0.51430167  0.37607822  1
  O2-  O105  1  0.57090289  0.50058165  0.61843324  1
  O2-  O106  1  0.60733312  0.51036669  0.89946751  1
  O2-  O107  1  0.88828222  -0.00609378  0.12761467  1
  O2-  O108  1  0.85906111  -0.00516221  0.37145270  1
  O2-  O109  1  0.85794434  -0.01751800  0.63349642  1
  O2-  O110  1  0.86139122  -0.00776315  0.87117919  1
  O2-  O111  1  0.84025890  0.49585499  0.13774959  1
  O2-  O112  1  0.88350844  0.50393445  0.34487052  1
  O2-  O113  1  0.95136732  0.49372940  0.64277229  1
  O2-  O114  1  0.82801060  0.48595392  0.86606588  1
  O2-  O115  1  0.10581421  0.24431187  0.09740509  1
  O2-  O116  1  0.07049041  0.21496727  0.36001254  1
  O2-  O117  1  0.14823005  0.25358725  0.61993903  1
  O2-  O118  1  0.12284884  0.25461307  0.88038116  1
  O2-  O119  1  0.06080796  0.73540345  0.11327586  1
  O2-  O120  1  0.11916958  0.76754320  0.38107545  1
  O2-  O121  1  0.09121832  0.75579584  0.61328428  1
  O2-  O122  1  0.07970775  0.74525515  0.85863517  1
  O2-  O123  1  0.31710439  0.21204494  0.12071231  1
  O2-  O124  1  0.49643422  0.13081486  0.35915086  1
  O2-  O125  1  0.35714843  0.24665836  0.63081009  1
  O2-  O126  1  0.34328622  0.24065906  0.87215320  1
  O2-  O127  1  0.26394414  0.73825066  0.12029288  1
  O2-  O128  1  0.41845975  0.75695615  0.35979916  1
  O2-  O129  1  0.43324695  0.76291305  0.62588053  1
  O2-  O130  1  0.43287451  0.76166390  0.88305677  1
  O2-  O131  1  0.65483712  0.25024873  0.12307984  1
  O2-  O132  1  0.59051596  0.27993138  0.39691848  1
  O2-  O133  1  0.64736619  0.25489110  0.60158875  1
  O2-  O134  1  0.68899987  0.25016123  0.87919309  1
  O2-  O135  1  0.64042959  0.75546268  0.13205057  1
  O2-  O136  1  0.59949742  0.75217295  0.37178112  1
  O2-  O137  1  0.64318988  0.74602948  0.64720451  1
  O2-  O138  1  0.63924589  0.75253411  0.85630298  1
  O2-  O139  1  0.92084790  0.24625180  0.10666967  1
  O2-  O140  1  0.89518020  0.24218014  0.39386269  1
  O2-  O141  1  0.89152331  0.25640083  0.59545244  1
  O2-  O142  1  0.90174949  0.24676026  0.86777212  1
  O2-  O143  1  0.82654996  0.74110420  0.10408172  1
  O2-  O144  1  0.91855133  0.73040427  0.38399191  1
  O2-  O145  1  0.85897727  0.72469975  0.64651809  1
  O2-  O146  1  0.83077132  0.73127319  0.88473008  1
  O2-  O147  1  0.16385238  0.12578214  -0.01207782  1
  O2-  O148  1  0.16947681  0.14435855  0.23836875  1
  O2-  O149  1  0.11580086  0.12919467  0.49520420  1
  O2-  O150  1  0.16085145  0.14039286  0.75194981  1
  O2-  O151  1  0.14520531  0.66379108  -0.01597151  1
  O2-  O152  1  0.14122459  0.65478822  0.23948202  1
  O2-  O153  1  0.18487368  0.64860075  0.49813129  1
  O2-  O154  1  0.11223602  0.63908133  0.74294901  1
  O2-  O155  1  0.34044040  0.11753289  -0.01083313  1
  O2-  O156  1  0.35612255  0.12284197  0.25443869  1
  O2-  O157  1  0.39952785  0.13364831  0.49699984  1
  O2-  O158  1  0.35441971  0.11697723  0.75538968  1
  O2-  O159  1  0.38224403  0.63467455  0.00625283  1
  O2-  O160  1  0.36628838  0.63901202  0.24984504  1
  O2-  O161  1  0.39827009  0.65040097  0.50292735  1
  O2-  O162  1  0.42479129  0.63901144  0.74749951  1
  O2-  O163  1  0.65037371  0.13942711  0.00073696  1
  O2-  O164  1  0.63042233  0.15390089  0.25015526  1
  O2-  O165  1  0.60194490  0.13368268  0.49633136  1
  O2-  O166  1  0.65121120  0.14611723  0.74575906  1
  O2-  O167  1  0.58389704  0.66656151  0.00461256  1
  O2-  O168  1  0.63161836  0.62850993  0.24569736  1
  O2-  O169  1  0.59411831  0.64344195  0.50243643  1
  O2-  O170  1  0.60442412  0.61944838  0.75023730  1
  O2-  O171  1  0.84719965  0.13339705  -0.00549813  1
  O2-  O172  1  0.84550890  0.13882920  0.24092637  1
  O2-  O173  1  0.78589864  0.12443941  0.51820917  1
  O2-  O174  1  0.84090055  0.12767956  0.75088011  1
  O2-  O175  1  0.93841897  0.61405766  0.00000328  1
  O2-  O176  1  0.86517739  0.64692635  0.23976201  1
  O2-  O177  1  0.87028537  0.59917684  0.50608353  1
  O2-  O178  1  0.89405170  0.61474417  0.77057998  1
  O2-  O179  1  0.18386492  0.38551364  -0.02729798  1
  O2-  O180  1  0.21959897  0.35680027  0.14893179  1
  O2-  O181  1  0.06225340  0.38170856  0.52544205  1
  O2-  O182  1  0.16715765  0.37402196  0.75122069  1
  O2-  O183  1  0.08366322  0.87459897  -0.02755778  1
  O2-  O184  1  0.06667621  0.86082184  0.24947368  1
  O2-  O185  1  0.11516111  0.90085464  0.49488208  1
  O2-  O186  1  0.08299771  0.86861535  0.74623620  1
  O2-  O187  1  0.35448904  0.36450890  -0.01303295  1
  O2-  O188  1  0.37991900  0.28118827  0.34754558  1
  O2-  O189  1  0.42170998  0.37349674  0.50509251  1
  O2-  O190  1  0.35189884  0.37145213  0.75567069  1
  O2-  O191  1  0.34697642  0.86533935  0.00888734  1
  O2-  O192  1  0.27329102  0.85327237  0.26863813  1
  O2-  O193  1  0.35620325  0.84831264  0.50436221  1
  O2-  O194  1  0.39057465  0.86297887  0.75115694  1
  O2-  O195  1  0.67589013  0.38406186  0.01618297  1
  O2-  O196  1  0.64314820  0.37019006  0.24149730  1
  O2-  O197  1  0.67780842  0.40167308  0.51968430  1
  O2-  O198  1  0.66576404  0.39381437  0.73963675  1
  O2-  O199  1  0.63670228  0.87992299  -0.00552331  1
  O2-  O200  1  0.61569615  0.87830215  0.25242575  1
  O2-  O201  1  0.62966311  0.86483302  0.50770159  1
  O2-  O202  1  0.59546530  0.89285158  0.74680499  1
  O2-  O203  1  0.85195007  0.36101757  -0.01830928  1
  O2-  O204  1  0.87908638  0.34344306  0.24182983  1
  O2-  O205  1  0.87663293  0.39375369  0.49443096  1
  O2-  O206  1  0.84136047  0.36501442  0.73538716  1
  O2-  O207  1  0.88709565  0.85882666  -0.00954884  1
  O2-  O208  1  0.88603603  0.83441333  0.24578042  1
  O2-  O209  1  0.87416599  0.85493848  0.50862636  1
  O2-  O210  1  0.90589788  0.84911170  0.75624513  1
  O2-  O211  1  0.00719791  0.10155462  0.04453134  1
  O2-  O212  1  0.00971837  0.12178691  0.20443874  1
  O2-  O213  1  -0.05754087  0.10821097  0.49086057  1
  O2-  O214  1  0.00440817  0.10856346  0.86538048  1
  O2-  O215  1  0.02696866  0.38343264  0.00825849  1
  O2-  O216  1  0.03305550  0.40192120  0.17845033  1
  O2-  O217  1  0.01509288  0.37810757  0.36528130  1
  O2-  O218  1  -0.00190265  0.39740518  0.83453575  1
  O2-  O219  1  0.24870989  -0.16170255  -0.14379144  1
  O2-  O220  1  0.25637012  0.12631084  0.39551378  1
  O2-  O221  1  0.25822032  0.09752836  0.60476562  1
  O2-  O222  1  0.23741298  -0.12227480  0.64258285  1
  O2-  O223  1  0.27887288  0.64285724  -0.14859997  1
  O2-  O224  1  0.20504690  0.36466030  0.33926830  1
  O2-  O225  1  0.22161593  0.39620848  0.50707700  1
  O2-  O226  1  0.26903552  0.67136276  0.65402387  1
  O2-  O227  1  0.49313777  0.08693519  0.04563712  1
  O2-  O228  1  0.48637615  0.18076873  0.17004961  1
  O2-  O229  1  0.50601113  0.13173531  0.64142834  1
  O2-  O230  1  0.51123583  0.13822869  0.86848491  1
  O2-  O231  1  0.51134992  0.33661032  0.05394231  1
  O2-  O232  1  0.48447410  0.40120189  0.20085125  1
  O2-  O233  1  0.50526595  0.33511592  0.64867573  1
  O2-  O234  1  0.51670079  0.34324462  0.86083576  1
  O2-  O235  1  0.75213475  -0.11439100  0.13331620  1
  O2-  O236  1  0.73864198  0.17037652  0.37568776  1
  O2-  O237  1  0.76099331  -0.16400612  0.36277268  1
  O2-  O238  1  0.74960245  -0.14497538  0.74945618  1
  O2-  O239  1  0.77666661  0.60584153  0.00537260  1
  O2-  O240  1  0.76336553  0.34573768  0.36980296  1
  O2-  O241  1  0.74144961  0.64122152  0.37403095  1
  O2-  O242  1  0.74381272  0.58979020  0.63911161  1
