# generated using pymatgen
data_Gd19Ta56(WO20)8
_symmetry_space_group_name_H-M   'P 1'
_cell_length_a   15.59432057
_cell_length_b   15.48028930
_cell_length_c   15.25388862
_cell_angle_alpha   89.89022242
_cell_angle_beta   90.03092327
_cell_angle_gamma   90.07127629
_symmetry_Int_Tables_number   1
_chemical_formula_structural   Gd19Ta56(WO20)8
_chemical_formula_sum   'Gd19 Ta56 W8 O160'
_cell_volume   3682.34864633
_cell_formula_units_Z   1
loop_
 _symmetry_equiv_pos_site_id
 _symmetry_equiv_pos_as_xyz
  1  'x, y, z'
loop_
 _atom_type_symbol
 _atom_type_oxidation_number
  Gd3+  3.0
  Ta5+  5.0
  W6+  6.0
  O2-  -2.0
loop_
 _atom_site_type_symbol
 _atom_site_label
 _atom_site_symmetry_multiplicity
 _atom_site_fract_x
 _atom_site_fract_y
 _atom_site_fract_z
 _atom_site_occupancy
  Gd3+  Gd0  1  0.23960119  0.24999562  0.48794107  1
  Gd3+  Gd1  1  0.51714653  0.24578317  0.50069189  1
  Gd3+  Gd2  1  0.53615785  0.75505530  0.76663276  1
  Gd3+  Gd3  1  0.75685312  0.25635007  0.23106862  1
  Gd3+  Gd4  1  0.24542500  0.73096376  0.21916880  1
  Gd3+  Gd5  1  0.76143382  0.75062185  0.73341790  1
  Gd3+  Gd6  1  0.22537784  0.76059900  0.73104956  1
  Gd3+  Gd7  1  0.50125441  0.27861189  0.25511628  1
  Gd3+  Gd8  1  -0.00522178  0.24546726  0.25085076  1
  Gd3+  Gd9  1  0.00517420  0.75863826  0.24210929  1
  Gd3+  Gd10  1  0.77188257  0.25501496  -0.05185206  1
  Gd3+  Gd11  1  -0.01407931  0.75745902  0.48813863  1
  Gd3+  Gd12  1  0.49795111  0.75108724  -0.01126952  1
  Gd3+  Gd13  1  0.50556339  0.74323969  0.52210489  1
  Gd3+  Gd14  1  0.47133089  0.24913133  0.78246732  1
  Gd3+  Gd15  1  0.75612463  0.24560549  0.53962114  1
  Gd3+  Gd16  1  0.49699174  0.72879880  0.26902299  1
  Gd3+  Gd17  1  0.00977235  0.75625467  -0.04371172  1
  Gd3+  Gd18  1  0.73089334  0.70757035  0.49834608  1
  Ta5+  Ta19  1  0.68501327  0.61840672  0.87894443  1
  Ta5+  Ta20  1  0.33277040  0.62572401  0.44189964  1
  Ta5+  Ta21  1  0.94497469  0.38658142  0.88442912  1
  Ta5+  Ta22  1  0.15528506  0.87601078  0.38169409  1
  Ta5+  Ta23  1  0.32259849  0.88686960  0.85904977  1
  Ta5+  Ta24  1  0.38238330  0.12558580  0.13168694  1
  Ta5+  Ta25  1  0.61763404  0.86584073  0.11833291  1
  Ta5+  Ta26  1  0.59768849  0.38896806  0.89017646  1
  Ta5+  Ta27  1  0.85390794  0.88441331  0.87131421  1
  Ta5+  Ta28  1  0.38432539  0.11333716  0.38395853  1
  Ta5+  Ta29  1  0.87425805  0.38018627  0.09135798  1
  Ta5+  Ta30  1  0.37935793  0.12672427  0.63680813  1
  Ta5+  Ta31  1  0.32341754  0.37103620  0.88997026  1
  Ta5+  Ta32  1  0.84998292  0.88659443  0.35864487  1
  Ta5+  Ta33  1  0.12217560  0.62693005  0.59977063  1
  Ta5+  Ta34  1  0.15039646  0.89569376  0.86204127  1
  Ta5+  Ta35  1  0.38827805  0.62240810  0.68776170  1
  Ta5+  Ta36  1  0.13542320  0.62510789  0.37192627  1
  Ta5+  Ta37  1  0.10407414  0.13067594  0.61102902  1
  Ta5+  Ta38  1  0.09542469  0.37308639  0.09887207  1
  Ta5+  Ta39  1  0.87083473  0.37413378  0.37578553  1
  Ta5+  Ta40  1  0.11038163  0.12471323  0.10106464  1
  Ta5+  Ta41  1  0.11867483  0.37942519  0.35681025  1
  Ta5+  Ta42  1  0.61380850  0.57043855  0.63828942  1
  Ta5+  Ta43  1  0.11854110  0.37065826  0.86550358  1
  Ta5+  Ta44  1  0.32625240  0.62379711  0.88641064  1
  Ta5+  Ta45  1  0.68411825  0.88398088  0.87905637  1
  Ta5+  Ta46  1  0.10474760  0.88327196  0.60790502  1
  Ta5+  Ta47  1  0.90545700  0.37701171  0.63609732  1
  Ta5+  Ta48  1  0.90483580  0.11971029  0.42642362  1
  Ta5+  Ta49  1  0.59868740  0.12944748  0.65348187  1
  Ta5+  Ta50  1  0.39641474  0.88238746  0.65855891  1
  Ta5+  Ta51  1  0.64078337  0.62595803  0.12075402  1
  Ta5+  Ta52  1  0.13255703  0.11750432  0.35458459  1
  Ta5+  Ta53  1  0.35948970  0.38042582  0.13457350  1
  Ta5+  Ta54  1  0.59398878  0.39285348  0.08880230  1
  Ta5+  Ta55  1  0.35475029  0.62360131  0.09229910  1
  Ta5+  Ta56  1  0.63593279  0.39546590  0.39652281  1
  Ta5+  Ta57  1  0.87517483  0.89552657  0.61319059  1
  Ta5+  Ta58  1  0.64475214  0.87218031  0.36390828  1
  Ta5+  Ta59  1  0.93443704  0.13343399  0.63293495  1
  Ta5+  Ta60  1  0.60814640  0.38326401  0.65100636  1
  Ta5+  Ta61  1  0.38184993  0.88057130  0.13758963  1
  Ta5+  Ta62  1  0.85485542  0.87067848  0.12367037  1
  Ta5+  Ta63  1  0.13519541  0.88246169  0.10744301  1
  Ta5+  Ta64  1  0.32566970  0.12736464  0.89173908  1
  Ta5+  Ta65  1  0.86249563  0.62061073  0.35499009  1
  Ta5+  Ta66  1  0.15539374  0.61767627  0.85729608  1
  Ta5+  Ta67  1  0.87429947  0.11083324  0.10120401  1
  Ta5+  Ta68  1  0.88115744  0.61636239  0.62130337  1
  Ta5+  Ta69  1  0.85460611  0.61927072  0.87662160  1
  Ta5+  Ta70  1  0.16404690  0.13557170  0.85140785  1
  Ta5+  Ta71  1  0.61114525  0.10758238  0.13657634  1
  Ta5+  Ta72  1  0.38838882  0.39073237  0.39210161  1
  Ta5+  Ta73  1  0.13081046  0.38346221  0.61338618  1
  Ta5+  Ta74  1  0.63638809  0.89194902  0.61538032  1
  W6+  W75  1  0.61804699  0.12232481  0.35603164  1
  W6+  W76  1  0.36307397  0.37943466  0.63967847  1
  W6+  W77  1  0.88213477  0.62036430  0.11631931  1
  W6+  W78  1  0.92388862  0.12593309  0.87066801  1
  W6+  W79  1  0.10230879  0.62252514  0.09999281  1
  W6+  W80  1  0.61350582  0.58614455  0.37183807  1
  W6+  W81  1  0.61362225  0.12493159  0.89612896  1
  W6+  W82  1  0.35598575  0.86444671  0.40431133  1
  O2-  O83  1  0.14397772  0.00429275  0.11454993  1
  O2-  O84  1  0.14408405  -0.00482518  0.34760180  1
  O2-  O85  1  0.10614008  0.00278233  0.60220792  1
  O2-  O86  1  0.12805892  0.01445085  0.85893888  1
  O2-  O87  1  0.10139125  0.49094470  0.11595250  1
  O2-  O88  1  0.12444704  0.50445828  0.34833178  1
  O2-  O89  1  0.14967231  0.50913342  0.60701499  1
  O2-  O90  1  0.14339326  0.49901307  0.85923373  1
  O2-  O91  1  0.35816587  0.00012297  0.14759880  1
  O2-  O92  1  0.35819352  -0.00112084  0.38827665  1
  O2-  O93  1  0.40206278  0.00490070  0.63620899  1
  O2-  O94  1  0.34622924  0.00540009  0.89243074  1
  O2-  O95  1  0.35019671  0.50423347  0.11938669  1
  O2-  O96  1  0.37124311  0.51893750  0.40130150  1
  O2-  O97  1  0.36262459  0.50817007  0.66239964  1
  O2-  O98  1  0.33133463  0.49176759  0.89212454  1
  O2-  O99  1  0.63307299  -0.01119907  0.13020949  1
  O2-  O100  1  0.61739547  -0.01354634  0.36520607  1
  O2-  O101  1  0.59688539  0.00553407  0.62652682  1
  O2-  O102  1  0.66004919  -0.00076665  0.89366231  1
  O2-  O103  1  0.64288648  0.49979568  0.11180354  1
  O2-  O104  1  0.59470296  0.45721976  0.30123392  1
  O2-  O105  1  0.53375293  0.47602885  0.60776696  1
  O2-  O106  1  0.66081942  0.49414615  0.88417801  1
  O2-  O107  1  0.83699930  -0.00019194  0.12636939  1
  O2-  O108  1  0.86947447  0.01250883  0.37652643  1
  O2-  O109  1  0.91562114  0.00635421  0.62619057  1
  O2-  O110  1  0.89667499  -0.00299571  0.86649511  1
  O2-  O111  1  0.84533707  0.48955473  0.12622008  1
  O2-  O112  1  0.87078961  0.49467892  0.36459359  1
  O2-  O113  1  0.86751740  0.49564000  0.61353725  1
  O2-  O114  1  0.91157048  0.50861345  0.87950877  1
  O2-  O115  1  0.05596353  0.24451970  0.11681462  1
  O2-  O116  1  0.14891990  0.25017286  0.36608678  1
  O2-  O117  1  0.13311690  0.25668371  0.59004254  1
  O2-  O118  1  0.11332444  0.24678471  0.85359830  1
  O2-  O119  1  0.08434124  0.76019967  0.09673586  1
  O2-  O120  1  0.09894703  0.75512587  0.37600858  1
  O2-  O121  1  0.14852414  0.75612402  0.59423218  1
  O2-  O122  1  0.13483872  0.76076035  0.86518470  1
  O2-  O123  1  0.39307338  0.25155999  0.15143209  1
  O2-  O124  1  0.40675423  0.25861943  0.38388496  1
  O2-  O125  1  0.41156470  0.25148396  0.62253436  1
  O2-  O126  1  0.37630278  0.24682506  0.89877488  1
  O2-  O127  1  0.38350981  0.76184711  0.07986616  1
  O2-  O128  1  0.40159697  0.72366896  0.39970799  1
  O2-  O129  1  0.36155339  0.75167801  0.67409372  1
  O2-  O130  1  0.32467181  0.75976199  0.88029725  1
  O2-  O131  1  0.62659543  0.30057723  0.17061858  1
  O2-  O132  1  0.60327439  0.26365921  0.36478457  1
  O2-  O133  1  0.58380400  0.25884798  0.66617340  1
  O2-  O134  1  0.57919343  0.26113582  0.88351565  1
  O2-  O135  1  0.56797416  0.73951241  0.12039516  1
  O2-  O136  1  0.59221446  0.73614691  0.38947542  1
  O2-  O137  1  0.66615814  0.76016880  0.61859865  1
  O2-  O138  1  0.66382876  0.74781037  0.85661880  1
  O2-  O139  1  0.81881005  0.25938386  0.09253384  1
  O2-  O140  1  0.86893221  0.22874213  0.38036783  1
  O2-  O141  1  0.87723903  0.25348466  0.63013185  1
  O2-  O142  1  0.91502141  0.25990442  0.89311294  1
  O2-  O143  1  0.90545025  0.75744319  0.13355787  1
  O2-  O144  1  0.90198284  0.75551570  0.35994238  1
  O2-  O145  1  0.84314735  0.74417217  0.60290129  1
  O2-  O146  1  0.88349620  0.75479054  0.85839454  1
  O2-  O147  1  0.14880950  0.14062840  -0.01082880  1
  O2-  O148  1  0.14805469  0.14018171  0.22750159  1
  O2-  O149  1  0.16147281  0.12174215  0.47819994  1
  O2-  O150  1  0.15582137  0.13154715  0.71964261  1
  O2-  O151  1  0.08635008  0.63046296  -0.03641095  1
  O2-  O152  1  0.11612439  0.65316599  0.24384414  1
  O2-  O153  1  0.05822320  0.62384551  0.47359584  1
  O2-  O154  1  0.12579138  0.64276500  0.72725412  1
  O2-  O155  1  0.32050931  0.13353351  0.02909334  1
  O2-  O156  1  0.35132543  0.13205444  0.26426751  1
  O2-  O157  1  0.34178898  0.14002895  0.50437466  1
  O2-  O158  1  0.35930073  0.13565049  0.75906878  1
  O2-  O159  1  0.42357428  0.62353981  -0.01362426  1
  O2-  O160  1  0.37936069  0.65729901  0.21146750  1
  O2-  O161  1  0.39037923  0.63945698  0.54922993  1
  O2-  O162  1  0.44091812  0.64073678  0.80449186  1
  O2-  O163  1  0.66064041  0.15445449  0.03520425  1
  O2-  O164  1  0.69553963  0.12682870  0.23161932  1
  O2-  O165  1  0.63719042  0.15855182  0.52895497  1
  O2-  O166  1  0.55688760  0.11889130  0.77141744  1
  O2-  O167  1  0.61921407  0.64121379  -0.00564968  1
  O2-  O168  1  0.58937717  0.62053233  0.23598474  1
  O2-  O169  1  0.61283230  0.62020475  0.52031749  1
  O2-  O170  1  0.65777286  0.62266798  0.74605868  1
  O2-  O171  1  0.84187685  0.12689005  -0.01834407  1
  O2-  O172  1  0.87953372  0.16216275  0.21430574  1
  O2-  O173  1  0.83109007  0.12041546  0.52561514  1
  O2-  O174  1  0.96810662  0.14398503  0.74904664  1
  O2-  O175  1  0.89941621  0.65331104  -0.00903987  1
  O2-  O176  1  0.93017272  0.62183037  0.25229767  1
  O2-  O177  1  0.87192384  0.63226555  0.48305830  1
  O2-  O178  1  0.84983586  0.62432206  0.74150527  1
  O2-  O179  1  0.15261917  0.35694315  -0.00621158  1
  O2-  O180  1  0.12006064  0.35508155  0.23116328  1
  O2-  O181  1  0.16109369  0.38299556  0.47477240  1
  O2-  O182  1  0.12930375  0.37494651  0.73300700  1
  O2-  O183  1  0.09504962  0.88569223  -0.01482572  1
  O2-  O184  1  0.10631946  0.86550305  0.23170913  1
  O2-  O185  1  0.06838101  0.87942687  0.47839092  1
  O2-  O186  1  0.12220294  0.87716112  0.73386307  1
  O2-  O187  1  0.32535982  0.35788127  0.02080694  1
  O2-  O188  1  0.34914907  0.38460581  0.27194944  1
  O2-  O189  1  0.33414755  0.37021938  0.50107088  1
  O2-  O190  1  0.36864112  0.35940876  0.77322357  1
  O2-  O191  1  0.49341177  0.89218690  0.08648205  1
  O2-  O192  1  0.41198818  0.85207720  0.25218365  1
  O2-  O193  1  0.40460305  0.85463954  0.53193614  1
  O2-  O194  1  0.44111538  0.87034966  0.78482866  1
  O2-  O195  1  0.67006695  0.34934189  0.00024311  1
  O2-  O196  1  0.74941106  0.35340306  0.34712305  1
  O2-  O197  1  0.64005848  0.34180048  0.52497630  1
  O2-  O198  1  0.55783826  0.39350189  0.77034486  1
  O2-  O199  1  0.62872472  0.84599112  -0.00600317  1
  O2-  O200  1  0.59483930  0.84367267  0.24916193  1
  O2-  O201  1  0.60182336  0.86803138  0.49306333  1
  O2-  O202  1  0.65655090  0.87427193  0.74784922  1
  O2-  O203  1  0.83512904  0.38617775  -0.02884226  1
  O2-  O204  1  0.88648752  0.34500200  0.23311273  1
  O2-  O205  1  0.85190679  0.36158690  0.49743378  1
  O2-  O206  1  0.92624347  0.38205163  0.75562934  1
  O2-  O207  1  0.88432463  0.87057302  0.00358280  1
  O2-  O208  1  0.91406359  0.88526402  0.24634730  1
  O2-  O209  1  0.89364725  0.87779475  0.48294467  1
  O2-  O210  1  0.84887763  0.87313879  0.73553212  1
  O2-  O211  1  -0.00770395  0.08660759  0.09048157  1
  O2-  O212  1  0.01152142  0.12610216  0.34314000  1
  O2-  O213  1  -0.00415698  0.14314478  0.51268145  1
  O2-  O214  1  -0.01019655  -0.16429879  0.62392795  1
  O2-  O215  1  -0.01683919  0.38348442  0.03268964  1
  O2-  O216  1  -0.00157151  0.35535894  0.37053907  1
  O2-  O217  1  0.01157237  0.38779926  0.57866882  1
  O2-  O218  1  -0.00199951  0.64207057  0.62206915  1
  O2-  O219  1  0.25299279  -0.14431450  0.12065747  1
  O2-  O220  1  0.25430294  -0.16096371  0.31469058  1
  O2-  O221  1  0.23400141  -0.11969507  0.47420952  1
  O2-  O222  1  0.29153122  -0.09865548  0.72836547  1
  O2-  O223  1  0.23642362  0.64821982  0.09223035  1
  O2-  O224  1  0.25449448  0.64837846  0.33855514  1
  O2-  O225  1  0.21674310  0.62406522  0.49135795  1
  O2-  O226  1  0.28040695  0.62307541  0.76478583  1
  O2-  O227  1  0.49298039  0.10768478  0.08541013  1
  O2-  O228  1  0.53386255  0.13891150  0.23956343  1
  O2-  O229  1  0.50012678  0.11779073  0.42367030  1
  O2-  O230  1  0.52007388  -0.16328886  0.64453809  1
  O2-  O231  1  0.51954649  0.41360423  -0.01277190  1
  O2-  O232  1  0.48409677  0.39346555  0.15446491  1
  O2-  O233  1  0.50459448  0.39091416  0.43110297  1
  O2-  O234  1  0.51327717  0.65612556  0.65532081  1
  O2-  O235  1  0.73982492  -0.15998327  0.12703643  1
  O2-  O236  1  0.74952069  -0.09276351  0.29029124  1
  O2-  O237  1  0.75101260  -0.17587158  0.42055566  1
  O2-  O238  1  0.75466031  -0.08337212  0.59052091  1
  O2-  O239  1  0.75142534  0.65326270  0.14068711  1
  O2-  O240  1  0.74703779  0.64201574  0.34892099  1
  O2-  O241  1  0.68931969  0.49395804  0.44104867  1
  O2-  O242  1  0.69493610  0.47328125  0.65599146  1
