# generated using pymatgen
data_Gd19Ta56(WO20)8
_symmetry_space_group_name_H-M   'P 1'
_cell_length_a   15.69336988
_cell_length_b   15.41571721
_cell_length_c   15.01312039
_cell_angle_alpha   90.21169785
_cell_angle_beta   90.17224472
_cell_angle_gamma   90.09976659
_symmetry_Int_Tables_number   1
_chemical_formula_structural   Gd19Ta56(WO20)8
_chemical_formula_sum   'Gd19 Ta56 W8 O160'
_cell_volume   3631.99564672
_cell_formula_units_Z   1
loop_
 _symmetry_equiv_pos_site_id
 _symmetry_equiv_pos_as_xyz
  1  'x, y, z'
loop_
 _atom_type_symbol
 _atom_type_oxidation_number
  Gd3+  3.0
  Ta5+  5.0
  W6+  6.0
  O2-  -2.0
loop_
 _atom_site_type_symbol
 _atom_site_label
 _atom_site_symmetry_multiplicity
 _atom_site_fract_x
 _atom_site_fract_y
 _atom_site_fract_z
 _atom_site_occupancy
  Gd3+  Gd0  1  -0.03944558  0.74599762  0.24684552  1
  Gd3+  Gd1  1  0.52981596  0.75379052  0.02754104  1
  Gd3+  Gd2  1  0.51395759  0.26481127  0.73045452  1
  Gd3+  Gd3  1  0.24881688  0.74996224  0.75083105  1
  Gd3+  Gd4  1  0.47812174  0.23133837  0.49794155  1
  Gd3+  Gd5  1  0.24667520  0.25674730  0.24266206  1
  Gd3+  Gd6  1  0.71362739  0.70732261  0.46570556  1
  Gd3+  Gd7  1  0.25645151  0.71520912  0.46612378  1
  Gd3+  Gd8  1  0.29484902  0.25847110  0.73894490  1
  Gd3+  Gd9  1  0.24588000  0.23330585  0.48494726  1
  Gd3+  Gd10  1  0.28935719  0.73460505  0.04568951  1
  Gd3+  Gd11  1  0.74864819  0.73999054  0.74357053  1
  Gd3+  Gd12  1  0.52138528  0.25600156  -0.03559635  1
  Gd3+  Gd13  1  0.50802958  0.25751860  0.23577853  1
  Gd3+  Gd14  1  0.01489130  0.23967871  0.75698901  1
  Gd3+  Gd15  1  -0.05386078  0.76521792  0.50320653  1
  Gd3+  Gd16  1  0.69878824  0.26017717  0.45806988  1
  Gd3+  Gd17  1  0.02675696  0.25258357  0.03806996  1
  Gd3+  Gd18  1  -0.01144845  0.23805107  0.51270833  1
  Ta5+  Ta19  1  0.12621611  0.62260991  0.88792940  1
  Ta5+  Ta20  1  0.11640457  0.64487653  0.14735355  1
  Ta5+  Ta21  1  0.05073815  0.61757178  0.40279667  1
  Ta5+  Ta22  1  0.37938394  0.43975070  0.61310645  1
  Ta5+  Ta23  1  0.14858372  0.37455706  0.88318760  1
  Ta5+  Ta24  1  0.88905901  0.37211314  0.88993098  1
  Ta5+  Ta25  1  0.86320068  0.11471685  0.39576201  1
  Ta5+  Ta26  1  0.65821510  0.12022145  0.84123590  1
  Ta5+  Ta27  1  0.66236702  0.38740630  0.84565749  1
  Ta5+  Ta28  1  0.13954789  0.37574724  0.62141769  1
  Ta5+  Ta29  1  0.87835348  0.37841854  0.39589154  1
  Ta5+  Ta30  1  0.60421823  0.62118308  0.86744645  1
  Ta5+  Ta31  1  0.07975625  0.87781005  0.67270347  1
  Ta5+  Ta32  1  0.40892344  0.84952188  0.62021913  1
  Ta5+  Ta33  1  0.38742615  0.05651825  0.34782445  1
  Ta5+  Ta34  1  0.10846864  0.86488191  0.37792007  1
  Ta5+  Ta35  1  0.88236932  0.12306246  0.89386728  1
  Ta5+  Ta36  1  0.60149526  0.09477334  0.35689875  1
  Ta5+  Ta37  1  0.38116718  0.41686001  0.36757737  1
  Ta5+  Ta38  1  0.63327096  0.11589737  0.61787826  1
  Ta5+  Ta39  1  0.12565790  0.86986371  0.90265528  1
  Ta5+  Ta40  1  0.16693394  0.40358138  0.11801973  1
  Ta5+  Ta41  1  0.83479724  0.61632718  0.13224707  1
  Ta5+  Ta42  1  0.16682667  0.07664979  0.12214006  1
  Ta5+  Ta43  1  0.88818174  0.62222046  0.88165029  1
  Ta5+  Ta44  1  0.36492968  0.12087908  0.11708298  1
  Ta5+  Ta45  1  0.38386889  0.09059727  0.63214624  1
  Ta5+  Ta46  1  0.10136548  0.37769356  0.36532247  1
  Ta5+  Ta47  1  0.83861856  0.12801017  0.64914041  1
  Ta5+  Ta48  1  0.67220314  0.87483881  0.11862120  1
  Ta5+  Ta49  1  0.60129991  0.88012922  0.86269798  1
  Ta5+  Ta50  1  0.65186763  0.39884336  0.61879287  1
  Ta5+  Ta51  1  0.42498392  0.62421884  0.15968272  1
  Ta5+  Ta52  1  0.82795703  0.87115520  0.37461369  1
  Ta5+  Ta53  1  0.36458256  0.10778886  0.88475450  1
  Ta5+  Ta54  1  0.38502318  0.61964555  0.88014648  1
  Ta5+  Ta55  1  0.38952686  0.63514565  0.61541655  1
  Ta5+  Ta56  1  0.56851602  0.63129138  0.34122349  1
  Ta5+  Ta57  1  0.66303953  0.86538230  0.34045046  1
  Ta5+  Ta58  1  0.85453801  0.37334596  0.64344457  1
  Ta5+  Ta59  1  0.83755310  0.87308851  0.12869469  1
  Ta5+  Ta60  1  0.36899986  0.86600255  0.36679273  1
  Ta5+  Ta61  1  0.40391006  0.62214828  0.35198610  1
  Ta5+  Ta62  1  0.87668437  0.88499636  0.64702103  1
  Ta5+  Ta63  1  0.88587875  0.60616785  0.38599088  1
  Ta5+  Ta64  1  0.86168863  0.36965969  0.14065145  1
  Ta5+  Ta65  1  0.10270491  0.62180060  0.63472007  1
  Ta5+  Ta66  1  0.89316936  0.61662405  0.63978026  1
  Ta5+  Ta67  1  0.89116276  0.87296516  0.87806140  1
  Ta5+  Ta68  1  0.66976433  0.62132017  0.11786531  1
  Ta5+  Ta69  1  0.10157272  0.11260926  0.35634493  1
  Ta5+  Ta70  1  0.60115789  0.44154144  0.36151674  1
  Ta5+  Ta71  1  0.63831387  0.12340747  0.09887200  1
  Ta5+  Ta72  1  0.36963209  0.39319893  0.11892726  1
  Ta5+  Ta73  1  0.86582217  0.12534369  0.14159983  1
  Ta5+  Ta74  1  0.11508619  0.83156746  0.12721798  1
  W6+  W75  1  0.42004352  0.87928793  0.15480852  1
  W6+  W76  1  0.38425257  0.85752885  0.88300862  1
  W6+  W77  1  0.57968845  0.63034571  0.61294056  1
  W6+  W78  1  0.62602383  0.38825636  0.10555664  1
  W6+  W79  1  0.12843764  0.10475014  0.62234842  1
  W6+  W80  1  0.39088933  0.39531935  0.87856571  1
  W6+  W81  1  0.13226342  0.11730309  0.89294996  1
  W6+  W82  1  0.64248795  0.86399669  0.60515581  1
  O2-  O83  1  0.15355969  -0.04051427  0.12812902  1
  O2-  O84  1  0.10273160  -0.00927892  0.36541237  1
  O2-  O85  1  0.13780031  -0.03078701  0.62110081  1
  O2-  O86  1  0.14787794  -0.01405956  0.91756278  1
  O2-  O87  1  0.13294105  0.52035636  0.12931209  1
  O2-  O88  1  0.07995769  0.49233974  0.39675509  1
  O2-  O89  1  0.11047545  0.49227826  0.62312646  1
  O2-  O90  1  0.13476020  0.49673305  0.87291400  1
  O2-  O91  1  0.40484272  0.00970550  0.11798139  1
  O2-  O92  1  0.29817916  -0.02151869  0.37613253  1
  O2-  O93  1  0.36081297  -0.02619462  0.60993285  1
  O2-  O94  1  0.34493929  -0.00580683  0.90360169  1
  O2-  O95  1  0.42465122  0.50033322  0.11884167  1
  O2-  O96  1  0.31444791  0.51205134  0.38108466  1
  O2-  O97  1  0.30248038  0.53137426  0.61412078  1
  O2-  O98  1  0.32543019  0.51978215  0.89501014  1
  O2-  O99  1  0.65035181  0.00571212  0.09311697  1
  O2-  O100  1  0.67096380  -0.00039781  0.35532984  1
  O2-  O101  1  0.65529759  0.00189561  0.61265951  1
  O2-  O102  1  0.65610852  -0.00021777  0.85475196  1
  O2-  O103  1  0.68389370  0.50298871  0.08466184  1
  O2-  O104  1  0.67049951  0.53541957  0.36891661  1
  O2-  O105  1  0.65823308  0.51586696  0.60750837  1
  O2-  O106  1  0.66845364  0.50982591  0.85621261  1
  O2-  O107  1  0.86245536  0.00499122  0.12931324  1
  O2-  O108  1  0.84592919  -0.00315178  0.39588660  1
  O2-  O109  1  0.85131433  0.00578022  0.64303924  1
  O2-  O110  1  0.89271227  0.00232958  0.88439536  1
  O2-  O111  1  0.86990735  0.49074526  0.12429395  1
  O2-  O112  1  0.84077966  0.49034993  0.41469051  1
  O2-  O113  1  0.87098935  0.49431803  0.63480612  1
  O2-  O114  1  0.89884538  0.49305393  0.88123478  1
  O2-  O115  1  0.15471078  0.27296389  0.12386304  1
  O2-  O116  1  0.14916889  0.24011833  0.35371159  1
  O2-  O117  1  0.09358285  0.24860684  0.61847358  1
  O2-  O118  1  0.09933364  0.25583684  0.89287142  1
  O2-  O119  1  0.03625355  0.73540873  0.09808519  1
  O2-  O120  1  0.05313004  0.75375225  0.40238147  1
  O2-  O121  1  0.10649335  0.75760879  0.64672612  1
  O2-  O122  1  0.13972897  0.74324867  0.86074137  1
  O2-  O123  1  0.36563276  0.25421710  0.14212632  1
  O2-  O124  1  0.30807419  0.31534033  0.37398112  1
  O2-  O125  1  0.40358705  0.23198622  0.63452865  1
  O2-  O126  1  0.41833491  0.24900367  0.84628433  1
  O2-  O127  1  0.45508575  0.74761874  0.16546554  1
  O2-  O128  1  0.34392062  0.74807914  0.34278997  1
  O2-  O129  1  0.30484180  0.74087456  0.60856188  1
  O2-  O130  1  0.31550492  0.73097182  0.89382069  1
  O2-  O131  1  0.57861316  0.24906210  0.10467328  1
  O2-  O132  1  0.56019999  0.22884833  0.37077339  1
  O2-  O133  1  0.59584841  0.26630523  0.60056566  1
  O2-  O134  1  0.62411389  0.25478614  0.83828630  1
  O2-  O135  1  0.64722069  0.75182259  0.12589633  1
  O2-  O136  1  0.62590535  0.74212780  0.32914949  1
  O2-  O137  1  0.67935853  0.72982272  0.60680927  1
  O2-  O138  1  0.55570446  0.75069459  0.87438363  1
  O2-  O139  1  0.92356233  0.24881450  0.14802683  1
  O2-  O140  1  0.83649311  0.24968127  0.41284573  1
  O2-  O141  1  0.89750717  0.24689105  0.64166313  1
  O2-  O142  1  0.93291373  0.24700068  0.88771646  1
  O2-  O143  1  0.85463949  0.74380507  0.13468941  1
  O2-  O144  1  0.85317285  0.73910385  0.37826106  1
  O2-  O145  1  0.88181815  0.74903521  0.65276724  1
  O2-  O146  1  0.87539608  0.74616069  0.85783729  1
  O2-  O147  1  0.09222667  0.12054436  0.03404406  1
  O2-  O148  1  0.10097167  0.11627579  0.22649022  1
  O2-  O149  1  0.14719801  0.12540537  0.47875071  1
  O2-  O150  1  0.10296468  0.12402422  0.75777134  1
  O2-  O151  1  0.17023824  0.63805976  0.00530830  1
  O2-  O152  1  0.08273919  0.63913148  0.26745341  1
  O2-  O153  1  0.15022085  0.63277016  0.51438872  1
  O2-  O154  1  0.16766579  0.62081474  0.74931317  1
  O2-  O155  1  0.42052344  0.14730941  -0.00372877  1
  O2-  O156  1  0.41856660  0.13464778  0.24964960  1
  O2-  O157  1  0.36291368  0.14802270  0.44008597  1
  O2-  O158  1  0.39813653  0.09479451  0.75816877  1
  O2-  O159  1  0.41436334  0.64733920  0.01482634  1
  O2-  O160  1  0.33547736  0.61219709  0.23750683  1
  O2-  O161  1  0.38525129  0.63760969  0.48732635  1
  O2-  O162  1  0.37030882  0.64023081  0.75345153  1
  O2-  O163  1  0.61015142  0.13483117  -0.03085564  1
  O2-  O164  1  0.60472958  0.12779028  0.22734409  1
  O2-  O165  1  0.62681187  0.13067407  0.48136247  1
  O2-  O166  1  0.57501273  0.12792844  0.73742655  1
  O2-  O167  1  0.63726549  0.64818897  -0.01345721  1
  O2-  O168  1  0.60510742  0.59786684  0.22136932  1
  O2-  O169  1  0.58267338  0.64355119  0.47531326  1
  O2-  O170  1  0.63049649  0.64797911  0.74833235  1
  O2-  O171  1  0.91795633  0.13625227  0.01664431  1
  O2-  O172  1  0.85031245  0.13028864  0.26675787  1
  O2-  O173  1  0.89804051  0.12241708  0.52731621  1
  O2-  O174  1  0.90457031  0.13373617  0.76283026  1
  O2-  O175  1  0.83811971  0.62432839  -0.00792907  1
  O2-  O176  1  0.86620228  0.61207388  0.25872311  1
  O2-  O177  1  0.83785620  0.64093150  0.52043700  1
  O2-  O178  1  0.82965532  0.61312356  0.76068282  1
  O2-  O179  1  0.09863656  0.38433315  0.00455118  1
  O2-  O180  1  0.10710267  0.38671032  0.24159170  1
  O2-  O181  1  0.14600999  0.35252304  0.49048457  1
  O2-  O182  1  0.11914378  0.35881155  0.75324586  1
  O2-  O183  1  0.18462614  0.83010768  0.00818028  1
  O2-  O184  1  0.08642016  0.84215286  0.25269960  1
  O2-  O185  1  0.19877977  0.84569737  0.45557588  1
  O2-  O186  1  0.16231089  0.87741097  0.77456118  1
  O2-  O187  1  0.42627645  0.35687432  0.01089132  1
  O2-  O188  1  0.42377848  0.38058536  0.25002495  1
  O2-  O189  1  0.41287033  0.38423982  0.50076109  1
  O2-  O190  1  0.39383961  0.39039749  0.72769644  1
  O2-  O191  1  0.39893326  0.83520992  0.02083614  1
  O2-  O192  1  0.43262783  0.93970858  0.28359575  1
  O2-  O193  1  0.38833303  0.84346190  0.48994583  1
  O2-  O194  1  0.36505394  0.84466455  0.74029119  1
  O2-  O195  1  0.61003847  0.37753638  -0.04076846  1
  O2-  O196  1  0.60910839  0.38077941  0.25086986  1
  O2-  O197  1  0.60880191  0.38826204  0.48013314  1
  O2-  O198  1  0.58644519  0.39320638  0.73492734  1
  O2-  O199  1  0.63513855  0.86249218  -0.01510406  1
  O2-  O200  1  0.61394882  0.89534025  0.22719329  1
  O2-  O201  1  0.64790843  0.84753313  0.46917514  1
  O2-  O202  1  0.64515391  0.84698258  0.75019332  1
  O2-  O203  1  0.91854165  0.36069735  0.01474080  1
  O2-  O204  1  0.86446700  0.37369572  0.26842338  1
  O2-  O205  1  0.92288892  0.36767637  0.52842887  1
  O2-  O206  1  0.91933155  0.36512443  0.75923913  1
  O2-  O207  1  0.83994697  0.86879961  -0.01014928  1
  O2-  O208  1  0.87851230  0.87359230  0.25608019  1
  O2-  O209  1  0.83046879  0.85952675  0.52179192  1
  O2-  O210  1  0.81718981  0.87630535  0.76594331  1
  O2-  O211  1  0.00752316  -0.14140871  -0.08002679  1
  O2-  O212  1  -0.01216951  0.14021902  0.37975348  1
  O2-  O213  1  -0.01167040  -0.11553274  0.57876981  1
  O2-  O214  1  -0.02228640  -0.11116879  0.74660819  1
  O2-  O215  1  0.00816925  0.63007759  -0.09497861  1
  O2-  O216  1  -0.00503242  0.32098564  0.38040760  1
  O2-  O217  1  -0.00352164  0.62643075  0.54628413  1
  O2-  O218  1  -0.00230748  0.61417991  0.71065464  1
  O2-  O219  1  0.26480153  0.10665482  0.03973509  1
  O2-  O220  1  0.26337457  0.11231361  0.20519774  1
  O2-  O221  1  0.26914572  0.14137195  0.62135114  1
  O2-  O222  1  0.26114877  0.16005939  0.85310858  1
  O2-  O223  1  0.26704252  0.40860854  0.04070620  1
  O2-  O224  1  0.26723733  0.39726048  0.20368630  1
  O2-  O225  1  0.26263030  0.35282525  0.61866217  1
  O2-  O226  1  0.26110501  0.34766615  0.85966514  1
  O2-  O227  1  0.49601392  -0.06989108  -0.14230357  1
  O2-  O228  1  0.49783342  0.04817552  0.40033892  1
  O2-  O229  1  0.49887441  0.10687988  0.58530790  1
  O2-  O230  1  0.51445752  -0.10235041  0.62936896  1
  O2-  O231  1  0.49673607  0.56682282  -0.13154681  1
  O2-  O232  1  0.49017421  0.50263877  0.37614002  1
  O2-  O233  1  0.47088710  0.52879311  0.62017554  1
  O2-  O234  1  0.47352477  0.72847770  0.62538131  1
  O2-  O235  1  0.76701237  0.14842473  -0.10078597  1
  O2-  O236  1  0.75362286  0.15664155  0.10347569  1
  O2-  O237  1  0.74326140  0.17470514  0.57863341  1
  O2-  O238  1  0.73368415  0.12091184  0.72859994  1
  O2-  O239  1  0.77256559  0.35151674  -0.10933983  1
  O2-  O240  1  0.75329140  0.33873205  0.11400460  1
  O2-  O241  1  0.75630965  0.35566983  0.55717915  1
  O2-  O242  1  0.74435780  0.37971434  0.71732511  1
