# generated using pymatgen
data_Gd19Ta56(WO20)8
_symmetry_space_group_name_H-M   'P 1'
_cell_length_a   15.57816756
_cell_length_b   15.36537474
_cell_length_c   15.06406872
_cell_angle_alpha   89.64099005
_cell_angle_beta   90.18845793
_cell_angle_gamma   89.90354633
_symmetry_Int_Tables_number   1
_chemical_formula_structural   Gd19Ta56(WO20)8
_chemical_formula_sum   'Gd19 Ta56 W8 O160'
_cell_volume   3605.70597732
_cell_formula_units_Z   1
loop_
 _symmetry_equiv_pos_site_id
 _symmetry_equiv_pos_as_xyz
  1  'x, y, z'
loop_
 _atom_type_symbol
 _atom_type_oxidation_number
  Gd3+  3.0
  Ta5+  5.0
  W6+  6.0
  O2-  -2.0
loop_
 _atom_site_type_symbol
 _atom_site_label
 _atom_site_symmetry_multiplicity
 _atom_site_fract_x
 _atom_site_fract_y
 _atom_site_fract_z
 _atom_site_occupancy
  Gd3+  Gd0  1  0.26358201  0.23607991  0.52561158  1
  Gd3+  Gd1  1  0.47608676  0.73721636  0.26774031  1
  Gd3+  Gd2  1  0.73573647  0.24551801  0.23174884  1
  Gd3+  Gd3  1  0.52901363  0.78001027  0.50703960  1
  Gd3+  Gd4  1  -0.00974704  0.73496719  0.01516819  1
  Gd3+  Gd5  1  0.53942034  0.26072319  0.74287403  1
  Gd3+  Gd6  1  0.00944183  0.26268902  -0.00643060  1
  Gd3+  Gd7  1  0.25742546  0.27036212  0.23833355  1
  Gd3+  Gd8  1  0.48180966  0.73265432  0.01905789  1
  Gd3+  Gd9  1  0.22634866  0.75221983  0.72593171  1
  Gd3+  Gd10  1  -0.02558421  0.25544884  0.28011815  1
  Gd3+  Gd11  1  -0.04547345  0.23758738  0.73609845  1
  Gd3+  Gd12  1  -0.00774175  0.72879848  0.25627064  1
  Gd3+  Gd13  1  0.75304144  0.71549085  0.55879950  1
  Gd3+  Gd14  1  0.54831187  0.22642583  0.45219104  1
  Gd3+  Gd15  1  0.31266109  0.24810435  0.74653694  1
  Gd3+  Gd16  1  0.53887313  0.74156713  0.74532007  1
  Gd3+  Gd17  1  0.71716696  0.73307553  -0.03057866  1
  Gd3+  Gd18  1  0.25237783  0.27534197  -0.00890907  1
  Ta5+  Ta19  1  0.90873211  0.11844551  0.13276792  1
  Ta5+  Ta20  1  0.16914420  0.11342403  0.85913192  1
  Ta5+  Ta21  1  0.64468236  0.91341817  0.63039622  1
  Ta5+  Ta22  1  0.12570270  0.37093521  0.39788283  1
  Ta5+  Ta23  1  0.07903959  0.86361829  0.61246726  1
  Ta5+  Ta24  1  0.61724065  0.38460978  0.10120900  1
  Ta5+  Ta25  1  0.86361923  0.87360460  0.13695365  1
  Ta5+  Ta26  1  0.15048793  0.38317636  0.82052486  1
  Ta5+  Ta27  1  0.66248417  0.90787756  0.86941891  1
  Ta5+  Ta28  1  0.83449377  0.12436712  0.89653466  1
  Ta5+  Ta29  1  0.91827604  0.83217303  0.63785636  1
  Ta5+  Ta30  1  0.86443946  0.87429692  0.87508570  1
  Ta5+  Ta31  1  0.83830720  0.35123275  0.89476061  1
  Ta5+  Ta32  1  0.10111427  0.10912626  0.62932054  1
  Ta5+  Ta33  1  0.59153475  0.55138266  0.59528888  1
  Ta5+  Ta34  1  0.36977951  0.38140610  0.39624933  1
  Ta5+  Ta35  1  0.60782028  0.12589427  0.09930026  1
  Ta5+  Ta36  1  0.09392083  0.87976124  0.87025783  1
  Ta5+  Ta37  1  0.63663196  0.63075213  0.36459113  1
  Ta5+  Ta38  1  0.36107883  0.05893444  0.69808428  1
  Ta5+  Ta39  1  0.64336168  0.62588608  0.14897307  1
  Ta5+  Ta40  1  0.67585225  0.14939980  0.86488532  1
  Ta5+  Ta41  1  0.32336348  0.62443295  0.14755770  1
  Ta5+  Ta42  1  0.09337164  0.39398682  0.14885540  1
  Ta5+  Ta43  1  0.35214697  0.64016128  0.87489909  1
  Ta5+  Ta44  1  0.10526291  0.62590328  0.86312316  1
  Ta5+  Ta45  1  0.60587072  0.38513667  0.32996816  1
  Ta5+  Ta46  1  0.80830182  0.36814031  0.65155841  1
  Ta5+  Ta47  1  0.85665249  0.07449447  0.63913439  1
  Ta5+  Ta48  1  0.42540749  0.42955461  0.61904591  1
  Ta5+  Ta49  1  0.91351201  0.58918393  0.69748145  1
  Ta5+  Ta50  1  0.37007402  0.88482402  0.13080563  1
  Ta5+  Ta51  1  0.62181305  0.87944494  0.12344664  1
  Ta5+  Ta52  1  0.87176917  0.59465026  0.90825263  1
  Ta5+  Ta53  1  0.70018579  0.59325050  0.79520653  1
  Ta5+  Ta54  1  0.84034486  0.86587653  0.39372647  1
  Ta5+  Ta55  1  0.13043751  0.87596586  0.12881370  1
  Ta5+  Ta56  1  0.31787298  0.62536438  0.37905262  1
  Ta5+  Ta57  1  0.39148370  0.62428901  0.62059197  1
  Ta5+  Ta58  1  0.35689949  0.87686891  0.38750636  1
  Ta5+  Ta59  1  0.38434223  0.40200535  0.87360258  1
  Ta5+  Ta60  1  0.89111348  0.39121101  0.13414720  1
  Ta5+  Ta61  1  0.65512610  0.36144785  0.58004178  1
  Ta5+  Ta62  1  0.38065844  0.12045591  0.36427618  1
  Ta5+  Ta63  1  0.42556071  0.13823381  0.91650155  1
  Ta5+  Ta64  1  0.11478832  0.87297810  0.36685459  1
  Ta5+  Ta65  1  0.64479558  0.11567003  0.61061484  1
  Ta5+  Ta66  1  0.14999542  0.61546603  0.35172736  1
  Ta5+  Ta67  1  0.80110953  0.60971244  0.36431661  1
  Ta5+  Ta68  1  0.41760813  0.39396545  0.14337494  1
  Ta5+  Ta69  1  0.13760470  0.12388348  0.37311571  1
  Ta5+  Ta70  1  0.88506239  0.38897031  0.41667153  1
  Ta5+  Ta71  1  0.67967973  0.36603274  0.85639532  1
  Ta5+  Ta72  1  0.07498149  0.42518803  0.58933061  1
  Ta5+  Ta73  1  0.67509636  0.87585069  0.37225284  1
  Ta5+  Ta74  1  0.11449521  0.12482836  0.12598016  1
  W6+  W75  1  0.85173381  0.11684666  0.39186622  1
  W6+  W76  1  0.82055138  0.62447693  0.14726813  1
  W6+  W77  1  0.40235847  0.89634345  0.86395414  1
  W6+  W78  1  0.10926629  0.62964797  0.59740873  1
  W6+  W79  1  0.60458739  0.08997565  0.30143744  1
  W6+  W80  1  0.40236223  0.13958059  0.11771889  1
  W6+  W81  1  0.15885197  0.61986600  0.12824926  1
  W6+  W82  1  0.37713686  0.87698034  0.63942073  1
  O2-  O83  1  0.14236001  0.00785073  0.12255785  1
  O2-  O84  1  0.11639429  0.00672882  0.35686839  1
  O2-  O85  1  0.10632216  -0.01054805  0.63411882  1
  O2-  O86  1  0.15903663  -0.00876458  0.87665622  1
  O2-  O87  1  0.17129094  0.47929546  0.12567349  1
  O2-  O88  1  0.15484907  0.48295497  0.36291265  1
  O2-  O89  1  0.16514778  0.49947922  0.59510355  1
  O2-  O90  1  0.13019129  0.50033943  0.84117362  1
  O2-  O91  1  0.38463721  0.00242719  0.12499510  1
  O2-  O92  1  0.34796850  0.00530830  0.38521796  1
  O2-  O93  1  0.29590925  -0.00703426  0.62293162  1
  O2-  O94  1  0.42893581  0.01866898  0.91097897  1
  O2-  O95  1  0.36809717  0.50393100  0.13557835  1
  O2-  O96  1  0.33912911  0.49733271  0.39536062  1
  O2-  O97  1  0.34504736  0.50746678  0.66159358  1
  O2-  O98  1  0.39851097  0.52735002  0.85935462  1
  O2-  O99  1  0.58980634  -0.00464174  0.09434596  1
  O2-  O100  1  0.67609449  -0.00080343  0.36486214  1
  O2-  O101  1  0.56928046  0.01659334  0.61763330  1
  O2-  O102  1  0.64199681  0.02420693  0.86122581  1
  O2-  O103  1  0.63295222  0.50931811  0.12122697  1
  O2-  O104  1  0.62293498  0.50254919  0.35975763  1
  O2-  O105  1  0.55030081  0.42283565  0.64542500  1
  O2-  O106  1  0.65129080  0.48472505  0.81302212  1
  O2-  O107  1  0.88617170  -0.00231844  0.15112115  1
  O2-  O108  1  0.86044528  -0.01575154  0.39270008  1
  O2-  O109  1  0.90167880  -0.03616835  0.63985477  1
  O2-  O110  1  0.84733228  0.00387157  0.89433391  1
  O2-  O111  1  0.82366179  0.48875470  0.13749395  1
  O2-  O112  1  0.82986751  0.48252449  0.36001526  1
  O2-  O113  1  0.84011834  0.49908319  0.67307905  1
  O2-  O114  1  0.87184018  0.47343049  0.90296680  1
  O2-  O115  1  0.13850111  0.27122620  0.10821893  1
  O2-  O116  1  0.08104553  0.23797347  0.38495640  1
  O2-  O117  1  0.19221725  0.19257865  0.65322183  1
  O2-  O118  1  0.20308703  0.24403995  0.84133606  1
  O2-  O119  1  0.09455581  0.75256313  0.13203796  1
  O2-  O120  1  0.11706462  0.75024548  0.34262337  1
  O2-  O121  1  0.14808165  0.75989944  0.59506286  1
  O2-  O122  1  0.07068095  0.75304460  0.88225180  1
  O2-  O123  1  0.35463711  0.28547653  0.11485384  1
  O2-  O124  1  0.25003628  0.32328708  0.38997382  1
  O2-  O125  1  0.36309997  0.16591966  0.62590656  1
  O2-  O126  1  0.38399898  0.27083117  0.88904879  1
  O2-  O127  1  0.38103433  0.74399518  0.14435164  1
  O2-  O128  1  0.36678352  0.74989835  0.37890388  1
  O2-  O129  1  0.43977428  0.74794382  0.62556141  1
  O2-  O130  1  0.44468979  0.72506572  0.86871046  1
  O2-  O131  1  0.63184848  0.25752800  0.11556578  1
  O2-  O132  1  0.61120222  0.24672976  0.31651181  1
  O2-  O133  1  0.57863404  0.24456792  0.60091111  1
  O2-  O134  1  0.60611809  0.26450899  0.87757394  1
  O2-  O135  1  0.56306126  0.76804279  0.14368308  1
  O2-  O136  1  0.58878961  0.76167619  0.37010836  1
  O2-  O137  1  0.62530333  0.78534459  0.62526112  1
  O2-  O138  1  0.64852111  0.70215432  0.83580467  1
  O2-  O139  1  0.95133030  0.25471867  0.13153707  1
  O2-  O140  1  0.88530309  0.26346159  0.40212105  1
  O2-  O141  1  0.84342531  0.25063526  0.63788079  1
  O2-  O142  1  0.91366094  0.23310131  0.88536631  1
  O2-  O143  1  0.89733821  0.74853331  0.13558220  1
  O2-  O144  1  0.75594873  0.75995156  0.39464832  1
  O2-  O145  1  0.89616281  0.69460540  0.63336652  1
  O2-  O146  1  0.86786618  0.74505168  0.91628211  1
  O2-  O147  1  0.15229920  0.15004083  -0.01835904  1
  O2-  O148  1  0.17259190  0.14892987  0.24492871  1
  O2-  O149  1  0.12194233  0.12084868  0.50607823  1
  O2-  O150  1  0.08013848  0.12719867  0.77541826  1
  O2-  O151  1  0.09534271  0.61750678  -0.00981630  1
  O2-  O152  1  0.07558738  0.60680459  0.24001893  1
  O2-  O153  1  0.10225121  0.61957360  0.46302884  1
  O2-  O154  1  0.12152473  0.64845698  0.73602522  1
  O2-  O155  1  0.32590828  0.14539614  -0.00805550  1
  O2-  O156  1  0.34699164  0.15178745  0.24903068  1
  O2-  O157  1  0.39388813  0.23422013  0.42411563  1
  O2-  O158  1  0.43985744  0.15356149  0.78325692  1
  O2-  O159  1  0.35797376  0.64186105  0.00552407  1
  O2-  O160  1  0.38916535  0.61684413  0.26957224  1
  O2-  O161  1  0.33175121  0.64081321  0.51259718  1
  O2-  O162  1  0.34115594  0.65630941  0.73951498  1
  O2-  O163  1  0.67254433  0.13146409  -0.00546350  1
  O2-  O164  1  0.69165919  0.10766164  0.19174657  1
  O2-  O165  1  0.65921078  0.14018642  0.49136525  1
  O2-  O166  1  0.65115692  0.15995995  0.73321069  1
  O2-  O167  1  0.60874542  0.65708475  0.02951675  1
  O2-  O168  1  0.56452137  0.62220074  0.24979189  1
  O2-  O169  1  0.61559585  0.64320435  0.50164398  1
  O2-  O170  1  0.68081463  0.62107979  0.66944744  1
  O2-  O171  1  0.84388178  0.14221279  0.03093736  1
  O2-  O172  1  0.85859935  0.15456856  0.24839576  1
  O2-  O173  1  0.84139180  0.10851817  0.52248153  1
  O2-  O174  1  0.86166935  0.12259458  0.75948235  1
  O2-  O175  1  0.90820819  0.61066624  0.02738894  1
  O2-  O176  1  0.88685257  0.63652963  0.27132328  1
  O2-  O177  1  0.81811245  0.61506643  0.48479669  1
  O2-  O178  1  0.97739502  0.60040086  0.82221153  1
  O2-  O179  1  0.12061447  0.34702878  -0.06374290  1
  O2-  O180  1  0.13010095  0.33961466  0.26399315  1
  O2-  O181  1  0.14716741  0.33543423  0.52682602  1
  O2-  O182  1  0.08545675  0.36479815  0.71100587  1
  O2-  O183  1  0.10870410  0.87198825  0.00469647  1
  O2-  O184  1  0.06552757  0.88494566  0.23937796  1
  O2-  O185  1  0.06631027  0.87506078  0.47896940  1
  O2-  O186  1  0.12003813  0.85901979  0.74751049  1
  O2-  O187  1  0.32373920  0.40707224  -0.02034699  1
  O2-  O188  1  0.36451865  0.36745960  0.26717009  1
  O2-  O189  1  0.49234017  0.37702781  0.39545035  1
  O2-  O190  1  0.42012501  0.35868648  0.73687587  1
  O2-  O191  1  0.40035806  0.85897775  0.00983347  1
  O2-  O192  1  0.40308703  0.87818056  0.26227341  1
  O2-  O193  1  0.41889642  0.88040314  0.49642760  1
  O2-  O194  1  0.32657654  0.84544511  0.77034095  1
  O2-  O195  1  0.66857780  0.39076011  -0.01067397  1
  O2-  O196  1  0.68114411  0.38250663  0.22554406  1
  O2-  O197  1  0.65312551  0.34569712  0.44930655  1
  O2-  O198  1  0.69198714  0.34384188  0.71446117  1
  O2-  O199  1  0.60171519  0.84459414  -0.02519324  1
  O2-  O200  1  0.63477072  0.87960558  0.24783760  1
  O2-  O201  1  0.63736788  0.89168834  0.50214001  1
  O2-  O202  1  0.59896720  0.88337779  0.75847050  1
  O2-  O203  1  0.84713910  0.33966730  0.02713873  1
  O2-  O204  1  0.85202530  0.33858350  0.24498850  1
  O2-  O205  1  0.85183065  0.40029750  0.53136081  1
  O2-  O206  1  0.87806039  0.35759073  0.76847624  1
  O2-  O207  1  0.92034753  0.87393067  0.02414841  1
  O2-  O208  1  0.87966291  0.84954616  0.26667753  1
  O2-  O209  1  0.85131815  0.83003581  0.52257509  1
  O2-  O210  1  0.91042228  0.82583731  0.76303716  1
  O2-  O211  1  0.01145500  0.11720198  0.04962649  1
  O2-  O212  1  0.02153292  0.12041958  0.21435765  1
  O2-  O213  1  -0.01927130  0.13054793  0.62950353  1
  O2-  O214  1  -0.01350873  -0.07617311  0.87045658  1
  O2-  O215  1  0.00507373  0.40123580  0.05696433  1
  O2-  O216  1  -0.00603373  0.41785397  0.22071577  1
  O2-  O217  1  0.01146261  0.40776547  0.46161734  1
  O2-  O218  1  0.00678094  0.52863528  0.63196561  1
  O2-  O219  1  0.24867363  -0.13484483  0.14562336  1
  O2-  O220  1  0.23578455  -0.12742189  0.38406903  1
  O2-  O221  1  0.25458245  0.14405422  0.40608227  1
  O2-  O222  1  0.27652655  0.09673346  0.79026010  1
  O2-  O223  1  0.23051179  0.66230592  -0.12723942  1
  O2-  O224  1  0.23742816  0.65056028  0.24577524  1
  O2-  O225  1  0.35896864  0.36271804  0.53529371  1
  O2-  O226  1  0.27141287  0.39395792  0.80292025  1
  O2-  O227  1  0.50072093  0.15859647  0.01447691  1
  O2-  O228  1  0.51812834  0.13601127  0.19372412  1
  O2-  O229  1  0.49835134  0.09871661  0.39027220  1
  O2-  O230  1  0.43359243  -0.03334078  0.73831545  1
  O2-  O231  1  0.50034745  0.38551655  0.04841330  1
  O2-  O232  1  0.52129753  0.39556975  0.21416963  1
  O2-  O233  1  0.46763203  0.53048809  0.54430556  1
  O2-  O234  1  0.50942475  0.60463440  0.68746030  1
  O2-  O235  1  0.75864606  -0.12533669  -0.04742249  1
  O2-  O236  1  0.74521143  -0.13855685  0.11918770  1
  O2-  O237  1  0.73246703  0.01942066  0.64279626  1
  O2-  O238  1  0.76192973  -0.11718071  0.79400207  1
  O2-  O239  1  0.74838078  0.59460081  -0.07496314  1
  O2-  O240  1  0.72330772  0.66216771  0.25281650  1
  O2-  O241  1  0.68888676  0.48277394  0.56399163  1
  O2-  O242  1  0.82201110  0.63336856  0.78257081  1
