# generated using pymatgen
data_Gd19Ta56(WO20)8
_symmetry_space_group_name_H-M   'P 1'
_cell_length_a   15.41464107
_cell_length_b   15.49158534
_cell_length_c   15.26987414
_cell_angle_alpha   89.82537287
_cell_angle_beta   90.07585769
_cell_angle_gamma   90.06847573
_symmetry_Int_Tables_number   1
_chemical_formula_structural   Gd19Ta56(WO20)8
_chemical_formula_sum   'Gd19 Ta56 W8 O160'
_cell_volume   3646.38089356
_cell_formula_units_Z   1
loop_
 _symmetry_equiv_pos_site_id
 _symmetry_equiv_pos_as_xyz
  1  'x, y, z'
loop_
 _atom_type_symbol
 _atom_type_oxidation_number
  Gd3+  3.0
  Ta5+  5.0
  W6+  6.0
  O2-  -2.0
loop_
 _atom_site_type_symbol
 _atom_site_label
 _atom_site_symmetry_multiplicity
 _atom_site_fract_x
 _atom_site_fract_y
 _atom_site_fract_z
 _atom_site_occupancy
  Gd3+  Gd0  1  0.49688898  0.73913552  0.00697660  1
  Gd3+  Gd1  1  -0.01683387  0.25103722  0.49695693  1
  Gd3+  Gd2  1  0.25439522  0.25194127  -0.01878372  1
  Gd3+  Gd3  1  0.24925293  0.24117585  0.49550196  1
  Gd3+  Gd4  1  0.73694160  0.75057938  0.76284227  1
  Gd3+  Gd5  1  0.49904727  0.25108854  0.49306057  1
  Gd3+  Gd6  1  0.76792609  0.29168503  0.25338762  1
  Gd3+  Gd7  1  -0.00297517  0.24979091  0.24249275  1
  Gd3+  Gd8  1  0.25027778  0.76796385  0.02278481  1
  Gd3+  Gd9  1  0.71918304  0.76952083  0.24894060  1
  Gd3+  Gd10  1  0.78120165  0.26632318  0.01164075  1
  Gd3+  Gd11  1  0.48731889  0.25565995  0.01683056  1
  Gd3+  Gd12  1  0.00868644  0.71176151  0.51272872  1
  Gd3+  Gd13  1  0.01438528  0.25474097  -0.00645482  1
  Gd3+  Gd14  1  0.48582099  0.76697613  0.73067366  1
  Gd3+  Gd15  1  0.76460091  0.24192718  0.75283733  1
  Gd3+  Gd16  1  0.01619690  0.21017886  0.72927223  1
  Gd3+  Gd17  1  0.75623458  0.26091657  0.48769911  1
  Gd3+  Gd18  1  0.02411820  0.72503518  0.25139952  1
  Ta5+  Ta19  1  0.15590801  0.07810065  0.18184449  1
  Ta5+  Ta20  1  0.61684910  0.61847343  0.13606712  1
  Ta5+  Ta21  1  0.65529225  0.11644801  0.15134472  1
  Ta5+  Ta22  1  0.39103333  0.12915392  0.85746420  1
  Ta5+  Ta23  1  0.64307530  0.38121832  0.89064115  1
  Ta5+  Ta24  1  0.86239214  0.86656914  0.62272360  1
  Ta5+  Ta25  1  0.36323038  0.38591618  0.37160448  1
  Ta5+  Ta26  1  0.12047191  0.87737957  0.13934310  1
  Ta5+  Ta27  1  0.86677092  0.65490981  0.11352485  1
  Ta5+  Ta28  1  0.35132017  0.38618324  0.12349279  1
  Ta5+  Ta29  1  0.39604237  0.38662965  0.86881694  1
  Ta5+  Ta30  1  0.60245831  0.63598567  0.38421488  1
  Ta5+  Ta31  1  0.63251668  0.40851481  0.63623680  1
  Ta5+  Ta32  1  0.61687732  0.62174093  0.87930296  1
  Ta5+  Ta33  1  0.59866632  0.42601186  0.13638809  1
  Ta5+  Ta34  1  0.61148619  0.39243309  0.37937240  1
  Ta5+  Ta35  1  0.13354355  0.41983972  0.15493338  1
  Ta5+  Ta36  1  0.64446016  0.61711191  0.62872401  1
  Ta5+  Ta37  1  0.38790008  0.87975063  0.37154708  1
  Ta5+  Ta38  1  0.86752125  0.43858136  0.39185226  1
  Ta5+  Ta39  1  0.86996496  0.85042479  0.12374308  1
  Ta5+  Ta40  1  0.62405512  0.12326281  0.92288700  1
  Ta5+  Ta41  1  0.32396990  0.87603461  0.60979246  1
  Ta5+  Ta42  1  0.08413812  0.40732545  0.84942862  1
  Ta5+  Ta43  1  0.87960847  0.86735739  0.88090884  1
  Ta5+  Ta44  1  0.34197878  0.63829337  0.36581292  1
  Ta5+  Ta45  1  0.55916893  0.87725135  0.38469117  1
  Ta5+  Ta46  1  0.87868719  0.85426051  0.38172368  1
  Ta5+  Ta47  1  0.83699097  0.07643453  0.61540931  1
  Ta5+  Ta48  1  0.15079362  0.82670133  0.62894099  1
  Ta5+  Ta49  1  0.18862332  0.65149338  0.63479692  1
  Ta5+  Ta50  1  0.37393552  0.88189455  0.86925098  1
  Ta5+  Ta51  1  0.15471942  0.40041617  0.63700571  1
  Ta5+  Ta52  1  0.95227070  0.07018924  0.11503237  1
  Ta5+  Ta53  1  0.63040522  0.11860968  0.36036468  1
  Ta5+  Ta54  1  0.20457266  0.61425278  0.88129214  1
  Ta5+  Ta55  1  0.87431875  0.64208243  0.87781091  1
  Ta5+  Ta56  1  0.65022603  0.87390623  0.61976311  1
  Ta5+  Ta57  1  0.40803812  0.10514115  0.64652050  1
  Ta5+  Ta58  1  0.37241231  0.63118039  0.87026713  1
  Ta5+  Ta59  1  0.40988087  0.88104329  0.13272654  1
  Ta5+  Ta60  1  0.39102618  0.39399821  0.62593579  1
  Ta5+  Ta61  1  0.81723055  0.61845031  0.61760878  1
  Ta5+  Ta62  1  0.11696562  0.84913576  0.87467490  1
  Ta5+  Ta63  1  0.35059841  0.62640663  0.13461567  1
  Ta5+  Ta64  1  0.89672385  0.40595658  0.87121871  1
  Ta5+  Ta65  1  0.15160357  0.07900089  0.84393572  1
  Ta5+  Ta66  1  0.17166345  0.63282435  0.38335094  1
  Ta5+  Ta67  1  0.84779835  0.07986520  0.94112898  1
  Ta5+  Ta68  1  0.60248720  0.08998647  0.68924797  1
  Ta5+  Ta69  1  0.34846714  0.11721223  0.11900268  1
  Ta5+  Ta70  1  0.38720571  0.12511105  0.32589002  1
  Ta5+  Ta71  1  0.17770938  0.61199873  0.14549352  1
  Ta5+  Ta72  1  0.85288498  0.63232114  0.37495768  1
  Ta5+  Ta73  1  0.10695153  0.10262242  0.39032830  1
  Ta5+  Ta74  1  0.11489234  0.38757407  0.39348242  1
  W6+  W75  1  0.12099495  0.04556548  0.58702093  1
  W6+  W76  1  0.60392085  0.87976172  0.87537612  1
  W6+  W77  1  0.11196074  0.88676439  0.38826129  1
  W6+  W78  1  0.90645387  0.41408340  0.12822233  1
  W6+  W79  1  0.90801683  0.42038862  0.65175763  1
  W6+  W80  1  0.57821472  0.87820063  0.13891061  1
  W6+  W81  1  0.85176251  0.10438054  0.35065265  1
  W6+  W82  1  0.35630708  0.64312761  0.61746735  1
  O2-  O83  1  0.20906206  -0.03885710  0.15113424  1
  O2-  O84  1  0.14028368  0.01132627  0.30955922  1
  O2-  O85  1  0.21332349  -0.05575566  0.61309448  1
  O2-  O86  1  0.15844791  -0.03089430  0.89273219  1
  O2-  O87  1  0.07612634  0.51752174  0.11382718  1
  O2-  O88  1  0.13482712  0.50485106  0.39238235  1
  O2-  O89  1  0.16839369  0.51624693  0.64321689  1
  O2-  O90  1  0.17199742  0.49286956  0.85736838  1
  O2-  O91  1  0.39500653  0.00627557  0.10639739  1
  O2-  O92  1  0.37394162  0.01437763  0.37160182  1
  O2-  O93  1  0.38244118  -0.00508759  0.61339731  1
  O2-  O94  1  0.38328621  0.00660956  0.87250306  1
  O2-  O95  1  0.36092433  0.50346360  0.09978202  1
  O2-  O96  1  0.36224117  0.50226232  0.37827957  1
  O2-  O97  1  0.37550324  0.50799093  0.61417144  1
  O2-  O98  1  0.39876247  0.50827848  0.87030685  1
  O2-  O99  1  0.64234982  -0.00160725  0.13773929  1
  O2-  O100  1  0.59439660  0.00512933  0.37915052  1
  O2-  O101  1  0.58487417  -0.01914275  0.64246558  1
  O2-  O102  1  0.60654319  0.00899443  0.90137897  1
  O2-  O103  1  0.68922095  0.51110012  0.12582797  1
  O2-  O104  1  0.58391612  0.50808371  0.36533030  1
  O2-  O105  1  0.56750317  0.51335174  0.64296701  1
  O2-  O106  1  0.61193246  0.49852300  0.90005131  1
  O2-  O107  1  0.87341085  -0.02588001  0.13581552  1
  O2-  O108  1  0.86748786  -0.02845736  0.37624063  1
  O2-  O109  1  0.92079115  -0.01386635  0.62054210  1
  O2-  O110  1  0.81687110  -0.02373405  0.87869233  1
  O2-  O111  1  0.87116254  0.53483641  0.11188658  1
  O2-  O112  1  0.94139594  0.54090968  0.38901734  1
  O2-  O113  1  0.91821890  0.53773260  0.61219071  1
  O2-  O114  1  0.85483915  0.52421855  0.88509145  1
  O2-  O115  1  0.05404778  0.15669127  0.11170279  1
  O2-  O116  1  0.11614803  0.24561495  0.41953007  1
  O2-  O117  1  0.05566637  0.16322417  0.59148948  1
  O2-  O118  1  -0.01888514  0.30409204  0.85139461  1
  O2-  O119  1  0.15713865  0.74997786  0.14781513  1
  O2-  O120  1  0.12260564  0.74898911  0.36729260  1
  O2-  O121  1  0.07754569  0.71879268  0.64787989  1
  O2-  O122  1  0.16440760  0.73782581  0.90115176  1
  O2-  O123  1  0.35731125  0.25295194  0.09812430  1
  O2-  O124  1  0.34016906  0.22713286  0.37710182  1
  O2-  O125  1  0.50865307  0.35106918  0.63684150  1
  O2-  O126  1  0.36353455  0.25676827  0.87253202  1
  O2-  O127  1  0.37886681  0.75547528  0.12837505  1
  O2-  O128  1  0.36768395  0.75879909  0.35476995  1
  O2-  O129  1  0.39380045  0.77225664  0.61331095  1
  O2-  O130  1  0.41695301  0.75963129  0.87039836  1
  O2-  O131  1  0.71042751  0.22848243  0.13120325  1
  O2-  O132  1  0.62837086  0.24689494  0.40484610  1
  O2-  O133  1  0.71123475  0.30579265  0.62324124  1
  O2-  O134  1  0.66243864  0.25104064  0.91437497  1
  O2-  O135  1  0.58161717  0.73855384  0.14465064  1
  O2-  O136  1  0.55453560  0.74605708  0.38527821  1
  O2-  O137  1  0.61850267  0.74891628  0.64479656  1
  O2-  O138  1  0.59293256  0.74597591  0.85311245  1
  O2-  O139  1  0.87739418  0.28845592  0.15933562  1
  O2-  O140  1  0.85464142  0.24165295  0.35988814  1
  O2-  O141  1  0.96198220  0.30404705  0.63786180  1
  O2-  O142  1  0.83702268  0.18467315  0.87727816  1
  O2-  O143  1  0.78088665  0.75591522  0.10885718  1
  O2-  O144  1  0.94305491  0.73546155  0.37453035  1
  O2-  O145  1  0.80263744  0.75323231  0.62514725  1
  O2-  O146  1  0.81153977  0.75957967  0.89133408  1
  O2-  O147  1  0.06277903  0.14905849  -0.11634817  1
  O2-  O148  1  0.11518379  0.16205005  0.26918158  1
  O2-  O149  1  0.19734594  0.10708157  0.48097679  1
  O2-  O150  1  0.13457452  0.08232564  0.72380337  1
  O2-  O151  1  0.19428150  0.61663039  0.01770890  1
  O2-  O152  1  0.11749013  0.61711852  0.26423862  1
  O2-  O153  1  0.14350068  0.63720977  0.50663867  1
  O2-  O154  1  0.20316533  0.64291934  0.75868490  1
  O2-  O155  1  0.38125022  0.13794893  -0.00726711  1
  O2-  O156  1  0.42861326  0.15026285  0.21123899  1
  O2-  O157  1  0.37458039  0.18493044  0.55774973  1
  O2-  O158  1  0.33246623  0.13851557  0.73780234  1
  O2-  O159  1  0.37618739  0.64921074  -0.00068589  1
  O2-  O160  1  0.39266500  0.61513946  0.24726726  1
  O2-  O161  1  0.34684589  0.64240818  0.48892530  1
  O2-  O162  1  0.40592309  0.64583536  0.74330729  1
  O2-  O163  1  0.57757398  0.14551934  0.04833647  1
  O2-  O164  1  0.73238335  0.11584529  0.26925154  1
  O2-  O165  1  0.53433554  0.15436336  0.60532144  1
  O2-  O166  1  0.66186344  0.13527845  0.79381953  1
  O2-  O167  1  0.61986021  0.64412118  0.00789101  1
  O2-  O168  1  0.65462918  0.63564403  0.26299860  1
  O2-  O169  1  0.63722970  0.62836395  0.50139803  1
  O2-  O170  1  0.66092707  0.61396000  0.76163456  1
  O2-  O171  1  0.88966272  0.16215210  0.04209687  1
  O2-  O172  1  0.92339694  0.11873898  0.22674837  1
  O2-  O173  1  0.86612633  0.16010552  0.53323886  1
  O2-  O174  1  0.87631160  0.14403653  0.71056360  1
  O2-  O175  1  0.91410476  0.66390348  -0.00355265  1
  O2-  O176  1  0.84837992  0.65644430  0.24812385  1
  O2-  O177  1  0.85674899  0.65662405  0.50327307  1
  O2-  O178  1  0.85001135  0.64528703  0.74952747  1
  O2-  O179  1  0.13632174  0.32223414  -0.07122725  1
  O2-  O180  1  0.11688963  0.36173351  0.26832397  1
  O2-  O181  1  0.10003587  0.37885934  0.52964348  1
  O2-  O182  1  0.12300695  0.33345385  0.73802944  1
  O2-  O183  1  0.11804168  0.85765883  0.01548903  1
  O2-  O184  1  0.06672339  0.86357911  0.25607440  1
  O2-  O185  1  0.09831282  0.83243318  0.51203261  1
  O2-  O186  1  0.14842530  0.84742274  0.75612435  1
  O2-  O187  1  0.34465914  0.37678448  -0.01719356  1
  O2-  O188  1  0.34550264  0.37079772  0.24757511  1
  O2-  O189  1  0.39052732  0.35390526  0.50201054  1
  O2-  O190  1  0.36185517  0.37723263  0.74794976  1
  O2-  O191  1  0.36458064  0.86515546  0.00036187  1
  O2-  O192  1  0.36598457  0.89366444  0.24494000  1
  O2-  O193  1  0.33298239  0.87859754  0.48569245  1
  O2-  O194  1  0.35285793  0.87316391  0.74615852  1
  O2-  O195  1  0.62840016  0.36983448  0.02971083  1
  O2-  O196  1  0.62945006  0.37015539  0.24374808  1
  O2-  O197  1  0.61068153  0.39007276  0.50600808  1
  O2-  O198  1  0.64310730  0.37782653  0.76414207  1
  O2-  O199  1  0.56646893  0.86406965  0.00172562  1
  O2-  O200  1  0.61244931  0.86610983  0.27335568  1
  O2-  O201  1  0.60673182  0.86948972  0.50462728  1
  O2-  O202  1  0.66460411  0.87884563  0.75333519  1
  O2-  O203  1  0.90049305  0.35303408  -0.00376395  1
  O2-  O204  1  0.86594857  0.41544732  0.26827084  1
  O2-  O205  1  0.86101271  0.38115646  0.50789520  1
  O2-  O206  1  0.84280457  0.36630824  0.75749004  1
  O2-  O207  1  0.90150771  0.85309897  0.00353915  1
  O2-  O208  1  0.85607881  0.83819420  0.25563456  1
  O2-  O209  1  0.91083997  0.83617650  0.51011442  1
  O2-  O210  1  0.85726916  0.85744151  0.74955153  1
  O2-  O211  1  -0.04705643  0.02983145  -0.01591143  1
  O2-  O212  1  0.05458208  -0.00198746  0.14183109  1
  O2-  O213  1  -0.01314080  0.13070692  0.39856609  1
  O2-  O214  1  -0.00153945  -0.11808620  0.85642735  1
  O2-  O215  1  0.00705927  0.45591548  -0.07035837  1
  O2-  O216  1  0.03269754  0.34082566  0.12055398  1
  O2-  O217  1  -0.01076414  0.37038644  0.38985810  1
  O2-  O218  1  -0.01537596  0.44810872  0.76678961  1
  O2-  O219  1  0.22249304  0.13064025  0.08111016  1
  O2-  O220  1  0.27696453  0.10267350  0.23254854  1
  O2-  O221  1  0.08015626  -0.00298840  0.46382759  1
  O2-  O222  1  0.25192692  0.13395272  0.88303749  1
  O2-  O223  1  0.22295656  0.35478729  0.09754056  1
  O2-  O224  1  0.22096706  0.49879631  0.19745900  1
  O2-  O225  1  0.24329221  0.36467501  0.40952078  1
  O2-  O226  1  0.26333633  0.34788909  0.61139043  1
  O2-  O227  1  0.50885286  0.16755567  -0.10709329  1
  O2-  O228  1  0.58286072  0.14947890  0.24176323  1
  O2-  O229  1  0.49534729  0.14553428  0.38967145  1
  O2-  O230  1  0.48664247  0.09162301  0.75156767  1
  O2-  O231  1  0.53062260  0.53164459  0.15432272  1
  O2-  O232  1  0.47931567  0.36960083  0.11799156  1
  O2-  O233  1  0.49024573  0.35028355  0.36761345  1
  O2-  O234  1  0.51069498  0.35334917  0.89746543  1
  O2-  O235  1  0.73365815  0.10224644  -0.00227762  1
  O2-  O236  1  0.73217816  0.11694711  0.43570797  1
  O2-  O237  1  0.76113190  -0.05259047  0.60341238  1
  O2-  O238  1  0.71606991  0.11324611  0.63517867  1
  O2-  O239  1  0.76613235  0.38213653  -0.09369624  1
  O2-  O240  1  0.73890101  0.37286780  0.38230934  1
  O2-  O241  1  0.77892167  0.53317402  0.38954258  1
  O2-  O242  1  0.72948666  0.50742873  0.62454175  1
