# generated using pymatgen
data_Gd19Ta56(WO20)8
_symmetry_space_group_name_H-M   'P 1'
_cell_length_a   15.53502037
_cell_length_b   15.55358156
_cell_length_c   15.22272351
_cell_angle_alpha   89.94886485
_cell_angle_beta   90.03986444
_cell_angle_gamma   90.15602506
_symmetry_Int_Tables_number   1
_chemical_formula_structural   Gd19Ta56(WO20)8
_chemical_formula_sum   'Gd19 Ta56 W8 O160'
_cell_volume   3678.17772161
_cell_formula_units_Z   1
loop_
 _symmetry_equiv_pos_site_id
 _symmetry_equiv_pos_as_xyz
  1  'x, y, z'
loop_
 _atom_type_symbol
 _atom_type_oxidation_number
  Gd3+  3.0
  Ta5+  5.0
  W6+  6.0
  O2-  -2.0
loop_
 _atom_site_type_symbol
 _atom_site_label
 _atom_site_symmetry_multiplicity
 _atom_site_fract_x
 _atom_site_fract_y
 _atom_site_fract_z
 _atom_site_occupancy
  Gd3+  Gd0  1  0.04208133  0.28171099  0.24248750  1
  Gd3+  Gd1  1  0.29841246  0.23402244  0.73022657  1
  Gd3+  Gd2  1  -0.01190495  0.25677724  -0.02445932  1
  Gd3+  Gd3  1  0.47844769  0.25519794  0.49848149  1
  Gd3+  Gd4  1  0.23883969  0.74265601  -0.00305162  1
  Gd3+  Gd5  1  0.70916147  0.25043262  0.50932468  1
  Gd3+  Gd6  1  0.74183912  0.24627412  0.23706500  1
  Gd3+  Gd7  1  0.50723289  0.24487969  0.26495065  1
  Gd3+  Gd8  1  0.50326299  0.74241649  0.75896969  1
  Gd3+  Gd9  1  0.73806438  0.74913164  0.72317662  1
  Gd3+  Gd10  1  0.00234068  0.72597898  0.24263681  1
  Gd3+  Gd11  1  0.24421630  0.73760281  0.25039207  1
  Gd3+  Gd12  1  0.28761410  0.28640357  0.25005620  1
  Gd3+  Gd13  1  0.74745596  0.75958845  0.24271200  1
  Gd3+  Gd14  1  -0.01272594  0.24224391  0.49548225  1
  Gd3+  Gd15  1  -0.01586142  0.25269931  0.73704582  1
  Gd3+  Gd16  1  -0.03116564  0.74884847  0.00039798  1
  Gd3+  Gd17  1  0.74237216  0.74503534  -0.00121303  1
  Gd3+  Gd18  1  0.26765543  0.75654062  0.74752824  1
  Ta5+  Ta19  1  0.36617261  0.85529799  0.38661797  1
  Ta5+  Ta20  1  0.42501993  0.39238638  0.64241854  1
  Ta5+  Ta21  1  0.57885122  0.61614343  0.61203585  1
  Ta5+  Ta22  1  0.63553710  0.88032369  0.86968476  1
  Ta5+  Ta23  1  0.63192991  0.61126052  0.87302956  1
  Ta5+  Ta24  1  0.10914230  0.88245123  0.86922927  1
  Ta5+  Ta25  1  0.83939496  0.12841362  0.86677563  1
  Ta5+  Ta26  1  0.39606920  0.41148228  0.38319062  1
  Ta5+  Ta27  1  0.89033543  0.89536558  0.12230589  1
  Ta5+  Ta28  1  0.89551914  0.62670689  0.61956047  1
  Ta5+  Ta29  1  0.12054623  0.38210797  0.60661078  1
  Ta5+  Ta30  1  0.10069515  0.88245386  0.11597626  1
  Ta5+  Ta31  1  0.40895884  0.87072672  0.90975241  1
  Ta5+  Ta32  1  0.86332767  0.88237207  0.86470361  1
  Ta5+  Ta33  1  0.67539294  0.37067937  0.87748087  1
  Ta5+  Ta34  1  0.57981465  0.87611470  0.61236396  1
  Ta5+  Ta35  1  0.33684970  0.09641552  0.38629048  1
  Ta5+  Ta36  1  0.85092589  0.38139218  0.61942118  1
  Ta5+  Ta37  1  0.87542578  0.14006390  0.11988238  1
  Ta5+  Ta38  1  0.39605672  0.62090494  0.13154707  1
  Ta5+  Ta39  1  0.58799263  0.87187627  0.11372188  1
  Ta5+  Ta40  1  0.89346009  0.61861881  0.84301740  1
  Ta5+  Ta41  1  0.38563600  0.61335683  0.89164074  1
  Ta5+  Ta42  1  0.59428963  0.37912532  0.11515944  1
  Ta5+  Ta43  1  0.13679281  0.12634160  0.11734202  1
  Ta5+  Ta44  1  0.10614903  0.62152557  0.85334407  1
  Ta5+  Ta45  1  0.84393469  0.11732994  0.37199246  1
  Ta5+  Ta46  1  0.41198599  0.86994037  0.62874637  1
  Ta5+  Ta47  1  0.67247677  0.12693288  0.86949692  1
  Ta5+  Ta48  1  0.58880938  0.12074447  0.63744515  1
  Ta5+  Ta49  1  0.84232791  0.37658766  0.87003385  1
  Ta5+  Ta50  1  0.59336317  0.62550507  0.12742669  1
  Ta5+  Ta51  1  0.12496679  0.88033784  0.36336662  1
  Ta5+  Ta52  1  0.13650111  0.37842811  0.84946837  1
  Ta5+  Ta53  1  0.35543153  0.36712507  0.88236137  1
  Ta5+  Ta54  1  0.36732183  0.11130834  0.89426068  1
  Ta5+  Ta55  1  0.17684448  0.37409007  0.06263646  1
  Ta5+  Ta56  1  0.62698720  0.11791971  0.11497474  1
  Ta5+  Ta57  1  0.60440310  0.86536387  0.37099391  1
  Ta5+  Ta58  1  0.13484422  0.11607920  0.38196865  1
  Ta5+  Ta59  1  0.86254061  0.60211224  0.12182664  1
  Ta5+  Ta60  1  0.36688431  0.60895633  0.38430444  1
  Ta5+  Ta61  1  0.87145830  0.62632042  0.37622630  1
  Ta5+  Ta62  1  0.60412664  0.63249109  0.36899591  1
  Ta5+  Ta63  1  0.41012839  0.61262496  0.63093407  1
  Ta5+  Ta64  1  0.89284084  0.87596114  0.61454817  1
  Ta5+  Ta65  1  0.64001391  0.39045889  0.36935635  1
  Ta5+  Ta66  1  0.38495110  0.86797464  0.13124311  1
  Ta5+  Ta67  1  0.42424376  0.38039715  0.11581077  1
  Ta5+  Ta68  1  0.38153577  0.11728018  0.13606288  1
  Ta5+  Ta69  1  0.59509691  0.38139634  0.64156179  1
  Ta5+  Ta70  1  0.84889352  0.38126432  0.37498955  1
  Ta5+  Ta71  1  0.63554138  0.10622964  0.37273595  1
  Ta5+  Ta72  1  0.84297512  0.11530289  0.62141941  1
  Ta5+  Ta73  1  0.13322285  0.63029830  0.61560988  1
  Ta5+  Ta74  1  0.13307310  0.88321887  0.61728510  1
  W6+  W75  1  0.12745871  0.62157538  0.38156374  1
  W6+  W76  1  0.13107565  0.13063780  0.86832053  1
  W6+  W77  1  0.88188322  0.36840271  0.12643264  1
  W6+  W78  1  0.88460366  0.88496948  0.35772590  1
  W6+  W79  1  0.42112684  0.11826395  0.63281459  1
  W6+  W80  1  0.12226460  0.60879494  0.10692022  1
  W6+  W81  1  0.13489894  0.12215358  0.61630080  1
  W6+  W82  1  0.15613934  0.37522060  0.40853843  1
  O2-  O83  1  0.12899529  0.00368729  0.11748506  1
  O2-  O84  1  0.10769079  0.00315173  0.34134688  1
  O2-  O85  1  0.17516999  -0.00697193  0.62676478  1
  O2-  O86  1  0.10360416  -0.00081042  0.87084477  1
  O2-  O87  1  0.14392863  0.47482658  0.11303863  1
  O2-  O88  1  0.13647894  0.49770806  0.39331985  1
  O2-  O89  1  0.12710486  0.50730947  0.62170995  1
  O2-  O90  1  0.11946067  0.49952267  0.84347458  1
  O2-  O91  1  0.38221941  -0.00640192  0.14100142  1
  O2-  O92  1  0.36493995  -0.01906693  0.37033447  1
  O2-  O93  1  0.40309331  -0.01307511  0.63752844  1
  O2-  O94  1  0.41338369  -0.01069489  0.89335303  1
  O2-  O95  1  0.39894087  0.50293238  0.10642486  1
  O2-  O96  1  0.31095193  0.49882455  0.37946377  1
  O2-  O97  1  0.37151155  0.49860181  0.66393736  1
  O2-  O98  1  0.36370933  0.49666334  0.87980487  1
  O2-  O99  1  0.60295443  -0.00674113  0.12294964  1
  O2-  O100  1  0.60068976  -0.00923757  0.37339128  1
  O2-  O101  1  0.60538117  0.00048245  0.62200856  1
  O2-  O102  1  0.65446251  -0.00417742  0.86437021  1
  O2-  O103  1  0.60486638  0.50563729  0.11976941  1
  O2-  O104  1  0.62372945  0.51056992  0.36499568  1
  O2-  O105  1  0.61999476  0.49995640  0.61845860  1
  O2-  O106  1  0.67607064  0.50344546  0.86435762  1
  O2-  O107  1  0.89188424  0.01728569  0.11986551  1
  O2-  O108  1  0.90449817  0.01625832  0.36256285  1
  O2-  O109  1  0.84689358  -0.00789940  0.61815121  1
  O2-  O110  1  0.85453477  0.00096656  0.87297003  1
  O2-  O111  1  0.98274291  0.61061904  0.13281267  1
  O2-  O112  1  0.85839881  0.50400532  0.37790022  1
  O2-  O113  1  0.88201511  0.50446437  0.61346893  1
  O2-  O114  1  0.86314742  0.50478940  0.86591138  1
  O2-  O115  1  0.13278640  0.26640409  0.11178911  1
  O2-  O116  1  0.08404180  0.23894026  0.38117596  1
  O2-  O117  1  0.07549078  0.25150735  0.61399502  1
  O2-  O118  1  0.08567352  0.25627780  0.85540128  1
  O2-  O119  1  0.08891273  0.74871883  0.09724896  1
  O2-  O120  1  0.09759396  0.75889068  0.36117397  1
  O2-  O121  1  0.17020937  0.76266226  0.62943980  1
  O2-  O122  1  0.14337550  0.74649532  0.86678784  1
  O2-  O123  1  0.41409963  0.24471153  0.14899661  1
  O2-  O124  1  0.39958558  0.28029476  0.37225757  1
  O2-  O125  1  0.39935872  0.26217145  0.62400524  1
  O2-  O126  1  0.33560804  0.23840268  0.88374368  1
  O2-  O127  1  0.33144249  0.74500306  0.12437530  1
  O2-  O128  1  0.32419289  0.73470683  0.37964509  1
  O2-  O129  1  0.37885690  0.74048065  0.63908469  1
  O2-  O130  1  0.34530747  0.74853376  0.89394676  1
  O2-  O131  1  0.61785502  0.24716310  0.14111244  1
  O2-  O132  1  0.64808593  0.24645014  0.35857427  1
  O2-  O133  1  0.59416691  0.25188743  0.61455325  1
  O2-  O134  1  0.69766825  0.24900674  0.87913580  1
  O2-  O135  1  0.65143250  0.75331929  0.11930233  1
  O2-  O136  1  0.66313679  0.74976587  0.36740970  1
  O2-  O137  1  0.58203164  0.74676893  0.62262735  1
  O2-  O138  1  0.67584573  0.74199922  0.86595962  1
  O2-  O139  1  0.95392712  0.24158168  0.11959149  1
  O2-  O140  1  0.83481627  0.24818012  0.38812530  1
  O2-  O141  1  0.88104956  0.25042808  0.62071237  1
  O2-  O142  1  0.88720799  0.25204012  0.85399373  1
  O2-  O143  1  0.87842428  0.75339686  0.12777996  1
  O2-  O144  1  0.86539782  0.75093078  0.34408947  1
  O2-  O145  1  0.86063415  0.75381047  0.63012144  1
  O2-  O146  1  0.85667926  0.74017424  0.86417998  1
  O2-  O147  1  0.08386275  0.13941673  0.00552492  1
  O2-  O148  1  0.09200667  0.14131100  0.23296370  1
  O2-  O149  1  0.07153215  0.11413487  0.48962960  1
  O2-  O150  1  0.18349846  0.15083628  0.74279879  1
  O2-  O151  1  0.15992975  0.61423319  -0.03322577  1
  O2-  O152  1  0.12443660  0.64273795  0.24209695  1
  O2-  O153  1  0.18394790  0.63764641  0.50720262  1
  O2-  O154  1  0.17559727  0.63473565  0.74043059  1
  O2-  O155  1  0.41281302  0.12505726  0.01487610  1
  O2-  O156  1  0.39482522  0.12748623  0.26924836  1
  O2-  O157  1  0.40340269  0.12681400  0.48302436  1
  O2-  O158  1  0.39269140  0.12536642  0.77244356  1
  O2-  O159  1  0.33468088  0.62364411  0.00735335  1
  O2-  O160  1  0.33396520  0.62098203  0.24602056  1
  O2-  O161  1  0.38031123  0.61002965  0.50773594  1
  O2-  O162  1  0.37253483  0.64100713  0.76646872  1
  O2-  O163  1  0.62342252  0.12634105  -0.00606290  1
  O2-  O164  1  0.58311334  0.12159095  0.24983724  1
  O2-  O165  1  0.58660634  0.14383519  0.48737338  1
  O2-  O166  1  0.61668883  0.13508569  0.75664964  1
  O2-  O167  1  0.65227808  0.62719668  0.00017566  1
  O2-  O168  1  0.65485089  0.63952634  0.24323304  1
  O2-  O169  1  0.62460289  0.63153026  0.49069895  1
  O2-  O170  1  0.62362474  0.63752967  0.74311618  1
  O2-  O171  1  0.87088205  0.14681287  -0.00850809  1
  O2-  O172  1  0.88492062  0.16151116  0.25082780  1
  O2-  O173  1  0.89233155  0.12759908  0.50404374  1
  O2-  O174  1  0.88962301  0.12354165  0.73770671  1
  O2-  O175  1  0.84944875  0.63894155  -0.00139251  1
  O2-  O176  1  0.83331556  0.62448669  0.24529048  1
  O2-  O177  1  0.85238310  0.63949258  0.50171404  1
  O2-  O178  1  0.82446208  0.62611784  0.72963941  1
  O2-  O179  1  0.07903099  0.37441979  -0.02935348  1
  O2-  O180  1  0.16603441  0.35152442  0.27535674  1
  O2-  O181  1  0.05259879  0.38237303  0.50463348  1
  O2-  O182  1  0.07972973  0.37191507  0.73328061  1
  O2-  O183  1  0.15367434  0.86989428  -0.01049931  1
  O2-  O184  1  0.15622220  0.86241957  0.23150408  1
  O2-  O185  1  0.12613562  0.88319353  0.49223741  1
  O2-  O186  1  0.16743422  0.87368391  0.75822729  1
  O2-  O187  1  0.42112904  0.35870836  -0.01477619  1
  O2-  O188  1  0.40076035  0.39151493  0.25051248  1
  O2-  O189  1  0.41184482  0.40057658  0.50897996  1
  O2-  O190  1  0.41783051  0.35740462  0.77520528  1
  O2-  O191  1  0.32680887  0.87003833  0.01015357  1
  O2-  O192  1  0.33688989  0.85669346  0.25206061  1
  O2-  O193  1  0.35802962  0.86162975  0.50873022  1
  O2-  O194  1  0.39196299  0.85272336  0.76948945  1
  O2-  O195  1  0.63556274  0.37080318  -0.00189909  1
  O2-  O196  1  0.58395026  0.37209868  0.25444346  1
  O2-  O197  1  0.58839354  0.35799137  0.48359403  1
  O2-  O198  1  0.61968259  0.36996640  0.76118349  1
  O2-  O199  1  0.65309091  0.86735149  0.00008821  1
  O2-  O200  1  0.63961982  0.86865836  0.24512937  1
  O2-  O201  1  0.62808566  0.86726070  0.49278257  1
  O2-  O202  1  0.62424436  0.85501677  0.74167857  1
  O2-  O203  1  0.87430253  0.35871172  -0.01158969  1
  O2-  O204  1  0.92352291  0.36174333  0.27354519  1
  O2-  O205  1  0.89399721  0.36611793  0.49859959  1
  O2-  O206  1  0.89250263  0.37545099  0.73883573  1
  O2-  O207  1  0.84434156  0.86151398  -0.00299215  1
  O2-  O208  1  0.82348288  0.88938192  0.22810079  1
  O2-  O209  1  0.90013949  0.87000937  0.49539742  1
  O2-  O210  1  0.83248226  0.86980210  0.74264550  1
  O2-  O211  1  -0.00248212  -0.10890234  0.03998560  1
  O2-  O212  1  -0.00629131  -0.12880086  0.19892648  1
  O2-  O213  1  0.01121678  -0.12014311  0.64771406  1
  O2-  O214  1  -0.00990376  -0.15123627  0.86333699  1
  O2-  O215  1  -0.00144573  0.63144149  -0.07807723  1
  O2-  O216  1  -0.01159991  0.62612181  0.36008078  1
  O2-  O217  1  0.01362156  0.65177589  0.59350122  1
  O2-  O218  1  -0.01072963  0.61920255  0.76150759  1
  O2-  O219  1  0.25967776  0.13799460  0.12847696  1
  O2-  O220  1  0.24231394  0.16626323  0.32492118  1
  O2-  O221  1  0.23190979  0.07375929  0.45251370  1
  O2-  O222  1  0.25587962  0.07743610  0.90951085  1
  O2-  O223  1  0.23658741  0.38518302  -0.05096073  1
  O2-  O224  1  0.28608737  0.35401123  0.11534204  1
  O2-  O225  1  0.21840029  0.35392172  0.54563168  1
  O2-  O226  1  0.24456280  0.35905132  0.79025244  1
  O2-  O227  1  0.48233045  -0.11868513  0.03465522  1
  O2-  O228  1  0.49085959  -0.17300364  0.18275309  1
  O2-  O229  1  0.48750320  -0.16191655  0.37195296  1
  O2-  O230  1  0.51939733  -0.18007670  0.88387764  1
  O2-  O231  1  0.49269045  0.66977360  0.06041450  1
  O2-  O232  1  0.49696124  0.61371184  0.20823045  1
  O2-  O233  1  0.48675306  0.64829239  0.37176055  1
  O2-  O234  1  0.50670635  0.63147607  0.87958291  1
  O2-  O235  1  0.74943411  0.13083867  0.12201641  1
  O2-  O236  1  0.74047884  0.10496517  0.29536356  1
  O2-  O237  1  0.74101173  0.10839491  0.45205657  1
  O2-  O238  1  0.72744622  0.14272938  0.62361896  1
  O2-  O239  1  0.82542727  0.49188448  0.11823010  1
  O2-  O240  1  0.74948135  0.38184283  0.28931700  1
  O2-  O241  1  0.74165783  0.38570718  0.44991744  1
  O2-  O242  1  0.73480558  0.35973436  0.62324460  1
