# generated using pymatgen
data_Gd19Ta56(WO20)8
_symmetry_space_group_name_H-M   'P 1'
_cell_length_a   15.61248314
_cell_length_b   15.56495230
_cell_length_c   15.17996795
_cell_angle_alpha   89.88990475
_cell_angle_beta   89.89897823
_cell_angle_gamma   90.00889237
_symmetry_Int_Tables_number   1
_chemical_formula_structural   Gd19Ta56(WO20)8
_chemical_formula_sum   'Gd19 Ta56 W8 O160'
_cell_volume   3688.83431347
_cell_formula_units_Z   1
loop_
 _symmetry_equiv_pos_site_id
 _symmetry_equiv_pos_as_xyz
  1  'x, y, z'
loop_
 _atom_type_symbol
 _atom_type_oxidation_number
  Gd3+  3.0
  Ta5+  5.0
  W6+  6.0
  O2-  -2.0
loop_
 _atom_site_type_symbol
 _atom_site_label
 _atom_site_symmetry_multiplicity
 _atom_site_fract_x
 _atom_site_fract_y
 _atom_site_fract_z
 _atom_site_occupancy
  Gd3+  Gd0  1  -0.00759329  0.25506206  0.74038119  1
  Gd3+  Gd1  1  0.25697052  0.22596829  0.02472224  1
  Gd3+  Gd2  1  0.73619223  0.77526803  0.26174239  1
  Gd3+  Gd3  1  0.51072573  0.25037242  0.25113801  1
  Gd3+  Gd4  1  0.74199932  0.74820850  0.51157428  1
  Gd3+  Gd5  1  0.48824243  0.76406022  0.24421823  1
  Gd3+  Gd6  1  0.25908996  0.75475294  0.24114003  1
  Gd3+  Gd7  1  0.27963229  0.25055033  0.49839777  1
  Gd3+  Gd8  1  0.03064899  0.73216088  0.77069054  1
  Gd3+  Gd9  1  0.00537882  0.25272739  0.47015362  1
  Gd3+  Gd10  1  0.25020124  0.74622373  0.00698907  1
  Gd3+  Gd11  1  0.49842249  0.26606329  0.00686817  1
  Gd3+  Gd12  1  0.78962839  0.23122445  0.01522462  1
  Gd3+  Gd13  1  0.26937531  0.74020435  0.73856869  1
  Gd3+  Gd14  1  0.26227526  0.74730472  0.50217744  1
  Gd3+  Gd15  1  -0.03141752  0.74717984  0.23158925  1
  Gd3+  Gd16  1  0.53079142  0.25446302  0.76362873  1
  Gd3+  Gd17  1  0.75562724  0.74573754  0.74751689  1
  Gd3+  Gd18  1  0.24252505  0.23959582  0.73966865  1
  Ta5+  Ta19  1  0.39944244  0.62359371  0.39210195  1
  Ta5+  Ta20  1  0.11742219  0.88448213  0.13029345  1
  Ta5+  Ta21  1  0.87067840  0.37939478  0.14290595  1
  Ta5+  Ta22  1  0.61843568  0.87290630  0.87863836  1
  Ta5+  Ta23  1  0.13860145  0.11316594  0.87798557  1
  Ta5+  Ta24  1  0.13710116  0.62111444  0.35509742  1
  Ta5+  Ta25  1  0.62296976  0.62961221  0.88622470  1
  Ta5+  Ta26  1  0.14075840  0.36658604  0.88236001  1
  Ta5+  Ta27  1  0.66261429  0.10863681  0.58942709  1
  Ta5+  Ta28  1  0.82978460  0.37302548  0.38019191  1
  Ta5+  Ta29  1  0.13167485  0.60684964  0.89445642  1
  Ta5+  Ta30  1  0.37843330  0.61499322  0.12978777  1
  Ta5+  Ta31  1  0.42768529  0.12714754  0.62048908  1
  Ta5+  Ta32  1  0.07029963  0.12398670  0.11964403  1
  Ta5+  Ta33  1  0.38214945  0.61475537  0.87143303  1
  Ta5+  Ta34  1  0.35398283  0.10985972  0.87013336  1
  Ta5+  Ta35  1  0.63095823  0.39036365  0.12861521  1
  Ta5+  Ta36  1  0.89241767  0.87405892  0.87114473  1
  Ta5+  Ta37  1  0.90721789  0.12286467  0.15122561  1
  Ta5+  Ta38  1  0.88162717  0.61287687  0.87594880  1
  Ta5+  Ta39  1  0.35060885  0.36912057  0.87739312  1
  Ta5+  Ta40  1  0.35573788  0.11915529  0.35402033  1
  Ta5+  Ta41  1  0.15102693  0.11942878  0.36006811  1
  Ta5+  Ta42  1  0.54904115  0.87337404  0.06820992  1
  Ta5+  Ta43  1  0.37130075  0.88581555  0.37892781  1
  Ta5+  Ta44  1  0.88657514  0.60723478  0.63007892  1
  Ta5+  Ta45  1  0.89551274  0.87699357  0.63247396  1
  Ta5+  Ta46  1  0.64149127  0.12876991  0.37326699  1
  Ta5+  Ta47  1  0.60814597  0.89538492  0.41256278  1
  Ta5+  Ta48  1  0.43191088  0.10641206  0.11263268  1
  Ta5+  Ta49  1  0.60352069  0.87717672  0.64191682  1
  Ta5+  Ta50  1  0.83375430  0.37075126  0.59145186  1
  Ta5+  Ta51  1  0.38798813  0.88238382  0.10894273  1
  Ta5+  Ta52  1  0.14873758  0.37904915  0.36778359  1
  Ta5+  Ta53  1  0.38747614  0.37890069  0.37208909  1
  Ta5+  Ta54  1  0.88629983  0.37044025  0.89062524  1
  Ta5+  Ta55  1  0.14743614  0.38299479  0.61707044  1
  Ta5+  Ta56  1  0.58440774  0.62500316  0.62873006  1
  Ta5+  Ta57  1  0.39976079  0.37883770  0.62862362  1
  Ta5+  Ta58  1  0.40511342  0.88424746  0.62364667  1
  Ta5+  Ta59  1  0.66122530  0.38088652  0.36734775  1
  Ta5+  Ta60  1  0.64257911  0.38957064  0.89285812  1
  Ta5+  Ta61  1  0.12822609  0.87543373  0.88084761  1
  Ta5+  Ta62  1  0.39249097  0.87184786  0.86949963  1
  Ta5+  Ta63  1  0.85915334  0.11497574  0.39589619  1
  Ta5+  Ta64  1  0.10326081  0.61314947  0.14091803  1
  Ta5+  Ta65  1  0.08780652  0.61507513  0.59377961  1
  Ta5+  Ta66  1  0.59840987  0.08882099  0.12800986  1
  Ta5+  Ta67  1  0.62624038  0.38579060  0.58684327  1
  Ta5+  Ta68  1  0.87146031  0.88821932  0.11974897  1
  Ta5+  Ta69  1  0.61067545  0.62432463  0.39694392  1
  Ta5+  Ta70  1  0.88877721  0.87297170  0.39254688  1
  Ta5+  Ta71  1  0.10016176  0.87578645  0.62158664  1
  Ta5+  Ta72  1  0.14215056  0.87565278  0.37355585  1
  Ta5+  Ta73  1  0.62342788  0.63788305  0.13584430  1
  Ta5+  Ta74  1  0.85852567  0.12091396  0.62620236  1
  W6+  W75  1  0.11810022  0.12294303  0.61223804  1
  W6+  W76  1  0.62727870  0.10168876  0.92060531  1
  W6+  W77  1  0.85914037  0.61931279  0.38509915  1
  W6+  W78  1  0.42548629  0.62787443  0.61293001  1
  W6+  W79  1  0.11169512  0.36596483  0.11546587  1
  W6+  W80  1  0.84810544  0.63122298  0.11778258  1
  W6+  W81  1  0.35679903  0.37355989  0.13954559  1
  W6+  W82  1  0.91376814  0.11584144  0.88537622  1
  O2-  O83  1  0.10048896  0.00423671  0.12278142  1
  O2-  O84  1  0.13783705  -0.00308831  0.37458639  1
  O2-  O85  1  0.12292176  -0.01075889  0.63772730  1
  O2-  O86  1  0.11703197  -0.00828094  0.85181461  1
  O2-  O87  1  0.08677474  0.49764067  0.13370376  1
  O2-  O88  1  0.12629805  0.50181576  0.37553729  1
  O2-  O89  1  0.13941329  0.50962689  0.62557356  1
  O2-  O90  1  0.15732232  0.49237864  0.87298214  1
  O2-  O91  1  0.36859233  0.00453846  0.11945918  1
  O2-  O92  1  0.39662775  0.00505693  0.37537926  1
  O2-  O93  1  0.39665902  0.00946084  0.63779761  1
  O2-  O94  1  0.39845506  -0.00553143  0.87320660  1
  O2-  O95  1  0.33694926  0.50655618  0.14522024  1
  O2-  O96  1  0.40075605  0.50194251  0.38079490  1
  O2-  O97  1  0.42533822  0.49110187  0.62300510  1
  O2-  O98  1  0.36273633  0.49718084  0.86717187  1
  O2-  O99  1  0.59702514  -0.03063832  0.13724096  1
  O2-  O100  1  0.59394304  0.01594605  0.42033999  1
  O2-  O101  1  0.62738885  -0.00013552  0.63272393  1
  O2-  O102  1  0.59385861  -0.00938034  0.86429182  1
  O2-  O103  1  0.63539395  0.51252693  0.13054710  1
  O2-  O104  1  0.64148090  0.50988771  0.37934384  1
  O2-  O105  1  0.60750898  0.49828211  0.61615450  1
  O2-  O106  1  0.66354661  0.51360487  0.89167004  1
  O2-  O107  1  0.85660272  0.00290029  0.14670482  1
  O2-  O108  1  0.89212214  -0.00901141  0.40667415  1
  O2-  O109  1  0.87165321  -0.00246604  0.63110115  1
  O2-  O110  1  0.91882939  -0.01205950  0.85920829  1
  O2-  O111  1  0.86570500  0.49734960  0.12928005  1
  O2-  O112  1  0.84087927  0.49309360  0.38320841  1
  O2-  O113  1  0.86492686  0.48101824  0.63265192  1
  O2-  O114  1  0.86936595  0.49492657  0.89385042  1
  O2-  O115  1  0.13012542  0.23319715  0.10061850  1
  O2-  O116  1  0.15426504  0.25260338  0.38769455  1
  O2-  O117  1  0.16959478  0.25336587  0.60092020  1
  O2-  O118  1  0.16275197  0.24207779  0.89361694  1
  O2-  O119  1  0.15220657  0.75192710  0.13107042  1
  O2-  O120  1  0.17362359  0.74864549  0.36499034  1
  O2-  O121  1  0.10849654  0.73597179  0.63156948  1
  O2-  O122  1  0.14325737  0.74237094  0.90197144  1
  O2-  O123  1  0.40649475  0.24357371  0.12985591  1
  O2-  O124  1  0.37343869  0.24609036  0.36299953  1
  O2-  O125  1  0.35437260  0.22927830  0.63535742  1
  O2-  O126  1  0.32624271  0.24543947  0.87060832  1
  O2-  O127  1  0.35445875  0.74912274  0.11862291  1
  O2-  O128  1  0.36328990  0.75306186  0.38950580  1
  O2-  O129  1  0.36539384  0.76234554  0.61849339  1
  O2-  O130  1  0.33922220  0.74472658  0.87268539  1
  O2-  O131  1  0.59116489  0.26051249  0.12560623  1
  O2-  O132  1  0.64834827  0.24986516  0.34540557  1
  O2-  O133  1  0.52455624  0.32993166  0.63194902  1
  O2-  O134  1  0.60457356  0.25199747  0.89809736  1
  O2-  O135  1  0.60525817  0.77578089  0.15000160  1
  O2-  O136  1  0.64058646  0.75240567  0.39947429  1
  O2-  O137  1  0.63522586  0.75191520  0.63228661  1
  O2-  O138  1  0.67268326  0.74263874  0.86815301  1
  O2-  O139  1  0.86411149  0.23954350  0.14583263  1
  O2-  O140  1  0.85069276  0.24025110  0.40203369  1
  O2-  O141  1  0.88312874  0.26281053  0.63094746  1
  O2-  O142  1  0.88204497  0.24405509  0.88022273  1
  O2-  O143  1  0.82193914  0.77131355  0.13341861  1
  O2-  O144  1  0.82533584  0.75638358  0.38435807  1
  O2-  O145  1  0.87978246  0.73984401  0.64334186  1
  O2-  O146  1  0.89074758  0.74232797  0.83821485  1
  O2-  O147  1  0.06369313  0.11751641  -0.02286616  1
  O2-  O148  1  0.08965827  0.13471866  0.25373148  1
  O2-  O149  1  0.08812569  0.12931204  0.47304295  1
  O2-  O150  1  0.10570092  0.15830880  0.75542984  1
  O2-  O151  1  0.16185706  0.61605983  0.02058989  1
  O2-  O152  1  0.04602682  0.63349060  0.27144024  1
  O2-  O153  1  0.15031747  0.64066570  0.48715097  1
  O2-  O154  1  0.16233355  0.64020413  0.77587696  1
  O2-  O155  1  0.38489375  0.15055217  -0.01074588  1
  O2-  O156  1  0.42598853  0.12515968  0.24606200  1
  O2-  O157  1  0.41927447  0.13773524  0.50027850  1
  O2-  O158  1  0.42864980  0.14438350  0.77334898  1
  O2-  O159  1  0.35131204  0.62552456  0.00042328  1
  O2-  O160  1  0.36700950  0.64905108  0.25763810  1
  O2-  O161  1  0.33177049  0.61988191  0.49846080  1
  O2-  O162  1  0.36962903  0.63156654  0.74715786  1
  O2-  O163  1  0.53189573  0.11960167  0.01787264  1
  O2-  O164  1  0.59461527  0.11249896  0.25803174  1
  O2-  O165  1  0.61245946  0.16962400  0.49347596  1
  O2-  O166  1  0.54547253  0.15126829  0.64808383  1
  O2-  O167  1  0.63665077  0.64945487  0.01077436  1
  O2-  O168  1  0.66278023  0.64742536  0.25965007  1
  O2-  O169  1  0.65447984  0.62741855  0.51853794  1
  O2-  O170  1  0.62003753  0.62647131  0.74898612  1
  O2-  O171  1  0.88220813  0.12213358  0.01942791  1
  O2-  O172  1  0.91022863  0.11962639  0.28424899  1
  O2-  O173  1  0.92257295  0.13637537  0.51659619  1
  O2-  O174  1  0.91622051  0.13006126  0.73681819  1
  O2-  O175  1  0.82915997  0.64478611  -0.02196461  1
  O2-  O176  1  0.85997144  0.65290377  0.25350318  1
  O2-  O177  1  0.82593004  0.62534241  0.52318480  1
  O2-  O178  1  0.82770793  0.60993656  0.75462125  1
  O2-  O179  1  0.07495159  0.36995894  -0.01641758  1
  O2-  O180  1  0.14793364  0.36954326  0.24795449  1
  O2-  O181  1  0.09723951  0.37481858  0.50107586  1
  O2-  O182  1  0.12790355  0.35081112  0.74472043  1
  O2-  O183  1  0.16126342  0.88124646  0.00371911  1
  O2-  O184  1  0.17215733  0.88337255  0.24228392  1
  O2-  O185  1  0.15707454  0.85829050  0.50866933  1
  O2-  O186  1  0.15486377  0.84121675  0.75678141  1
  O2-  O187  1  0.38550327  0.36380495  -0.00273819  1
  O2-  O188  1  0.43196073  0.37500685  0.25501245  1
  O2-  O189  1  0.39739228  0.34958004  0.50334845  1
  O2-  O190  1  0.40586351  0.34925535  0.75648566  1
  O2-  O191  1  0.33923584  0.87148915  -0.01643208  1
  O2-  O192  1  0.37210096  0.86493068  0.24651976  1
  O2-  O193  1  0.34181284  0.88660805  0.50642942  1
  O2-  O194  1  0.33962872  0.87200148  0.75116679  1
  O2-  O195  1  0.57896584  0.39435050  0.00339690  1
  O2-  O196  1  0.61096233  0.38376583  0.25208605  1
  O2-  O197  1  0.58468815  0.36599355  0.47196863  1
  O2-  O198  1  0.59136366  0.38744721  0.78469308  1
  O2-  O199  1  0.66233359  0.87223746  -0.00877225  1
  O2-  O200  1  0.68585947  0.89852166  0.32094203  1
  O2-  O201  1  0.66958074  0.87872389  0.52243331  1
  O2-  O202  1  0.66574455  0.86807960  0.75454408  1
  O2-  O203  1  0.90150653  0.35452472  0.01710401  1
  O2-  O204  1  0.88112892  0.36560977  0.26598808  1
  O2-  O205  1  0.91165221  0.36956041  0.49217635  1
  O2-  O206  1  0.94413404  0.38049267  0.78293553  1
  O2-  O207  1  0.85284514  0.87638180  -0.01176834  1
  O2-  O208  1  0.88002727  0.87043828  0.26307758  1
  O2-  O209  1  0.84290421  0.85777612  0.51785730  1
  O2-  O210  1  0.83330710  0.87128007  0.75325421  1
  O2-  O211  1  0.01079560  -0.15632054  -0.10541886  1
  O2-  O212  1  -0.00598166  -0.14188958  0.11597274  1
  O2-  O213  1  -0.00243622  -0.11659742  0.55325038  1
  O2-  O214  1  -0.00295767  -0.13715144  0.71402042  1
  O2-  O215  1  0.00670760  0.61856205  -0.11207087  1
  O2-  O216  1  -0.00580115  0.66210204  0.10955340  1
  O2-  O217  1  -0.01477366  0.59308746  0.53557828  1
  O2-  O218  1  -0.00200694  0.61203811  0.69769569  1
  O2-  O219  1  0.23895813  0.09518624  -0.04952545  1
  O2-  O220  1  0.25809103  0.11188397  0.28247773  1
  O2-  O221  1  0.26030348  0.12020516  0.44491145  1
  O2-  O222  1  0.25784377  0.10384696  0.78790947  1
  O2-  O223  1  0.24072877  0.36110579  0.08057259  1
  O2-  O224  1  0.19612564  0.61646764  0.23441127  1
  O2-  O225  1  0.26558110  0.38463809  0.40840587  1
  O2-  O226  1  0.27249075  0.38451318  0.63037696  1
  O2-  O227  1  0.50452766  -0.16492175  -0.07893821  1
  O2-  O228  1  0.49902892  -0.14405185  0.36606054  1
  O2-  O229  1  0.50765423  -0.12046656  0.55012221  1
  O2-  O230  1  0.49965866  -0.13158404  0.71503271  1
  O2-  O231  1  0.49959306  0.63517752  0.13467718  1
  O2-  O232  1  0.50962092  0.64741893  0.32479158  1
  O2-  O233  1  0.49917257  0.62884185  0.48318717  1
  O2-  O234  1  0.50203905  0.62871142  0.88664287  1
  O2-  O235  1  0.68675670  0.13343962  0.03627263  1
  O2-  O236  1  0.75013704  0.08983327  0.34397120  1
  O2-  O237  1  0.76570439  0.09105801  0.51900036  1
  O2-  O238  1  0.74272072  0.15316858  0.67233488  1
  O2-  O239  1  0.75780627  0.35569224  -0.09950633  1
  O2-  O240  1  0.74610399  0.35733924  0.10765703  1
  O2-  O241  1  0.74427866  0.38058815  0.49690767  1
  O2-  O242  1  0.72339924  0.34821665  0.65616370  1
