# generated using pymatgen
data_Gd19Ta56(WO20)8
_symmetry_space_group_name_H-M   'P 1'
_cell_length_a   15.53100967
_cell_length_b   15.47022679
_cell_length_c   15.35114764
_cell_angle_alpha   89.63834597
_cell_angle_beta   90.14568438
_cell_angle_gamma   90.03245899
_symmetry_Int_Tables_number   1
_chemical_formula_structural   Gd19Ta56(WO20)8
_chemical_formula_sum   'Gd19 Ta56 W8 O160'
_cell_volume   3688.30729577
_cell_formula_units_Z   1
loop_
 _symmetry_equiv_pos_site_id
 _symmetry_equiv_pos_as_xyz
  1  'x, y, z'
loop_
 _atom_type_symbol
 _atom_type_oxidation_number
  Gd3+  3.0
  Ta5+  5.0
  W6+  6.0
  O2-  -2.0
loop_
 _atom_site_type_symbol
 _atom_site_label
 _atom_site_symmetry_multiplicity
 _atom_site_fract_x
 _atom_site_fract_y
 _atom_site_fract_z
 _atom_site_occupancy
  Gd3+  Gd0  1  -0.01572621  0.74876357  0.00197818  1
  Gd3+  Gd1  1  0.24822132  0.24612186  0.74269705  1
  Gd3+  Gd2  1  -0.04032137  0.77688459  0.75492177  1
  Gd3+  Gd3  1  0.74537455  0.75064556  0.50195232  1
  Gd3+  Gd4  1  0.75699485  0.27216606  0.53541454  1
  Gd3+  Gd5  1  0.01111952  0.26136915  0.72775056  1
  Gd3+  Gd6  1  0.24856676  0.73447405  -0.00203502  1
  Gd3+  Gd7  1  0.74887298  0.76013118  -0.01200802  1
  Gd3+  Gd8  1  0.50629148  0.75241669  0.00354569  1
  Gd3+  Gd9  1  -0.01441945  0.74599741  0.48482414  1
  Gd3+  Gd10  1  -0.00688550  0.29152797  0.47059816  1
  Gd3+  Gd11  1  0.51898673  0.24074224  -0.01171044  1
  Gd3+  Gd12  1  0.21949341  0.73364413  0.72614773  1
  Gd3+  Gd13  1  0.48062527  0.74285279  0.75417560  1
  Gd3+  Gd14  1  0.27692292  0.24817698  0.01049848  1
  Gd3+  Gd15  1  0.25771549  0.21615227  0.48694169  1
  Gd3+  Gd16  1  0.23262543  0.74377108  0.48078863  1
  Gd3+  Gd17  1  -0.00011612  0.25452916  0.00467087  1
  Gd3+  Gd18  1  0.52085859  0.25868368  0.26883652  1
  Ta5+  Ta19  1  0.38453769  0.11865915  0.14103102  1
  Ta5+  Ta20  1  0.65160130  0.38109960  0.37992049  1
  Ta5+  Ta21  1  0.37287530  0.11691540  0.87521463  1
  Ta5+  Ta22  1  0.14422330  0.38053992  0.12650615  1
  Ta5+  Ta23  1  0.36898878  0.61376641  0.60848513  1
  Ta5+  Ta24  1  0.13161768  0.12066657  0.89091520  1
  Ta5+  Ta25  1  0.59861441  0.36519345  0.63244778  1
  Ta5+  Ta26  1  0.14029662  0.38645161  0.89617672  1
  Ta5+  Ta27  1  0.63938819  0.37707804  0.86812821  1
  Ta5+  Ta28  1  0.12866272  0.86777342  0.13279045  1
  Ta5+  Ta29  1  0.10551066  0.88823509  0.37240954  1
  Ta5+  Ta30  1  0.60197166  0.86641765  0.61785676  1
  Ta5+  Ta31  1  0.85264110  0.36997986  0.12372585  1
  Ta5+  Ta32  1  0.41066226  0.11810604  0.62427445  1
  Ta5+  Ta33  1  0.85338186  0.62239578  0.87098329  1
  Ta5+  Ta34  1  0.04597017  0.07570953  0.56529752  1
  Ta5+  Ta35  1  0.34228917  0.36708466  0.36021773  1
  Ta5+  Ta36  1  0.13399257  0.11813880  0.12212881  1
  Ta5+  Ta37  1  0.87175201  0.61523796  0.12470072  1
  Ta5+  Ta38  1  0.36353573  0.61363461  0.36323582  1
  Ta5+  Ta39  1  0.12107533  0.87710510  0.87231867  1
  Ta5+  Ta40  1  0.17375546  0.36531724  0.36379225  1
  Ta5+  Ta41  1  0.36399923  0.36658683  0.61361865  1
  Ta5+  Ta42  1  0.85054967  0.94476363  0.87238190  1
  Ta5+  Ta43  1  0.38158966  0.87214211  0.12399438  1
  Ta5+  Ta44  1  0.87246179  0.37519902  0.86407205  1
  Ta5+  Ta45  1  0.85155300  0.14584319  0.87187863  1
  Ta5+  Ta46  1  0.65149176  0.10423766  0.63449761  1
  Ta5+  Ta47  1  0.09117391  0.53290156  0.38592286  1
  Ta5+  Ta48  1  0.90526261  0.43215477  0.61850624  1
  Ta5+  Ta49  1  0.62959398  0.63084907  0.13196945  1
  Ta5+  Ta50  1  0.60709146  0.62665702  0.37960769  1
  Ta5+  Ta51  1  0.09666207  0.62656098  0.87693357  1
  Ta5+  Ta52  1  0.88721440  0.59118688  0.62287239  1
  Ta5+  Ta53  1  0.81974738  0.38544453  0.37201557  1
  Ta5+  Ta54  1  0.63153947  0.12250575  0.13373913  1
  Ta5+  Ta55  1  0.11499794  0.88350997  0.61841645  1
  Ta5+  Ta56  1  0.87308596  0.13233482  0.13264566  1
  Ta5+  Ta57  1  0.83680964  0.14411214  0.37748881  1
  Ta5+  Ta58  1  0.88215906  0.88879680  0.12563179  1
  Ta5+  Ta59  1  0.66995543  0.12188090  0.88097080  1
  Ta5+  Ta60  1  0.40020726  0.11795417  0.36718469  1
  Ta5+  Ta61  1  0.61500396  0.89224734  0.37930665  1
  Ta5+  Ta62  1  0.37269563  0.87061240  0.36420636  1
  Ta5+  Ta63  1  0.36167176  0.87438096  0.87749869  1
  Ta5+  Ta64  1  0.14308960  0.42313549  0.56862345  1
  Ta5+  Ta65  1  0.39270580  0.37568858  0.12615465  1
  Ta5+  Ta66  1  0.11570201  0.62392154  0.14939350  1
  Ta5+  Ta67  1  0.60510652  0.61418278  0.61690907  1
  Ta5+  Ta68  1  0.66636045  0.13841343  0.38328571  1
  Ta5+  Ta69  1  0.36185646  0.40013032  0.86609667  1
  Ta5+  Ta70  1  0.86012954  0.89466483  0.37648506  1
  Ta5+  Ta71  1  0.10266266  0.13022532  0.35856290  1
  Ta5+  Ta72  1  0.61585838  0.88803950  0.86994472  1
  Ta5+  Ta73  1  0.38354342  0.61028997  0.11860673  1
  Ta5+  Ta74  1  0.87335438  0.11795329  0.62858162  1
  W6+  W75  1  0.63746301  0.87927874  0.13668038  1
  W6+  W76  1  0.06573981  0.61674603  0.61943774  1
  W6+  W77  1  0.34666239  0.59674172  0.87086596  1
  W6+  W78  1  0.85523623  0.62675505  0.36841728  1
  W6+  W79  1  0.61014990  0.62167989  0.87051805  1
  W6+  W80  1  0.35845727  0.87009959  0.61767280  1
  W6+  W81  1  0.62071449  0.38540167  0.12272830  1
  W6+  W82  1  0.88933805  0.94613859  0.61294868  1
  O2-  O83  1  0.14029070  -0.01106477  0.12371852  1
  O2-  O84  1  0.13451375  0.01062461  0.35417604  1
  O2-  O85  1  0.22991550  -0.13024668  0.66216503  1
  O2-  O86  1  0.10996847  -0.00210082  0.87449952  1
  O2-  O87  1  0.14718292  0.51157348  0.11699220  1
  O2-  O88  1  0.03862024  0.42175261  0.38892625  1
  O2-  O89  1  0.16830763  0.52174577  0.63158794  1
  O2-  O90  1  0.11126723  0.50411155  0.87354659  1
  O2-  O91  1  0.38751527  -0.00687729  0.12385878  1
  O2-  O92  1  0.36949325  -0.00754650  0.36046440  1
  O2-  O93  1  0.39227100  0.00195362  0.62356804  1
  O2-  O94  1  0.39095662  -0.00653124  0.88187654  1
  O2-  O95  1  0.42663517  0.49479359  0.10903702  1
  O2-  O96  1  0.35208338  0.49371095  0.36734363  1
  O2-  O97  1  0.37080184  0.48918300  0.61353353  1
  O2-  O98  1  0.44199899  0.48791490  0.87811895  1
  O2-  O99  1  0.59797737  0.00897296  0.14234183  1
  O2-  O100  1  0.62210476  0.01259676  0.38820055  1
  O2-  O101  1  0.60786666  -0.00780497  0.61865599  1
  O2-  O102  1  0.59954767  0.00584245  0.87681632  1
  O2-  O103  1  0.66640847  0.51781292  0.11902325  1
  O2-  O104  1  0.63093649  0.50610812  0.38100648  1
  O2-  O105  1  0.60182639  0.49294824  0.62742748  1
  O2-  O106  1  0.65873301  0.49392008  0.87009956  1
  O2-  O107  1  0.90815944  0.01516879  0.12164064  1
  O2-  O108  1  0.83578456  0.01225477  0.38060986  1
  O2-  O109  1  0.96972694  0.04616589  0.67688192  1
  O2-  O110  1  0.92811598  0.03974367  0.87006444  1
  O2-  O111  1  0.88855738  0.49328088  0.11643897  1
  O2-  O112  1  0.85498347  0.50086028  0.37961907  1
  O2-  O113  1  0.98397133  0.51924173  0.67907198  1
  O2-  O114  1  0.85435805  0.49686909  0.86614390  1
  O2-  O115  1  0.13250121  0.25041035  0.10469998  1
  O2-  O116  1  0.18102094  0.22312198  0.34690808  1
  O2-  O117  1  0.23348571  0.35600297  0.63284811  1
  O2-  O118  1  0.14168589  0.24812343  0.92708263  1
  O2-  O119  1  0.17450471  0.73699356  0.14054645  1
  O2-  O120  1  0.10607614  0.76427857  0.40045102  1
  O2-  O121  1  0.13202709  0.74543069  0.59510844  1
  O2-  O122  1  0.05766985  0.76457323  0.87653800  1
  O2-  O123  1  0.38814398  0.24544613  0.13814345  1
  O2-  O124  1  0.37361454  0.23747276  0.35284776  1
  O2-  O125  1  0.33401261  0.22642149  0.62000457  1
  O2-  O126  1  0.32864326  0.24684206  0.86976905  1
  O2-  O127  1  0.36283882  0.73853454  0.09812651  1
  O2-  O128  1  0.32984185  0.74106882  0.36312029  1
  O2-  O129  1  0.31694737  0.73319149  0.61005236  1
  O2-  O130  1  0.38920844  0.74252907  0.90004410  1
  O2-  O131  1  0.57684955  0.24621735  0.12638516  1
  O2-  O132  1  0.61256975  0.25568345  0.39145354  1
  O2-  O133  1  0.66400510  0.25854512  0.64822156  1
  O2-  O134  1  0.61688698  0.23704774  0.87445377  1
  O2-  O135  1  0.68435826  0.74464131  0.12908747  1
  O2-  O136  1  0.64178335  0.74940152  0.39233043  1
  O2-  O137  1  0.65005004  0.74579182  0.61902644  1
  O2-  O138  1  0.56858418  0.75860432  0.86905705  1
  O2-  O139  1  0.92123941  0.26114188  0.13168661  1
  O2-  O140  1  0.87333817  0.26928749  0.37947793  1
  O2-  O141  1  0.99615622  0.19110542  0.59425513  1
  O2-  O142  1  0.94452380  0.25678029  0.86539307  1
  O2-  O143  1  0.86472092  0.76124902  0.09807299  1
  O2-  O144  1  0.86339342  0.76012919  0.38149849  1
  O2-  O145  1  0.99082251  0.84309105  0.60557774  1
  O2-  O146  1  0.88352716  0.75144402  0.89216670  1
  O2-  O147  1  0.07087833  0.11468474  0.01004050  1
  O2-  O148  1  0.07804558  0.12849053  0.22974751  1
  O2-  O149  1  -0.00695432  0.15171242  0.40448575  1
  O2-  O150  1  0.12531359  0.16074615  0.77301428  1
  O2-  O151  1  0.11671844  0.65659721  0.00495945  1
  O2-  O152  1  0.10244040  0.60054969  0.26921171  1
  O2-  O153  1  0.05602385  0.60683945  0.47665727  1
  O2-  O154  1  0.21999155  0.66551838  0.86384370  1
  O2-  O155  1  0.39903712  0.14074329  0.00292704  1
  O2-  O156  1  0.45059039  0.11393130  0.24639653  1
  O2-  O157  1  0.39838982  0.12775770  0.49537065  1
  O2-  O158  1  0.36583245  0.12836162  0.75012282  1
  O2-  O159  1  0.31331056  0.59826345  0.01579721  1
  O2-  O160  1  0.34337159  0.61439725  0.23452145  1
  O2-  O161  1  0.32212724  0.61903275  0.48689528  1
  O2-  O162  1  0.37331797  0.63380618  0.73485486  1
  O2-  O163  1  0.62209502  0.12982150  0.00544054  1
  O2-  O164  1  0.62982551  0.14958633  0.25832932  1
  O2-  O165  1  0.66871498  0.14496377  0.51559538  1
  O2-  O166  1  0.67398691  0.11073220  0.75638902  1
  O2-  O167  1  0.62699537  0.65910466  0.00224092  1
  O2-  O168  1  0.61900582  0.63248348  0.25678507  1
  O2-  O169  1  0.66218111  0.62154135  0.50225491  1
  O2-  O170  1  0.58065749  0.63270287  0.73728947  1
  O2-  O171  1  0.88032810  0.16073532  0.00102161  1
  O2-  O172  1  0.87836357  0.13839213  0.25413127  1
  O2-  O173  1  0.84940708  0.15783949  0.50954612  1
  O2-  O174  1  0.86251064  0.16924767  0.74649036  1
  O2-  O175  1  0.82303738  0.62439174  0.00947600  1
  O2-  O176  1  0.82328512  0.62878660  0.23187608  1
  O2-  O177  1  0.87154576  0.64394587  0.50629256  1
  O2-  O178  1  0.88461597  0.64289835  0.75159682  1
  O2-  O179  1  0.07553269  0.38683675  0.00640040  1
  O2-  O180  1  0.12251060  0.37052712  0.24308098  1
  O2-  O181  1  0.14498922  0.31246742  0.48708832  1
  O2-  O182  1  0.12794329  0.34025051  0.78252295  1
  O2-  O183  1  0.13721453  0.84902383  0.00351061  1
  O2-  O184  1  0.14545364  0.86301485  0.25679655  1
  O2-  O185  1  0.14469816  0.89507647  0.49406570  1
  O2-  O186  1  0.08604553  0.86215771  0.74826619  1
  O2-  O187  1  0.40180949  0.34446585  -0.00772204  1
  O2-  O188  1  0.41428386  0.37447378  0.24864689  1
  O2-  O189  1  0.34595744  0.34796261  0.49110228  1
  O2-  O190  1  0.37063506  0.35387385  0.74762443  1
  O2-  O191  1  0.32363233  0.87314814  0.00819141  1
  O2-  O192  1  0.33748933  0.86148140  0.23988691  1
  O2-  O193  1  0.32334253  0.86371819  0.47780610  1
  O2-  O194  1  0.38719677  0.85587139  0.75481363  1
  O2-  O195  1  0.58896825  0.37050839  -0.01870866  1
  O2-  O196  1  0.61924780  0.36966416  0.25686386  1
  O2-  O197  1  0.64988811  0.37338200  0.51587576  1
  O2-  O198  1  0.57901525  0.37222470  0.76092596  1
  O2-  O199  1  0.61821178  0.85633040  -0.00218208  1
  O2-  O200  1  0.66131246  0.88015335  0.27031835  1
  O2-  O201  1  0.65794266  0.87423349  0.49997895  1
  O2-  O202  1  0.59074129  0.86639221  0.74441937  1
  O2-  O203  1  0.89601892  0.36628290  -0.01243275  1
  O2-  O204  1  0.83058819  0.37561958  0.24226111  1
  O2-  O205  1  0.87066969  0.37546091  0.50534759  1
  O2-  O206  1  0.91881677  0.37661511  0.74625535  1
  O2-  O207  1  0.87390200  0.89918740  -0.01102128  1
  O2-  O208  1  0.85657026  0.88579342  0.24407201  1
  O2-  O209  1  0.83815838  0.87399147  0.50103201  1
  O2-  O210  1  0.87735413  0.89914862  0.75890828  1
  O2-  O211  1  0.00742987  -0.14371323  0.12526151  1
  O2-  O212  1  -0.01449443  -0.10785114  0.37051472  1
  O2-  O213  1  -0.02762868  -0.00030259  0.50954911  1
  O2-  O214  1  0.12664136  0.00678001  0.63169898  1
  O2-  O215  1  -0.02226575  0.61598016  -0.08178926  1
  O2-  O216  1  -0.00683638  0.64528443  0.12587807  1
  O2-  O217  1  0.03185770  0.36642517  0.60470700  1
  O2-  O218  1  0.08410145  0.65756131  0.75595018  1
  O2-  O219  1  0.24870557  0.10319156  -0.08439306  1
  O2-  O220  1  0.25530372  0.12554503  0.11313247  1
  O2-  O221  1  0.14096181  0.12441910  0.49229030  1
  O2-  O222  1  0.23759904  -0.16120469  0.85311437  1
  O2-  O223  1  0.25147767  0.38119934  -0.05588669  1
  O2-  O224  1  0.26569202  0.37024151  0.11917840  1
  O2-  O225  1  0.18426923  0.47812004  0.45841820  1
  O2-  O226  1  0.28191994  0.48229066  0.82494612  1
  O2-  O227  1  0.49825825  -0.15658179  0.12612019  1
  O2-  O228  1  0.49326254  -0.14172313  0.37330092  1
  O2-  O229  1  0.49035679  -0.16436968  0.59350235  1
  O2-  O230  1  0.52653231  0.14147902  0.64039304  1
  O2-  O231  1  0.50441476  0.64748705  0.12011298  1
  O2-  O232  1  0.48420589  0.62966379  0.38250380  1
  O2-  O233  1  0.48650301  0.63796076  0.58263778  1
  O2-  O234  1  0.48531680  0.33643211  0.60282053  1
  O2-  O235  1  0.77031613  0.04250169  -0.09278782  1
  O2-  O236  1  0.75332379  0.12723676  0.12791124  1
  O2-  O237  1  0.77461201  0.03898213  0.62724518  1
  O2-  O238  1  0.73804040  -0.12892660  0.87205930  1
  O2-  O239  1  0.75766531  0.34006048  -0.14924658  1
  O2-  O240  1  0.74574100  0.34170175  0.08310883  1
  O2-  O241  1  0.79684321  0.50542185  0.61462468  1
  O2-  O242  1  0.73963951  0.66627815  0.86381744  1
