# generated using pymatgen
data_Gd19Ta56(WO20)8
_symmetry_space_group_name_H-M   'P 1'
_cell_length_a   15.56701882
_cell_length_b   15.53302620
_cell_length_c   15.30708627
_cell_angle_alpha   90.05393312
_cell_angle_beta   89.87056829
_cell_angle_gamma   89.99985327
_symmetry_Int_Tables_number   1
_chemical_formula_structural   Gd19Ta56(WO20)8
_chemical_formula_sum   'Gd19 Ta56 W8 O160'
_cell_volume   3701.28693891
_cell_formula_units_Z   1
loop_
 _symmetry_equiv_pos_site_id
 _symmetry_equiv_pos_as_xyz
  1  'x, y, z'
loop_
 _atom_type_symbol
 _atom_type_oxidation_number
  Gd3+  3.0
  Ta5+  5.0
  W6+  6.0
  O2-  -2.0
loop_
 _atom_site_type_symbol
 _atom_site_label
 _atom_site_symmetry_multiplicity
 _atom_site_fract_x
 _atom_site_fract_y
 _atom_site_fract_z
 _atom_site_occupancy
  Gd3+  Gd0  1  0.49315765  0.74439581  0.50806949  1
  Gd3+  Gd1  1  0.77566404  0.75710287  0.49296718  1
  Gd3+  Gd2  1  0.50909767  0.74983305  0.75803214  1
  Gd3+  Gd3  1  0.50093106  0.25948460  0.76518530  1
  Gd3+  Gd4  1  0.47804694  0.26501276  0.01641800  1
  Gd3+  Gd5  1  -0.00058098  0.74380795  0.75101979  1
  Gd3+  Gd6  1  0.75984647  0.26099745  0.75021655  1
  Gd3+  Gd7  1  0.00611442  0.24348837  -0.00020811  1
  Gd3+  Gd8  1  0.25644862  0.25992881  0.50358972  1
  Gd3+  Gd9  1  0.75803827  0.72396477  0.74836624  1
  Gd3+  Gd10  1  0.03427799  0.27394062  0.48103588  1
  Gd3+  Gd11  1  -0.00095232  0.22824476  0.25110147  1
  Gd3+  Gd12  1  0.02340175  0.77318984  0.23473407  1
  Gd3+  Gd13  1  0.00696116  0.76396814  0.48797651  1
  Gd3+  Gd14  1  0.75778124  0.25253926  0.49749919  1
  Gd3+  Gd15  1  -0.01864050  0.76195954  0.00155928  1
  Gd3+  Gd16  1  0.25011872  0.74161144  0.26546886  1
  Gd3+  Gd17  1  0.24230797  0.22120957  0.24871305  1
  Gd3+  Gd18  1  0.74735319  0.75319692  0.23567123  1
  Ta5+  Ta19  1  0.88760081  0.62138194  0.13706631  1
  Ta5+  Ta20  1  0.36626083  0.88037086  0.63248053  1
  Ta5+  Ta21  1  0.61593089  0.87774754  0.36861298  1
  Ta5+  Ta22  1  0.61364122  0.12561216  0.37237675  1
  Ta5+  Ta23  1  0.38203735  0.87051215  0.37713021  1
  Ta5+  Ta24  1  0.87352536  0.38178066  0.87968874  1
  Ta5+  Ta25  1  0.12623576  0.87793110  0.62350851  1
  Ta5+  Ta26  1  0.37080940  0.12127525  0.88175433  1
  Ta5+  Ta27  1  0.63519321  0.37020264  0.12853225  1
  Ta5+  Ta28  1  0.15052979  0.91647738  0.84733137  1
  Ta5+  Ta29  1  0.13094418  0.37563146  0.87215935  1
  Ta5+  Ta30  1  0.35442084  0.63075314  0.85693551  1
  Ta5+  Ta31  1  0.08014460  0.62296546  0.35931714  1
  Ta5+  Ta32  1  0.13383271  0.61917059  0.60939235  1
  Ta5+  Ta33  1  0.62734273  0.61138391  0.62027712  1
  Ta5+  Ta34  1  0.38740663  0.61820247  0.37779542  1
  Ta5+  Ta35  1  0.86059332  0.12582197  0.87386340  1
  Ta5+  Ta36  1  0.85151735  0.87870330  0.87300417  1
  Ta5+  Ta37  1  0.38225878  0.12868064  0.62760981  1
  Ta5+  Ta38  1  0.13023409  0.14124472  0.84547791  1
  Ta5+  Ta39  1  0.36745527  0.11658010  0.12859409  1
  Ta5+  Ta40  1  0.88089013  0.61926973  0.62007965  1
  Ta5+  Ta41  1  0.12955065  0.10697644  0.37511667  1
  Ta5+  Ta42  1  0.63863666  0.62159233  0.87841876  1
  Ta5+  Ta43  1  0.87230629  0.37522966  0.12867059  1
  Ta5+  Ta44  1  0.35845764  0.62293130  0.64657044  1
  Ta5+  Ta45  1  0.39141326  0.37616906  0.36128721  1
  Ta5+  Ta46  1  0.37397912  0.86914929  0.12128701  1
  Ta5+  Ta47  1  0.38073450  0.11598006  0.37663581  1
  Ta5+  Ta48  1  0.10332283  0.38530327  0.66027102  1
  Ta5+  Ta49  1  0.88662352  0.38884043  0.37999737  1
  Ta5+  Ta50  1  0.38532211  0.88205681  0.87193824  1
  Ta5+  Ta51  1  0.90244794  0.12707507  0.63472146  1
  Ta5+  Ta52  1  0.34982082  0.38466632  0.88316719  1
  Ta5+  Ta53  1  0.60985027  0.11578010  0.12408974  1
  Ta5+  Ta54  1  0.87834731  0.61171760  0.87902373  1
  Ta5+  Ta55  1  0.36573240  0.62714937  0.10953646  1
  Ta5+  Ta56  1  0.14037602  0.37303898  0.12098606  1
  Ta5+  Ta57  1  0.10854003  0.12573144  0.62972956  1
  Ta5+  Ta58  1  0.85241902  0.13220522  0.12500390  1
  Ta5+  Ta59  1  0.62672118  0.37469689  0.37724424  1
  Ta5+  Ta60  1  0.38906479  0.37702228  0.62675610  1
  Ta5+  Ta61  1  0.63433141  0.62177349  0.37207347  1
  Ta5+  Ta62  1  0.86804308  0.88333001  0.64738554  1
  Ta5+  Ta63  1  0.62687468  0.87594356  0.62721346  1
  Ta5+  Ta64  1  0.12698375  0.39598077  0.33482696  1
  Ta5+  Ta65  1  0.13019466  0.61444210  0.86525829  1
  Ta5+  Ta66  1  0.90069535  0.38587581  0.63569752  1
  Ta5+  Ta67  1  0.68402484  0.87840386  0.86995633  1
  Ta5+  Ta68  1  0.60915839  0.62011550  0.12404536  1
  Ta5+  Ta69  1  0.62657364  0.12299485  0.62343311  1
  Ta5+  Ta70  1  0.63189711  0.12129301  0.88179717  1
  Ta5+  Ta71  1  0.61144259  0.86882907  0.11062160  1
  Ta5+  Ta72  1  0.91178951  0.62869316  0.35879654  1
  Ta5+  Ta73  1  0.62902748  0.38392355  0.89143888  1
  Ta5+  Ta74  1  0.12792398  0.61857465  0.10464859  1
  W6+  W75  1  0.30746490  0.38133715  0.12376325  1
  W6+  W76  1  0.14087672  0.87813750  0.09778230  1
  W6+  W77  1  0.12694461  0.88827651  0.36910686  1
  W6+  W78  1  0.13562805  0.11124268  0.10667467  1
  W6+  W79  1  0.63920569  0.38606184  0.62888787  1
  W6+  W80  1  0.88893148  0.89099384  0.13732548  1
  W6+  W81  1  0.86494107  0.11706879  0.38741168  1
  W6+  W82  1  0.87528596  0.89735603  0.35960376  1
  O2-  O83  1  0.18821668  -0.01041697  0.09776452  1
  O2-  O84  1  0.06542376  0.01129768  0.39291000  1
  O2-  O85  1  0.12116614  0.00475595  0.63444424  1
  O2-  O86  1  0.09320203  0.02257337  0.83081564  1
  O2-  O87  1  0.13259090  0.49410933  0.12444696  1
  O2-  O88  1  0.14129793  0.51282356  0.33784037  1
  O2-  O89  1  0.14529895  0.49379216  0.61830048  1
  O2-  O90  1  0.10610730  0.49346894  0.86368699  1
  O2-  O91  1  0.37587840  -0.00979718  0.12821977  1
  O2-  O92  1  0.39043358  -0.00438561  0.38066521  1
  O2-  O93  1  0.35645442  0.00964961  0.63074627  1
  O2-  O94  1  0.41549603  0.00863658  0.87625567  1
  O2-  O95  1  0.32236481  0.51850698  0.11759903  1
  O2-  O96  1  0.36068092  0.49620923  0.38107374  1
  O2-  O97  1  0.36104112  0.49686156  0.63710269  1
  O2-  O98  1  0.33276190  0.50183259  0.86566861  1
  O2-  O99  1  0.60287653  -0.00615764  0.12697807  1
  O2-  O100  1  0.61230042  -0.00026766  0.37021203  1
  O2-  O101  1  0.63496460  0.00345286  0.63671372  1
  O2-  O102  1  0.66093470  0.00849138  0.86018074  1
  O2-  O103  1  0.62662084  0.49687279  0.13471434  1
  O2-  O104  1  0.63517565  0.49774883  0.36795167  1
  O2-  O105  1  0.57586511  0.50502128  0.62938044  1
  O2-  O106  1  0.59666201  0.49648708  0.86549997  1
  O2-  O107  1  0.88830967  0.02242830  0.11350273  1
  O2-  O108  1  0.81203588  -0.00553072  0.39543700  1
  O2-  O109  1  0.89096201  0.00465965  0.63518853  1
  O2-  O110  1  0.86891500  0.00718665  0.87665293  1
  O2-  O111  1  0.87072564  0.49491276  0.12886274  1
  O2-  O112  1  0.87436203  0.50777472  0.38067047  1
  O2-  O113  1  0.86120190  0.49850250  0.60827604  1
  O2-  O114  1  0.92000305  0.49492553  0.88535823  1
  O2-  O115  1  0.10041925  0.24538735  0.12473338  1
  O2-  O116  1  0.11672221  0.24261552  0.35146239  1
  O2-  O117  1  0.12994865  0.27304274  0.60791142  1
  O2-  O118  1  0.08136646  0.25674510  0.84992316  1
  O2-  O119  1  0.10414342  0.74709858  0.09128219  1
  O2-  O120  1  0.12066484  0.74759125  0.37456242  1
  O2-  O121  1  0.09080523  0.74757367  0.61604574  1
  O2-  O122  1  0.05990435  0.71494108  0.88467165  1
  O2-  O123  1  0.32778592  0.23909982  0.12473244  1
  O2-  O124  1  0.33331672  0.26277232  0.36803763  1
  O2-  O125  1  0.33680204  0.25480467  0.63402674  1
  O2-  O126  1  0.40285190  0.24873747  0.88427347  1
  O2-  O127  1  0.31727384  0.74492702  0.12596817  1
  O2-  O128  1  0.34243067  0.74199538  0.38992033  1
  O2-  O129  1  0.40283098  0.74731363  0.63817454  1
  O2-  O130  1  0.38390019  0.75886451  0.84963951  1
  O2-  O131  1  0.59116821  0.25023113  0.11126259  1
  O2-  O132  1  0.66417013  0.24697770  0.37677396  1
  O2-  O133  1  0.68181659  0.24353077  0.62581726  1
  O2-  O134  1  0.57694125  0.25988263  0.89736040  1
  O2-  O135  1  0.65432261  0.74328839  0.11584320  1
  O2-  O136  1  0.67373532  0.75174746  0.37709169  1
  O2-  O137  1  0.58591307  0.74620290  0.62413851  1
  O2-  O138  1  0.66865676  0.74597138  0.87395744  1
  O2-  O139  1  0.91880320  0.24928321  0.12696352  1
  O2-  O140  1  0.92260111  0.25106105  0.38629682  1
  O2-  O141  1  0.87519433  0.26088639  0.64319633  1
  O2-  O142  1  0.89340577  0.25948263  0.85735146  1
  O2-  O143  1  0.89945265  0.75176579  0.14789510  1
  O2-  O144  1  0.91650662  0.76248792  0.35181516  1
  O2-  O145  1  0.87616621  0.75023237  0.65290635  1
  O2-  O146  1  0.87009170  0.74297496  0.85135063  1
  O2-  O147  1  0.10764868  0.13643374  -0.03120624  1
  O2-  O148  1  0.11680429  0.11478471  0.24708911  1
  O2-  O149  1  0.15835201  0.14241108  0.50411744  1
  O2-  O150  1  0.18497701  0.15155301  0.72526017  1
  O2-  O151  1  0.17134386  0.61282331  -0.01397344  1
  O2-  O152  1  0.13377298  0.64820109  0.23308340  1
  O2-  O153  1  0.08158844  0.61656642  0.49595475  1
  O2-  O154  1  0.10287644  0.62554841  0.73508799  1
  O2-  O155  1  0.40168219  0.13072842  0.00429143  1
  O2-  O156  1  0.39183409  0.13265330  0.25134442  1
  O2-  O157  1  0.35226931  0.14130540  0.50435759  1
  O2-  O158  1  0.40049108  0.14167009  0.75565636  1
  O2-  O159  1  0.36664196  0.63584465  -0.01703030  1
  O2-  O160  1  0.35344685  0.63248130  0.25509464  1
  O2-  O161  1  0.40263774  0.62615111  0.50941583  1
  O2-  O162  1  0.43887132  0.61605286  0.75126254  1
  O2-  O163  1  0.58044590  0.11674078  -0.00499424  1
  O2-  O164  1  0.60343016  0.13205640  0.24803496  1
  O2-  O165  1  0.64778232  0.12632970  0.50072489  1
  O2-  O166  1  0.60956986  0.15247937  0.75638892  1
  O2-  O167  1  0.63051253  0.61436801  0.00138570  1
  O2-  O168  1  0.64616470  0.63692021  0.24539743  1
  O2-  O169  1  0.60566266  0.63521057  0.49590056  1
  O2-  O170  1  0.62500235  0.63922258  0.74744939  1
  O2-  O171  1  0.88579358  0.15133122  -0.00308019  1
  O2-  O172  1  0.87522449  0.13919663  0.24757023  1
  O2-  O173  1  0.83468015  0.13310763  0.52990925  1
  O2-  O174  1  0.83057967  0.13130646  0.74440675  1
  O2-  O175  1  0.87403042  0.64259788  0.00205400  1
  O2-  O176  1  0.83357392  0.62853152  0.25028141  1
  O2-  O177  1  0.89081627  0.65890049  0.49416418  1
  O2-  O178  1  0.90464707  0.61035678  0.74742050  1
  O2-  O179  1  0.10099098  0.36404789  -0.00215615  1
  O2-  O180  1  0.05715283  0.36574618  0.22872464  1
  O2-  O181  1  0.17467720  0.36568455  0.44598057  1
  O2-  O182  1  0.18505618  0.37301315  0.75220275  1
  O2-  O183  1  0.12737116  0.87612419  -0.04400254  1
  O2-  O184  1  0.15251997  0.85201499  0.23203168  1
  O2-  O185  1  0.09597267  0.88222482  0.50598188  1
  O2-  O186  1  0.11305520  0.84448840  0.75571350  1
  O2-  O187  1  0.39384059  0.38287311  -0.00041192  1
  O2-  O188  1  0.39991662  0.37921614  0.24223178  1
  O2-  O189  1  0.36391642  0.36781364  0.50506289  1
  O2-  O190  1  0.39331728  0.36659836  0.76303040  1
  O2-  O191  1  0.36473117  0.86950684  -0.00727461  1
  O2-  O192  1  0.35579930  0.85872943  0.25227610  1
  O2-  O193  1  0.40072917  0.86821268  0.51218066  1
  O2-  O194  1  0.42805985  0.88529663  0.74092230  1
  O2-  O195  1  0.57890220  0.38435700  0.01014984  1
  O2-  O196  1  0.61491293  0.36113266  0.24848511  1
  O2-  O197  1  0.66573958  0.37418951  0.49508299  1
  O2-  O198  1  0.62926947  0.34785880  0.76808999  1
  O2-  O199  1  0.64393978  0.87933084  -0.00688207  1
  O2-  O200  1  0.62812400  0.85754565  0.24334470  1
  O2-  O201  1  0.59914291  0.86703952  0.49929252  1
  O2-  O202  1  0.61209704  0.86070821  0.75272877  1
  O2-  O203  1  0.90592148  0.36285590  0.00323671  1
  O2-  O204  1  0.86908384  0.36253813  0.25688950  1
  O2-  O205  1  0.85589537  0.36338836  0.50389875  1
  O2-  O206  1  0.83308580  0.38990874  0.75201421  1
  O2-  O207  1  0.86618760  0.85772903  -0.00437883  1
  O2-  O208  1  0.80428829  0.88476473  0.23947754  1
  O2-  O209  1  0.89163759  0.85539452  0.51254651  1
  O2-  O210  1  0.93628077  0.87905941  0.75514386  1
  O2-  O211  1  0.01017853  -0.12068940  0.08459178  1
  O2-  O212  1  -0.03848558  -0.10042778  0.26018720  1
  O2-  O213  1  0.00146775  0.15063522  0.55461059  1
  O2-  O214  1  0.01348126  0.13689240  0.71372149  1
  O2-  O215  1  0.00635410  0.61065333  0.10034705  1
  O2-  O216  1  0.01055408  0.39490232  0.38786628  1
  O2-  O217  1  0.00806197  0.38854123  0.56726772  1
  O2-  O218  1  0.00065750  0.38649845  0.72959885  1
  O2-  O219  1  0.25225586  0.11711311  -0.12220913  1
  O2-  O220  1  0.25479950  0.11235911  0.35706856  1
  O2-  O221  1  0.24938639  -0.14378865  0.63877287  1
  O2-  O222  1  0.26912863  -0.08353569  0.83169775  1
  O2-  O223  1  0.24426085  0.33231626  -0.09363813  1
  O2-  O224  1  0.21887510  0.36609456  0.24309878  1
  O2-  O225  1  0.24795737  0.64635225  0.58436534  1
  O2-  O226  1  0.28139916  0.64107302  0.74834325  1
  O2-  O227  1  0.49194496  -0.16069199  0.11634598  1
  O2-  O228  1  0.49828909  -0.17346264  0.36618893  1
  O2-  O229  1  0.49773343  0.15295215  0.39944217  1
  O2-  O230  1  0.50195141  0.14099495  0.61253665  1
  O2-  O231  1  0.48869217  0.62837317  0.12580675  1
  O2-  O232  1  0.50447704  0.63552347  0.35830974  1
  O2-  O233  1  0.50591718  0.35969113  0.39638600  1
  O2-  O234  1  0.50213201  0.33644996  0.63023754  1
  O2-  O235  1  0.74011508  0.17921215  -0.11040173  1
  O2-  O236  1  0.73258388  0.13364613  0.11111394  1
  O2-  O237  1  0.74637057  -0.14177760  0.59761182  1
  O2-  O238  1  0.77693356  -0.12693709  0.75937114  1
  O2-  O239  1  0.74813584  0.38113184  -0.09100223  1
  O2-  O240  1  0.75150752  0.34857988  0.10993332  1
  O2-  O241  1  0.74988514  0.65567508  0.60606880  1
  O2-  O242  1  0.75770311  0.59291454  0.85481795  1
