# generated using pymatgen
data_Gd19Ta56(WO20)8
_symmetry_space_group_name_H-M   'P 1'
_cell_length_a   15.53198554
_cell_length_b   15.58569794
_cell_length_c   15.32550200
_cell_angle_alpha   89.94712738
_cell_angle_beta   90.02188752
_cell_angle_gamma   89.86318357
_symmetry_Int_Tables_number   1
_chemical_formula_structural   Gd19Ta56(WO20)8
_chemical_formula_sum   'Gd19 Ta56 W8 O160'
_cell_volume   3709.93658977
_cell_formula_units_Z   1
loop_
 _symmetry_equiv_pos_site_id
 _symmetry_equiv_pos_as_xyz
  1  'x, y, z'
loop_
 _atom_type_symbol
 _atom_type_oxidation_number
  Gd3+  3.0
  Ta5+  5.0
  W6+  6.0
  O2-  -2.0
loop_
 _atom_site_type_symbol
 _atom_site_label
 _atom_site_symmetry_multiplicity
 _atom_site_fract_x
 _atom_site_fract_y
 _atom_site_fract_z
 _atom_site_occupancy
  Gd3+  Gd0  1  0.25365539  0.24950933  0.51674599  1
  Gd3+  Gd1  1  0.74683680  0.25039729  0.25773270  1
  Gd3+  Gd2  1  0.46206859  0.22116517  -0.03106453  1
  Gd3+  Gd3  1  -0.01115441  0.74685342  0.00714495  1
  Gd3+  Gd4  1  0.76313886  0.74760024  0.25881591  1
  Gd3+  Gd5  1  0.01817444  0.26948537  0.24356518  1
  Gd3+  Gd6  1  0.25309767  0.73990428  0.25940630  1
  Gd3+  Gd7  1  0.49365284  0.75571746  -0.01995765  1
  Gd3+  Gd8  1  0.71872275  0.75547619  0.02185553  1
  Gd3+  Gd9  1  0.73139197  0.24443381  -0.01609228  1
  Gd3+  Gd10  1  0.00202335  0.23708565  -0.01510358  1
  Gd3+  Gd11  1  0.26319136  0.24855252  0.24532241  1
  Gd3+  Gd12  1  0.49803717  0.26987133  0.52508338  1
  Gd3+  Gd13  1  -0.00652463  0.75103720  0.76170854  1
  Gd3+  Gd14  1  0.22286005  0.76446874  0.71644502  1
  Gd3+  Gd15  1  0.24322362  0.25613110  0.75335435  1
  Gd3+  Gd16  1  0.49349698  0.75981237  0.25375464  1
  Gd3+  Gd17  1  0.01256188  0.75336253  0.48574579  1
  Gd3+  Gd18  1  0.77455749  0.24443433  0.71174990  1
  Ta5+  Ta19  1  0.08778389  0.13618345  0.62867730  1
  Ta5+  Ta20  1  0.84447574  0.87996834  0.86805949  1
  Ta5+  Ta21  1  0.60169527  0.36771505  0.13145800  1
  Ta5+  Ta22  1  0.12039050  0.11973234  0.87521118  1
  Ta5+  Ta23  1  0.87028539  0.88037539  0.37651065  1
  Ta5+  Ta24  1  0.12055709  0.61856549  0.88121748  1
  Ta5+  Ta25  1  0.64174739  0.87965286  0.83631730  1
  Ta5+  Ta26  1  0.61708432  0.39570695  0.62311890  1
  Ta5+  Ta27  1  0.62029873  0.60926496  0.14245088  1
  Ta5+  Ta28  1  0.93569278  0.37703510  0.62620935  1
  Ta5+  Ta29  1  0.62765499  0.61715925  0.37371210  1
  Ta5+  Ta30  1  0.37573636  0.38667298  0.87582772  1
  Ta5+  Ta31  1  0.37343098  0.11127639  0.38440131  1
  Ta5+  Ta32  1  0.61856185  0.12242374  0.42198291  1
  Ta5+  Ta33  1  0.32357216  0.62142346  0.60861460  1
  Ta5+  Ta34  1  0.10700286  0.38271793  0.87918542  1
  Ta5+  Ta35  1  0.14001999  0.38202816  0.10324138  1
  Ta5+  Ta36  1  0.14624617  0.38133662  0.37891579  1
  Ta5+  Ta37  1  0.87628742  0.61905020  0.38040566  1
  Ta5+  Ta38  1  0.40908827  0.37752283  0.36831832  1
  Ta5+  Ta39  1  0.12203419  0.87574967  0.88396278  1
  Ta5+  Ta40  1  0.61993247  0.38570099  0.87031851  1
  Ta5+  Ta41  1  0.90811933  0.12087500  0.37426714  1
  Ta5+  Ta42  1  0.37089615  0.11656038  0.12627573  1
  Ta5+  Ta43  1  0.39007167  0.61851140  0.38985482  1
  Ta5+  Ta44  1  0.09114995  0.89210666  0.61896264  1
  Ta5+  Ta45  1  0.11931548  0.11722725  0.12483185  1
  Ta5+  Ta46  1  0.90035811  0.11900827  0.12923759  1
  Ta5+  Ta47  1  0.34761358  0.88273476  0.60702579  1
  Ta5+  Ta48  1  0.61529988  0.11926850  0.63560188  1
  Ta5+  Ta49  1  0.10401314  0.38249730  0.63099738  1
  Ta5+  Ta50  1  0.38998359  0.37047219  0.13134603  1
  Ta5+  Ta51  1  0.14037853  0.11667174  0.38164674  1
  Ta5+  Ta52  1  0.62880443  0.89620565  0.14775367  1
  Ta5+  Ta53  1  0.61499580  0.86946671  0.62654351  1
  Ta5+  Ta54  1  0.12463351  0.62365249  0.13119486  1
  Ta5+  Ta55  1  0.87898995  0.87685352  0.12415143  1
  Ta5+  Ta56  1  0.90300285  0.37557699  0.38684490  1
  Ta5+  Ta57  1  0.61942318  0.88132201  0.38530511  1
  Ta5+  Ta58  1  0.35826092  0.62648746  0.86059941  1
  Ta5+  Ta59  1  0.35534128  0.86955957  0.11381954  1
  Ta5+  Ta60  1  0.36877018  0.39706314  0.62570135  1
  Ta5+  Ta61  1  0.17874227  0.87641383  0.39246173  1
  Ta5+  Ta62  1  0.35279971  0.86794436  0.85742692  1
  Ta5+  Ta63  1  0.86988391  0.37667785  0.85655360  1
  Ta5+  Ta64  1  0.11722449  0.87145030  0.13939463  1
  Ta5+  Ta65  1  0.85156846  0.61965556  0.87222898  1
  Ta5+  Ta66  1  0.36964572  0.62061626  0.11687366  1
  Ta5+  Ta67  1  0.92196114  0.38956732  0.09254717  1
  Ta5+  Ta68  1  0.92890689  0.61432577  0.62917352  1
  Ta5+  Ta69  1  0.86954032  0.61153970  0.12381687  1
  Ta5+  Ta70  1  0.58238355  0.12564188  0.11780287  1
  Ta5+  Ta71  1  0.09924472  0.61969910  0.62616414  1
  Ta5+  Ta72  1  0.92046945  0.88174289  0.62525032  1
  Ta5+  Ta73  1  0.64976079  0.62914034  0.84434948  1
  Ta5+  Ta74  1  0.14563883  0.61990903  0.38755722  1
  W6+  W75  1  0.35162664  0.86356241  0.39069546  1
  W6+  W76  1  0.57042496  0.37097306  0.35742082  1
  W6+  W77  1  0.86210900  0.12141244  0.87106827  1
  W6+  W78  1  0.92487113  0.12570476  0.62205829  1
  W6+  W79  1  0.32697452  0.11741863  0.86485563  1
  W6+  W80  1  0.40195998  0.12123107  0.62891701  1
  W6+  W81  1  0.60128760  0.12778070  0.84585873  1
  W6+  W82  1  0.64167664  0.64529793  0.62404028  1
  O2-  O83  1  0.12015722  -0.00348692  0.14203005  1
  O2-  O84  1  0.18492942  0.00624764  0.37690866  1
  O2-  O85  1  0.09745700  0.01623549  0.63040955  1
  O2-  O86  1  0.12668222  -0.00473477  0.86913821  1
  O2-  O87  1  0.14608819  0.50169294  0.13105040  1
  O2-  O88  1  0.17757433  0.49613150  0.36891070  1
  O2-  O89  1  0.12485665  0.50050700  0.64069013  1
  O2-  O90  1  0.08016672  0.50709766  0.86658374  1
  O2-  O91  1  0.36351483  -0.01160416  0.12569791  1
  O2-  O92  1  0.38763974  -0.00418221  0.38616855  1
  O2-  O93  1  0.39523736  -0.01146271  0.62899115  1
  O2-  O94  1  0.34072189  -0.01747890  0.85792974  1
  O2-  O95  1  0.38689973  0.50214028  0.12630042  1
  O2-  O96  1  0.41343115  0.50440071  0.35634464  1
  O2-  O97  1  0.30339888  0.49706614  0.61471377  1
  O2-  O98  1  0.39728919  0.51224007  0.86100347  1
  O2-  O99  1  0.63889669  0.01957132  0.14123844  1
  O2-  O100  1  0.59356790  0.00286057  0.39657728  1
  O2-  O101  1  0.63191999  -0.00953690  0.62804196  1
  O2-  O102  1  0.60412765  -0.01208500  0.85973528  1
  O2-  O103  1  0.60358702  0.49306193  0.11839326  1
  O2-  O104  1  0.60416405  0.50360219  0.36520894  1
  O2-  O105  1  0.63314151  0.51194117  0.61837475  1
  O2-  O106  1  0.62133024  0.51492671  0.88032907  1
  O2-  O107  1  0.87964197  0.00093255  0.13466924  1
  O2-  O108  1  0.87200553  0.00123934  0.35697173  1
  O2-  O109  1  0.90253034  -0.00194071  0.61990905  1
  O2-  O110  1  0.87577423  -0.00953958  0.88952315  1
  O2-  O111  1  0.85385071  0.48550758  0.12136745  1
  O2-  O112  1  0.87204889  0.49357608  0.37883283  1
  O2-  O113  1  0.90319655  0.49705915  0.62850958  1
  O2-  O114  1  0.85283429  0.49604993  0.87946995  1
  O2-  O115  1  0.10103609  0.25455919  0.10661114  1
  O2-  O116  1  0.18684735  0.25228408  0.38485349  1
  O2-  O117  1  0.15598653  0.25700658  0.63111911  1
  O2-  O118  1  0.13096582  0.25516713  0.88824416  1
  O2-  O119  1  0.08010261  0.74764354  0.13206839  1
  O2-  O120  1  0.14174174  0.75020604  0.40026038  1
  O2-  O121  1  0.10804615  0.75432035  0.60998932  1
  O2-  O122  1  0.07589011  0.74529803  0.88855498  1
  O2-  O123  1  0.38251658  0.24413878  0.13927411  1
  O2-  O124  1  0.37380225  0.24923797  0.38138546  1
  O2-  O125  1  0.37155244  0.26235445  0.61650243  1
  O2-  O126  1  0.35467029  0.26066211  0.86996802  1
  O2-  O127  1  0.42649702  0.74912622  0.11513990  1
  O2-  O128  1  0.43671827  0.73340042  0.38254586  1
  O2-  O129  1  0.30766838  0.74206653  0.59675440  1
  O2-  O130  1  0.41481542  0.73922218  0.85890380  1
  O2-  O131  1  0.65104201  0.23732150  0.13373427  1
  O2-  O132  1  0.56034877  0.22914452  0.39596149  1
  O2-  O133  1  0.62291071  0.25214819  0.62905382  1
  O2-  O134  1  0.64295984  0.26297942  0.85972389  1
  O2-  O135  1  0.64124957  0.75778135  0.16276559  1
  O2-  O136  1  0.62559473  0.75535342  0.34251722  1
  O2-  O137  1  0.68693626  0.77511784  0.63242157  1
  O2-  O138  1  0.62005999  0.75237386  0.88874856  1
  O2-  O139  1  0.91866656  0.26475511  0.12342201  1
  O2-  O140  1  0.94374232  0.24308761  0.37116003  1
  O2-  O141  1  0.91183168  0.25493336  0.64413178  1
  O2-  O142  1  0.82022729  0.25537425  0.85627987  1
  O2-  O143  1  0.84430735  0.74271961  0.11262742  1
  O2-  O144  1  0.86177791  0.74672279  0.37817882  1
  O2-  O145  1  0.91304373  0.74650127  0.62884894  1
  O2-  O146  1  0.87740392  0.74824173  0.87700294  1
  O2-  O147  1  0.14867435  0.12053385  -0.00268198  1
  O2-  O148  1  0.14561806  0.15505808  0.26047386  1
  O2-  O149  1  0.13901734  0.14521504  0.50661906  1
  O2-  O150  1  0.13066096  0.14481609  0.74932447  1
  O2-  O151  1  0.09383463  0.62554341  0.00736869  1
  O2-  O152  1  0.14035194  0.63892559  0.25678252  1
  O2-  O153  1  0.08902773  0.60852064  0.49474834  1
  O2-  O154  1  0.12733483  0.65158675  0.75658131  1
  O2-  O155  1  0.34462855  0.14241599  0.00300196  1
  O2-  O156  1  0.33992908  0.11891212  0.26428532  1
  O2-  O157  1  0.32855749  0.12490964  0.50404731  1
  O2-  O158  1  0.31217345  0.13207078  0.72752617  1
  O2-  O159  1  0.39862291  0.63457850  -0.00625470  1
  O2-  O160  1  0.37596453  0.64839855  0.24318760  1
  O2-  O161  1  0.40345461  0.60762626  0.51171694  1
  O2-  O162  1  0.32611553  0.63452910  0.73992628  1
  O2-  O163  1  0.61484217  0.15522423  -0.01187604  1
  O2-  O164  1  0.69764321  0.14013732  0.33452407  1
  O2-  O165  1  0.68680908  0.12451361  0.52183609  1
  O2-  O166  1  0.68917747  0.12598166  0.73612886  1
  O2-  O167  1  0.58759408  0.65500784  0.03477422  1
  O2-  O168  1  0.55958610  0.62557726  0.24962184  1
  O2-  O169  1  0.62663416  0.64190550  0.48999404  1
  O2-  O170  1  0.58033803  0.64575597  0.74777731  1
  O2-  O171  1  0.84017092  0.14798920  0.01880361  1
  O2-  O172  1  0.85284300  0.14745083  0.24899399  1
  O2-  O173  1  0.88157863  0.12816295  0.49007887  1
  O2-  O174  1  0.86628792  0.13245199  0.73939290  1
  O2-  O175  1  0.90874936  0.61963532  0.00081657  1
  O2-  O176  1  0.89597249  0.62623067  0.24414826  1
  O2-  O177  1  0.90754731  0.62612146  0.49793054  1
  O2-  O178  1  0.92430759  0.61928857  0.76725610  1
  O2-  O179  1  0.17935060  0.39981640  -0.01890011  1
  O2-  O180  1  0.14853476  0.34780384  0.25148732  1
  O2-  O181  1  0.14362711  0.37349638  0.50530337  1
  O2-  O182  1  0.14654654  0.37564478  0.76171135  1
  O2-  O183  1  0.09305551  0.87227727  0.00733171  1
  O2-  O184  1  0.15923397  0.86044148  0.26200649  1
  O2-  O185  1  0.10148332  0.88964645  0.48944777  1
  O2-  O186  1  0.10713450  0.85707533  0.75383696  1
  O2-  O187  1  0.36727767  0.38456345  -0.00189772  1
  O2-  O188  1  0.34524724  0.37515154  0.25614672  1
  O2-  O189  1  0.38491758  0.38397556  0.49301183  1
  O2-  O190  1  0.33608779  0.38202767  0.75131379  1
  O2-  O191  1  0.38385012  0.85979441  -0.01179027  1
  O2-  O192  1  0.36120991  0.84427710  0.23988196  1
  O2-  O193  1  0.41266209  0.85262094  0.51235248  1
  O2-  O194  1  0.35750868  0.84297774  0.73366101  1
  O2-  O195  1  0.65504309  0.37162017  -0.00109567  1
  O2-  O196  1  0.66311961  0.36817882  0.24014376  1
  O2-  O197  1  0.59879184  0.37393859  0.49925430  1
  O2-  O198  1  0.65465661  0.39019594  0.75008792  1
  O2-  O199  1  0.57209675  0.86929951  0.04550640  1
  O2-  O200  1  0.56613752  0.89298401  0.25836990  1
  O2-  O201  1  0.59244639  0.85511740  0.50035153  1
  O2-  O202  1  0.56294335  0.85325906  0.74043511  1
  O2-  O203  1  0.85474751  0.35063003  -0.01204286  1
  O2-  O204  1  0.85205052  0.34657057  0.27633105  1
  O2-  O205  1  0.88987387  0.36070478  0.50714905  1
  O2-  O206  1  0.84651291  0.37845128  0.73528187  1
  O2-  O207  1  0.89571588  0.86410418  -0.00156768  1
  O2-  O208  1  0.87608207  0.85073923  0.24831815  1
  O2-  O209  1  0.90355839  0.86900350  0.49394958  1
  O2-  O210  1  0.91164836  0.87214098  0.76035527  1
  O2-  O211  1  0.00232730  0.10964214  0.05248480  1
  O2-  O212  1  0.00625410  0.13054342  0.20416539  1
  O2-  O213  1  0.02413518  0.08245440  0.38049724  1
  O2-  O214  1  0.00004582  0.13926996  0.87381095  1
  O2-  O215  1  0.02500628  0.38575667  0.01276906  1
  O2-  O216  1  0.01495473  0.40097522  0.17404613  1
  O2-  O217  1  0.02391478  0.39273488  0.37140084  1
  O2-  O218  1  -0.01337271  0.34512241  0.85435059  1
  O2-  O219  1  0.23947004  -0.15845763  0.10627870  1
  O2-  O220  1  0.24476410  0.13582409  0.13471710  1
  O2-  O221  1  0.22604429  -0.10859552  0.61970534  1
  O2-  O222  1  0.23837168  -0.17875248  0.87281115  1
  O2-  O223  1  0.25146462  0.65051319  0.11239837  1
  O2-  O224  1  0.25734196  0.35262443  0.12339206  1
  O2-  O225  1  0.27056954  0.64239773  0.38217294  1
  O2-  O226  1  0.24321711  0.62470526  0.90105810  1
  O2-  O227  1  0.48279316  0.09464994  0.05096311  1
  O2-  O228  1  0.50191894  0.13524152  0.20543239  1
  O2-  O229  1  0.51891659  0.12553617  0.54059488  1
  O2-  O230  1  0.52052525  0.11988351  0.71673754  1
  O2-  O231  1  0.50245043  0.32726877  0.06308709  1
  O2-  O232  1  0.50229871  0.37710176  0.21433924  1
  O2-  O233  1  0.49462303  0.38671738  0.64518895  1
  O2-  O234  1  0.49983513  0.36899216  0.87039455  1
  O2-  O235  1  0.73283265  -0.13137719  -0.06354292  1
  O2-  O236  1  0.74812413  -0.11837581  0.12807888  1
  O2-  O237  1  0.74034860  -0.11994285  0.37236724  1
  O2-  O238  1  0.74614321  -0.11122739  0.77542704  1
  O2-  O239  1  0.74493429  0.63899797  -0.05444653  1
  O2-  O240  1  0.74086597  0.61625585  0.14996370  1
  O2-  O241  1  0.74712454  0.62268558  0.34316599  1
  O2-  O242  1  0.75422222  0.62555883  0.78202044  1
