# generated using pymatgen
data_Gd19Ta56(WO20)8
_symmetry_space_group_name_H-M   'P 1'
_cell_length_a   15.48582704
_cell_length_b   15.49747390
_cell_length_c   15.35583792
_cell_angle_alpha   90.22265892
_cell_angle_beta   90.07136769
_cell_angle_gamma   89.77161222
_symmetry_Int_Tables_number   1
_chemical_formula_structural   Gd19Ta56(WO20)8
_chemical_formula_sum   'Gd19 Ta56 W8 O160'
_cell_volume   3685.20608065
_cell_formula_units_Z   1
loop_
 _symmetry_equiv_pos_site_id
 _symmetry_equiv_pos_as_xyz
  1  'x, y, z'
loop_
 _atom_type_symbol
 _atom_type_oxidation_number
  Gd3+  3.0
  Ta5+  5.0
  W6+  6.0
  O2-  -2.0
loop_
 _atom_site_type_symbol
 _atom_site_label
 _atom_site_symmetry_multiplicity
 _atom_site_fract_x
 _atom_site_fract_y
 _atom_site_fract_z
 _atom_site_occupancy
  Gd3+  Gd0  1  0.75273029  0.74761181  0.74008835  1
  Gd3+  Gd1  1  0.01195617  0.74948591  0.00195595  1
  Gd3+  Gd2  1  0.49690013  0.75768451  0.73230463  1
  Gd3+  Gd3  1  0.76221930  0.75003260  0.01160692  1
  Gd3+  Gd4  1  0.25528590  0.21253576  0.73032735  1
  Gd3+  Gd5  1  0.76306511  0.24785741  0.50824404  1
  Gd3+  Gd6  1  -0.01207293  0.73765980  0.51143702  1
  Gd3+  Gd7  1  0.01823095  0.75644796  0.73940457  1
  Gd3+  Gd8  1  0.51233684  0.75771168  -0.00674340  1
  Gd3+  Gd9  1  0.00350827  0.25208799  0.77911728  1
  Gd3+  Gd10  1  0.25315581  0.75683149  0.52686641  1
  Gd3+  Gd11  1  0.24796337  0.74392802  0.00482896  1
  Gd3+  Gd12  1  0.71517560  0.74564791  0.52026930  1
  Gd3+  Gd13  1  0.25100172  0.72301382  0.75367195  1
  Gd3+  Gd14  1  0.52588199  0.25322717  0.23791328  1
  Gd3+  Gd15  1  0.00202579  0.24478715  0.21633941  1
  Gd3+  Gd16  1  0.48914613  0.75989550  0.48842287  1
  Gd3+  Gd17  1  0.77577432  0.23683008  0.74741127  1
  Gd3+  Gd18  1  0.52764305  0.28537901  0.47670946  1
  Ta5+  Ta19  1  0.44037824  0.15209670  0.62481092  1
  Ta5+  Ta20  1  0.09121024  0.59424082  0.87643785  1
  Ta5+  Ta21  1  0.12272980  0.88173070  0.13429405  1
  Ta5+  Ta22  1  0.14594393  0.36676283  0.88138427  1
  Ta5+  Ta23  1  0.88780243  0.62172197  0.14175882  1
  Ta5+  Ta24  1  0.88243685  0.58315884  0.86826162  1
  Ta5+  Ta25  1  0.14243540  0.36655414  0.10761902  1
  Ta5+  Ta26  1  0.11600832  0.12472213  0.88594074  1
  Ta5+  Ta27  1  0.91025484  0.35978444  0.61584648  1
  Ta5+  Ta28  1  0.83482992  0.37614491  0.13801841  1
  Ta5+  Ta29  1  0.63663923  0.11991178  0.37104246  1
  Ta5+  Ta30  1  0.39228716  0.34352829  0.64218240  1
  Ta5+  Ta31  1  0.09514428  0.13415896  0.61803391  1
  Ta5+  Ta32  1  0.61400601  0.88408967  0.37718368  1
  Ta5+  Ta33  1  0.10415675  0.92930170  0.62640170  1
  Ta5+  Ta34  1  0.07942899  0.36020156  0.62070649  1
  Ta5+  Ta35  1  0.39873041  0.57872887  0.62262807  1
  Ta5+  Ta36  1  0.63776679  0.34298971  0.89567803  1
  Ta5+  Ta37  1  0.13485329  0.13082443  0.37058784  1
  Ta5+  Ta38  1  0.86227802  0.87617301  0.37606352  1
  Ta5+  Ta39  1  0.13728813  0.88072902  0.87970166  1
  Ta5+  Ta40  1  0.39947011  0.12945188  0.12315569  1
  Ta5+  Ta41  1  0.35766205  0.37890210  0.13972568  1
  Ta5+  Ta42  1  0.87786005  0.88063479  0.13851115  1
  Ta5+  Ta43  1  0.34251721  0.37908327  0.39207415  1
  Ta5+  Ta44  1  0.63901041  0.62506658  0.13302434  1
  Ta5+  Ta45  1  0.86203712  0.60190422  0.62253666  1
  Ta5+  Ta46  1  0.55862436  0.30921802  0.68305573  1
  Ta5+  Ta47  1  0.14049857  0.61102986  0.13065621  1
  Ta5+  Ta48  1  0.36061218  0.62582785  0.36991666  1
  Ta5+  Ta49  1  0.87437852  0.11533729  0.36956569  1
  Ta5+  Ta50  1  0.62231889  0.58702793  0.88457064  1
  Ta5+  Ta51  1  0.88176502  0.37692539  0.89148896  1
  Ta5+  Ta52  1  0.88099234  0.87937261  0.87299228  1
  Ta5+  Ta53  1  0.83415569  0.12458918  0.13254718  1
  Ta5+  Ta54  1  0.38926793  0.88282323  0.12496293  1
  Ta5+  Ta55  1  0.12589770  0.60224493  0.62410347  1
  Ta5+  Ta56  1  0.66599779  0.12762149  0.12694461  1
  Ta5+  Ta57  1  0.36426732  0.89090535  0.37528433  1
  Ta5+  Ta58  1  0.85402131  0.61831329  0.37967105  1
  Ta5+  Ta59  1  0.61559476  0.14232755  0.63280052  1
  Ta5+  Ta60  1  0.63376794  0.88025930  0.12726046  1
  Ta5+  Ta61  1  0.86886954  0.89088416  0.62131051  1
  Ta5+  Ta62  1  0.67027792  0.38257847  0.35154872  1
  Ta5+  Ta63  1  0.12381608  0.62267289  0.37418075  1
  Ta5+  Ta64  1  0.64202033  0.12026158  0.88492979  1
  Ta5+  Ta65  1  0.66346961  0.37689473  0.13469687  1
  Ta5+  Ta66  1  0.16652718  0.12306731  0.12018918  1
  Ta5+  Ta67  1  0.39200275  0.59026895  0.87429970  1
  Ta5+  Ta68  1  0.59935813  0.54716160  0.60444993  1
  Ta5+  Ta69  1  0.60885155  0.61964480  0.37821863  1
  Ta5+  Ta70  1  0.92506720  0.12039841  0.62066363  1
  Ta5+  Ta71  1  0.39983498  0.14326055  0.87490195  1
  Ta5+  Ta72  1  0.34668411  0.90831765  0.88232607  1
  Ta5+  Ta73  1  0.37858029  0.14028046  0.37404866  1
  Ta5+  Ta74  1  0.62294981  0.89808538  0.64340580  1
  W6+  W75  1  0.39183634  0.61937623  0.11989092  1
  W6+  W76  1  0.30734531  0.35129993  0.89277637  1
  W6+  W77  1  0.37605695  0.91004973  0.64046224  1
  W6+  W78  1  0.12269717  0.87762933  0.38128684  1
  W6+  W79  1  0.89266785  0.11977384  0.88873968  1
  W6+  W80  1  0.09246647  0.36976506  0.36800125  1
  W6+  W81  1  0.62468390  0.88926779  0.85957216  1
  W6+  W82  1  0.83654144  0.36872397  0.36002280  1
  O2-  O83  1  0.16835065  -0.00523502  0.12437087  1
  O2-  O84  1  0.13103729  0.01218678  0.36634252  1
  O2-  O85  1  0.17762020  0.02431794  0.63918191  1
  O2-  O86  1  0.10968126  -0.00175959  0.87059215  1
  O2-  O87  1  0.15865010  0.49192468  0.13242716  1
  O2-  O88  1  0.09602350  0.50757908  0.36596976  1
  O2-  O89  1  0.09423926  0.48733103  0.64229629  1
  O2-  O90  1  0.16015158  0.49528990  0.87457539  1
  O2-  O91  1  0.39274899  0.00734033  0.11639243  1
  O2-  O92  1  0.36640987  0.01685798  0.37639704  1
  O2-  O93  1  0.42278580  0.03187914  0.62249028  1
  O2-  O94  1  0.35044711  0.02790135  0.87839583  1
  O2-  O95  1  0.40855214  0.48141125  0.11368315  1
  O2-  O96  1  0.35671911  0.50125276  0.39481282  1
  O2-  O97  1  0.36258035  0.46726917  0.64884204  1
  O2-  O98  1  0.34690206  0.48520052  0.89039126  1
  O2-  O99  1  0.64857956  -0.00303254  0.11410712  1
  O2-  O100  1  0.59488897  0.00700415  0.39550293  1
  O2-  O101  1  0.62547028  0.01497659  0.61007365  1
  O2-  O102  1  0.67885278  0.00783813  0.89373585  1
  O2-  O103  1  0.63947765  0.50644579  0.11137177  1
  O2-  O104  1  0.62986569  0.49902482  0.38219359  1
  O2-  O105  1  0.60935270  0.44170179  0.65909660  1
  O2-  O106  1  0.64583386  0.47070167  0.89481396  1
  O2-  O107  1  0.84366028  -0.00652813  0.15380676  1
  O2-  O108  1  0.90120215  -0.00992040  0.35506554  1
  O2-  O109  1  0.86065808  0.00647887  0.64550946  1
  O2-  O110  1  0.86624714  -0.00803702  0.85198077  1
  O2-  O111  1  0.85749357  0.50636363  0.14003626  1
  O2-  O112  1  0.84688002  0.50266922  0.36111273  1
  O2-  O113  1  0.88901862  0.48575722  0.63274992  1
  O2-  O114  1  0.81716647  0.48203090  0.85336504  1
  O2-  O115  1  0.11514220  0.23976588  0.10183794  1
  O2-  O116  1  0.06122723  0.23490538  0.35395747  1
  O2-  O117  1  0.14672215  0.24912478  0.62689003  1
  O2-  O118  1  0.09526565  0.24886194  0.90176185  1
  O2-  O119  1  0.13084456  0.75067902  0.10432149  1
  O2-  O120  1  0.07385030  0.73942019  0.38881639  1
  O2-  O121  1  0.14278566  0.73530177  0.63584275  1
  O2-  O122  1  0.14180591  0.74425162  0.88234378  1
  O2-  O123  1  0.41993156  0.27349837  0.13254234  1
  O2-  O124  1  0.42056425  0.27665330  0.35694623  1
  O2-  O125  1  0.33472153  0.23455635  0.60742910  1
  O2-  O126  1  0.29524564  0.21246616  0.88052828  1
  O2-  O127  1  0.37418525  0.75785361  0.09554528  1
  O2-  O128  1  0.35947931  0.75667447  0.38690796  1
  O2-  O129  1  0.32531906  0.78363554  0.64696576  1
  O2-  O130  1  0.31501973  0.68875536  0.88739177  1
  O2-  O131  1  0.65694464  0.25129978  0.15999917  1
  O2-  O132  1  0.61794087  0.25340080  0.35313145  1
  O2-  O133  1  0.67760590  0.26424939  0.63639508  1
  O2-  O134  1  0.70629014  0.23733947  0.88378114  1
  O2-  O135  1  0.58607209  0.74469161  0.12428951  1
  O2-  O136  1  0.60683345  0.75400819  0.37914054  1
  O2-  O137  1  0.63482386  0.76288841  0.65306080  1
  O2-  O138  1  0.56888079  0.75646847  0.85779671  1
  O2-  O139  1  0.84674537  0.25177631  0.13352116  1
  O2-  O140  1  0.83004838  0.23420937  0.37070199  1
  O2-  O141  1  0.86090372  0.23676668  0.61889440  1
  O2-  O142  1  0.89893394  0.25529505  0.89496164  1
  O2-  O143  1  0.89774970  0.74603115  0.09840610  1
  O2-  O144  1  0.87685421  0.75071690  0.40942663  1
  O2-  O145  1  0.84108325  0.73633001  0.60501703  1
  O2-  O146  1  0.78842527  0.79360459  0.87656289  1
  O2-  O147  1  0.17458585  0.11351669  -0.00535476  1
  O2-  O148  1  0.11112452  0.12958125  0.23349507  1
  O2-  O149  1  0.11310671  0.13489964  0.49168456  1
  O2-  O150  1  0.11502188  0.14159844  0.75745719  1
  O2-  O151  1  0.10714009  0.62312550  -0.00423355  1
  O2-  O152  1  0.14723295  0.63823605  0.25059897  1
  O2-  O153  1  0.09422913  0.62077532  0.50505288  1
  O2-  O154  1  0.12419166  0.62813057  0.75924961  1
  O2-  O155  1  0.41157686  0.15029234  0.00485997  1
  O2-  O156  1  0.42287454  0.13679127  0.25556134  1
  O2-  O157  1  0.43866717  0.15793328  0.48059421  1
  O2-  O158  1  0.39517370  0.15084733  0.74957472  1
  O2-  O159  1  0.44259536  0.62448868  -0.01423046  1
  O2-  O160  1  0.35090700  0.62038336  0.25237603  1
  O2-  O161  1  0.38082241  0.65519212  0.52262837  1
  O2-  O162  1  0.37413455  0.62818746  0.74400642  1
  O2-  O163  1  0.63372550  0.14487567  0.00855656  1
  O2-  O164  1  0.60783985  0.11511849  0.24885213  1
  O2-  O165  1  0.62946340  0.16391388  0.49723696  1
  O2-  O166  1  0.66596232  0.13238780  0.75431557  1
  O2-  O167  1  0.64128374  0.64896322  -0.00759754  1
  O2-  O168  1  0.62271521  0.62249462  0.25381760  1
  O2-  O169  1  0.60076481  0.64835307  0.50815028  1
  O2-  O170  1  0.69744968  0.62790264  0.80512742  1
  O2-  O171  1  0.85913976  0.11101255  0.01691391  1
  O2-  O172  1  0.90885784  0.13261427  0.24780490  1
  O2-  O173  1  0.90198753  0.12008899  0.49114529  1
  O2-  O174  1  0.90259463  0.14518448  0.75012436  1
  O2-  O175  1  0.85315079  0.62580359  -0.01920271  1
  O2-  O176  1  0.89038320  0.64683346  0.26233489  1
  O2-  O177  1  0.90205355  0.60849229  0.49749477  1
  O2-  O178  1  0.85993353  0.63109905  0.75255248  1
  O2-  O179  1  0.08978496  0.38993606  0.00092488  1
  O2-  O180  1  0.10044572  0.35784122  0.22534717  1
  O2-  O181  1  0.07647665  0.36546453  0.50084871  1
  O2-  O182  1  0.11075986  0.35715171  0.76141319  1
  O2-  O183  1  0.09300092  0.87032905  0.00144687  1
  O2-  O184  1  0.14754468  0.85907787  0.24864975  1
  O2-  O185  1  0.14706547  0.87523261  0.52322537  1
  O2-  O186  1  0.10308670  0.88043018  0.74164613  1
  O2-  O187  1  0.26428914  0.35529356  0.06120461  1
  O2-  O188  1  0.32784705  0.38619244  0.25564493  1
  O2-  O189  1  0.39595280  0.35865846  0.50573702  1
  O2-  O190  1  0.33889050  0.33251348  0.75781275  1
  O2-  O191  1  0.41915361  0.87668185  -0.01791158  1
  O2-  O192  1  0.36222874  0.87860479  0.24546504  1
  O2-  O193  1  0.33989755  0.88298323  0.50126113  1
  O2-  O194  1  0.40314508  0.86620387  0.78129985  1
  O2-  O195  1  0.63176294  0.34604266  0.01920986  1
  O2-  O196  1  0.58358995  0.38843534  0.24242257  1
  O2-  O197  1  0.66779919  0.35296392  0.47331229  1
  O2-  O198  1  0.55116884  0.32484713  0.81381135  1
  O2-  O199  1  0.63593763  0.84819777  -0.00182532  1
  O2-  O200  1  0.60976288  0.88219403  0.25026439  1
  O2-  O201  1  0.61339000  0.85771822  0.50593282  1
  O2-  O202  1  0.70731226  0.88840116  0.74740824  1
  O2-  O203  1  0.86202536  0.38864454  0.01089176  1
  O2-  O204  1  0.91129179  0.36006498  0.24649311  1
  O2-  O205  1  0.86696867  0.35868750  0.49623862  1
  O2-  O206  1  0.89073408  0.35054378  0.75136022  1
  O2-  O207  1  0.87923548  0.87401675  0.00086808  1
  O2-  O208  1  0.88077173  0.84134752  0.25653851  1
  O2-  O209  1  0.89935035  0.88963424  0.49785997  1
  O2-  O210  1  0.88334136  0.83800729  0.74296187  1
  O2-  O211  1  0.00063724  -0.15315929  -0.13034765  1
  O2-  O212  1  0.00225166  -0.10329619  0.14313615  1
  O2-  O213  1  0.01762558  0.01727351  0.61324667  1
  O2-  O214  1  -0.00541298  -0.15718824  0.61849326  1
  O2-  O215  1  -0.01221002  0.51505805  -0.12613900  1
  O2-  O216  1  0.00972388  0.61323837  0.12806418  1
  O2-  O217  1  -0.00990843  0.64636054  0.63976759  1
  O2-  O218  1  -0.01759135  0.67615329  0.86957633  1
  O2-  O219  1  0.24569094  -0.11110149  -0.03726210  1
  O2-  O220  1  0.27853356  0.15623355  0.14779413  1
  O2-  O221  1  0.25639111  0.16329771  0.36618882  1
  O2-  O222  1  0.24615584  -0.13721734  0.81027436  1
  O2-  O223  1  0.25677475  0.62613183  0.08652801  1
  O2-  O224  1  0.22911425  0.35643894  0.40574189  1
  O2-  O225  1  0.23868966  0.63837990  0.41442829  1
  O2-  O226  1  0.24977951  0.60265065  0.62123400  1
  O2-  O227  1  0.52210188  0.11700793  -0.13266623  1
  O2-  O228  1  0.48377348  -0.12436247  0.38713940  1
  O2-  O229  1  0.49067372  -0.15796431  0.61035884  1
  O2-  O230  1  0.55326367  -0.08669725  0.74607344  1
  O2-  O231  1  0.51131296  0.57908436  -0.16503359  1
  O2-  O232  1  0.48538788  0.62811505  0.37809639  1
  O2-  O233  1  0.49042803  0.52114008  0.54945893  1
  O2-  O234  1  0.51823239  0.62318415  0.66782614  1
  O2-  O235  1  0.75228913  -0.15905611  0.13051692  1
  O2-  O236  1  0.75229511  0.08451616  0.37226560  1
  O2-  O237  1  0.74175149  -0.11863670  0.38243336  1
  O2-  O238  1  0.75048522  -0.12322585  0.59159259  1
  O2-  O239  1  0.75669446  0.65448388  0.13163746  1
  O2-  O240  1  0.75045444  0.38870532  0.24423501  1
  O2-  O241  1  0.73760260  0.64482426  0.40200172  1
  O2-  O242  1  0.73465492  0.59372765  0.60830152  1
