# generated using pymatgen
data_Gd19Ta56(WO20)8
_symmetry_space_group_name_H-M   'P 1'
_cell_length_a   15.48326197
_cell_length_b   15.52230272
_cell_length_c   15.28449676
_cell_angle_alpha   89.93642633
_cell_angle_beta   89.89217167
_cell_angle_gamma   89.92268305
_symmetry_Int_Tables_number   1
_chemical_formula_structural   Gd19Ta56(WO20)8
_chemical_formula_sum   'Gd19 Ta56 W8 O160'
_cell_volume   3673.40086935
_cell_formula_units_Z   1
loop_
 _symmetry_equiv_pos_site_id
 _symmetry_equiv_pos_as_xyz
  1  'x, y, z'
loop_
 _atom_type_symbol
 _atom_type_oxidation_number
  Gd3+  3.0
  Ta5+  5.0
  W6+  6.0
  O2-  -2.0
loop_
 _atom_site_type_symbol
 _atom_site_label
 _atom_site_symmetry_multiplicity
 _atom_site_fract_x
 _atom_site_fract_y
 _atom_site_fract_z
 _atom_site_occupancy
  Gd3+  Gd0  1  0.75673912  0.76079606  0.00161856  1
  Gd3+  Gd1  1  0.24620044  0.74768536  0.74043555  1
  Gd3+  Gd2  1  0.50382067  0.24651008  0.23951160  1
  Gd3+  Gd3  1  0.29273556  0.22214080  -0.01765732  1
  Gd3+  Gd4  1  0.03412473  0.23549779  -0.01335110  1
  Gd3+  Gd5  1  0.73195029  0.26072386  0.25370358  1
  Gd3+  Gd6  1  0.00020479  0.72584727  -0.00732217  1
  Gd3+  Gd7  1  0.01834341  0.75817036  0.23009893  1
  Gd3+  Gd8  1  0.00667672  0.25056080  0.25714384  1
  Gd3+  Gd9  1  0.48047052  0.24771335  0.73164538  1
  Gd3+  Gd10  1  0.00682654  0.26453630  0.49806973  1
  Gd3+  Gd11  1  0.72797761  0.24105557  0.78065124  1
  Gd3+  Gd12  1  0.26152613  0.73498920  0.27746665  1
  Gd3+  Gd13  1  0.74687670  0.76012500  0.47980641  1
  Gd3+  Gd14  1  0.70802175  0.27550580  0.01786817  1
  Gd3+  Gd15  1  0.75213707  0.75461262  0.75127876  1
  Gd3+  Gd16  1  0.00267684  0.26770241  0.73960234  1
  Gd3+  Gd17  1  0.48128307  0.25473759  0.50478076  1
  Gd3+  Gd18  1  0.24256249  0.74620570  -0.00122923  1
  Ta5+  Ta19  1  0.61931925  0.62504211  0.62271907  1
  Ta5+  Ta20  1  0.87501756  0.62983569  0.13950938  1
  Ta5+  Ta21  1  0.38536799  0.61301795  0.12140580  1
  Ta5+  Ta22  1  0.63556268  0.37725692  0.62795365  1
  Ta5+  Ta23  1  0.38107761  0.86193746  0.87294992  1
  Ta5+  Ta24  1  0.11256398  0.88359528  0.86393134  1
  Ta5+  Ta25  1  0.42996642  0.62263964  0.37036061  1
  Ta5+  Ta26  1  0.15999240  0.12112393  0.81494391  1
  Ta5+  Ta27  1  0.87807458  0.39676806  0.36719083  1
  Ta5+  Ta28  1  0.87054198  0.12123932  0.37734445  1
  Ta5+  Ta29  1  0.59614113  0.63511211  0.12598647  1
  Ta5+  Ta30  1  0.38217815  0.61649987  0.87252989  1
  Ta5+  Ta31  1  0.60010003  0.11452907  0.89861839  1
  Ta5+  Ta32  1  0.61346371  0.62089501  0.87781526  1
  Ta5+  Ta33  1  0.09788487  0.87206011  0.37905594  1
  Ta5+  Ta34  1  0.59665092  0.63132097  0.37559849  1
  Ta5+  Ta35  1  0.13779801  0.11512947  0.37983936  1
  Ta5+  Ta36  1  0.60208523  0.86481861  0.12955536  1
  Ta5+  Ta37  1  0.11795024  0.61901764  0.61434547  1
  Ta5+  Ta38  1  0.08941192  0.63562898  0.38184858  1
  Ta5+  Ta39  1  0.38276273  0.86376602  0.61468505  1
  Ta5+  Ta40  1  0.61919971  0.12132259  0.62691657  1
  Ta5+  Ta41  1  0.13302985  0.39284010  0.37100442  1
  Ta5+  Ta42  1  0.64445788  0.09905310  0.13419600  1
  Ta5+  Ta43  1  0.92746859  0.87804494  0.38231213  1
  Ta5+  Ta44  1  0.11035097  0.87477458  0.62242316  1
  Ta5+  Ta45  1  0.57632204  0.86287486  0.37963933  1
  Ta5+  Ta46  1  0.86895300  0.88730637  0.61871389  1
  Ta5+  Ta47  1  0.62246684  0.10461903  0.37685435  1
  Ta5+  Ta48  1  0.17148260  0.37902085  0.61872757  1
  Ta5+  Ta49  1  0.92100809  0.64160485  0.38634583  1
  Ta5+  Ta50  1  0.13248230  0.12118846  0.60874096  1
  Ta5+  Ta51  1  0.12691475  0.61418594  0.12272906  1
  Ta5+  Ta52  1  0.39726108  0.09294142  0.86224422  1
  Ta5+  Ta53  1  0.40424856  0.86306268  0.37793453  1
  Ta5+  Ta54  1  0.90650332  0.88339863  0.86556025  1
  Ta5+  Ta55  1  0.87411295  0.62543987  0.61788161  1
  Ta5+  Ta56  1  0.59001891  0.44076356  0.14240750  1
  Ta5+  Ta57  1  0.87991791  0.41514373  0.91961740  1
  Ta5+  Ta58  1  0.85980900  0.13559510  0.62966676  1
  Ta5+  Ta59  1  0.60860735  0.91993319  0.87821040  1
  Ta5+  Ta60  1  0.35157120  0.37194976  0.12595212  1
  Ta5+  Ta61  1  0.84811893  0.12768802  0.12740539  1
  Ta5+  Ta62  1  0.89453221  0.88982424  0.12495099  1
  Ta5+  Ta63  1  0.87646126  0.60845839  0.87304948  1
  Ta5+  Ta64  1  0.37581293  0.38330080  0.36752572  1
  Ta5+  Ta65  1  0.83651026  0.38242429  0.59717448  1
  Ta5+  Ta66  1  0.34131913  0.11090686  0.61720176  1
  Ta5+  Ta67  1  0.37550302  0.61777675  0.61215281  1
  Ta5+  Ta68  1  0.16107792  0.37294260  0.86412598  1
  Ta5+  Ta69  1  0.63087786  0.38465051  0.39207158  1
  Ta5+  Ta70  1  0.15096052  0.37139707  0.13287999  1
  Ta5+  Ta71  1  0.37359108  0.11075848  0.37510350  1
  Ta5+  Ta72  1  0.14212806  0.89347352  0.11869399  1
  Ta5+  Ta73  1  0.11791718  0.61218591  0.85829813  1
  Ta5+  Ta74  1  0.41301692  0.36934007  0.87949999  1
  W6+  W75  1  0.57829388  0.37297272  0.88747571  1
  W6+  W76  1  0.39561764  0.10814029  0.12434287  1
  W6+  W77  1  0.33434854  0.37574151  0.62445412  1
  W6+  W78  1  0.36658612  0.86470225  0.13195025  1
  W6+  W79  1  0.62889728  0.88144594  0.62604625  1
  W6+  W80  1  0.86961377  0.13110122  0.89524532  1
  W6+  W81  1  0.85705206  0.38587869  0.12062765  1
  W6+  W82  1  0.13877095  0.12873590  0.13109754  1
  O2-  O83  1  0.18476631  0.00179656  0.13264550  1
  O2-  O84  1  0.14133415  -0.00342968  0.38193846  1
  O2-  O85  1  0.12464818  -0.00076237  0.61807624  1
  O2-  O86  1  0.12940403  0.01117615  0.85871044  1
  O2-  O87  1  0.13885606  0.49116094  0.11208840  1
  O2-  O88  1  0.10125262  0.50748106  0.37600858  1
  O2-  O89  1  0.13560622  0.49743791  0.61987999  1
  O2-  O90  1  0.15806689  0.49561534  0.86511002  1
  O2-  O91  1  0.38453353  -0.00932755  0.14297959  1
  O2-  O92  1  0.37647115  -0.00642549  0.37526520  1
  O2-  O93  1  0.35421167  -0.01215569  0.62124797  1
  O2-  O94  1  0.34763752  -0.02221527  0.85555121  1
  O2-  O95  1  0.34004420  0.49570533  0.12092185  1
  O2-  O96  1  0.42494860  0.49170608  0.36198318  1
  O2-  O97  1  0.32144019  0.51258690  0.62549806  1
  O2-  O98  1  0.39277191  0.49750920  0.87505881  1
  O2-  O99  1  0.65721900  -0.02520869  0.13055202  1
  O2-  O100  1  0.58078181  -0.00698848  0.38715692  1
  O2-  O101  1  0.58538231  0.00876564  0.63586796  1
  O2-  O102  1  0.68284443  0.02087659  0.88404169  1
  O2-  O103  1  0.67179572  0.52796990  0.14681758  1
  O2-  O104  1  0.61735772  0.50283996  0.37918290  1
  O2-  O105  1  0.63430422  0.50064979  0.62772520  1
  O2-  O106  1  0.59909157  0.50550575  0.87110501  1
  O2-  O107  1  0.86282982  0.00590882  0.13811059  1
  O2-  O108  1  0.91776903  0.01142885  0.37370363  1
  O2-  O109  1  0.86530754  0.01450959  0.63516911  1
  O2-  O110  1  0.89249191  0.00022788  0.87921543  1
  O2-  O111  1  0.86282968  0.51344389  0.14446612  1
  O2-  O112  1  0.90199567  0.51186739  0.36507515  1
  O2-  O113  1  0.86088013  0.49553618  0.63168400  1
  O2-  O114  1  0.80106180  0.51361727  0.86830955  1
  O2-  O115  1  0.08070616  0.26361862  0.12507634  1
  O2-  O116  1  0.09867600  0.25731015  0.37601772  1
  O2-  O117  1  0.11071144  0.25236223  0.61693933  1
  O2-  O118  1  0.11434742  0.23605634  0.84773212  1
  O2-  O119  1  0.11120043  0.75109461  0.10092693  1
  O2-  O120  1  0.14262971  0.75298712  0.36927595  1
  O2-  O121  1  0.12894662  0.74974039  0.64255597  1
  O2-  O122  1  0.14150147  0.75438844  0.86563201  1
  O2-  O123  1  0.38424691  0.24080287  0.12344310  1
  O2-  O124  1  0.41700294  0.25635697  0.36916350  1
  O2-  O125  1  0.37594300  0.23613381  0.61920712  1
  O2-  O126  1  0.42069192  0.23229935  0.87173938  1
  O2-  O127  1  0.31369694  0.72618182  0.13080861  1
  O2-  O128  1  0.37880045  0.73887352  0.37562770  1
  O2-  O129  1  0.32909006  0.73777928  0.61403673  1
  O2-  O130  1  0.32443596  0.74374968  0.87196454  1
  O2-  O131  1  0.62985147  0.23215961  0.14649403  1
  O2-  O132  1  0.61337865  0.24804311  0.35896674  1
  O2-  O133  1  0.58693753  0.25278546  0.61737091  1
  O2-  O134  1  0.61565449  0.23685268  0.90387690  1
  O2-  O135  1  0.65936197  0.75075125  0.12173882  1
  O2-  O136  1  0.63921691  0.75131652  0.37124238  1
  O2-  O137  1  0.67241803  0.74654616  0.62369763  1
  O2-  O138  1  0.69976696  0.71633180  0.87983607  1
  O2-  O139  1  0.81689518  0.25601243  0.12775465  1
  O2-  O140  1  0.90838060  0.25071495  0.38061228  1
  O2-  O141  1  0.90515349  0.27136679  0.62295153  1
  O2-  O142  1  0.79779921  0.24325668  0.90556172  1
  O2-  O143  1  0.91225897  0.75859312  0.11202458  1
  O2-  O144  1  0.88744240  0.76108639  0.40913869  1
  O2-  O145  1  0.85490138  0.75470653  0.61582275  1
  O2-  O146  1  0.86988215  0.75639491  0.88193431  1
  O2-  O147  1  0.16317765  0.16091126  -0.00145835  1
  O2-  O148  1  0.08798034  0.12296938  0.26889743  1
  O2-  O149  1  0.07283746  0.12735279  0.49164711  1
  O2-  O150  1  0.06432131  0.12824096  0.72485643  1
  O2-  O151  1  0.13086010  0.62881572  -0.01523208  1
  O2-  O152  1  0.13047728  0.64057210  0.24687763  1
  O2-  O153  1  0.14799375  0.63729304  0.49946260  1
  O2-  O154  1  0.16589299  0.62146680  0.74190911  1
  O2-  O155  1  0.38761820  0.10437085  -0.01324756  1
  O2-  O156  1  0.41473746  0.12951646  0.26035801  1
  O2-  O157  1  0.40835258  0.12135498  0.50036336  1
  O2-  O158  1  0.40948180  0.11310703  0.73319652  1
  O2-  O159  1  0.33817001  0.62481756  -0.00722591  1
  O2-  O160  1  0.38208467  0.62379105  0.24563483  1
  O2-  O161  1  0.38973291  0.61147849  0.49158916  1
  O2-  O162  1  0.35533293  0.63171161  0.75142143  1
  O2-  O163  1  0.57843099  0.10356898  0.02367976  1
  O2-  O164  1  0.58516871  0.10715730  0.25300956  1
  O2-  O165  1  0.59783542  0.13522152  0.49753043  1
  O2-  O166  1  0.61093439  0.14499010  0.75921974  1
  O2-  O167  1  0.63972230  0.62491505  0.00240527  1
  O2-  O168  1  0.57881879  0.64221283  0.24845974  1
  O2-  O169  1  0.64979159  0.63371557  0.50128119  1
  O2-  O170  1  0.64469639  0.63361715  0.74946284  1
  O2-  O171  1  0.92391374  0.14165707  0.02728215  1
  O2-  O172  1  0.90086841  0.14538437  0.24917600  1
  O2-  O173  1  0.89032795  0.13976912  0.50392595  1
  O2-  O174  1  0.86108588  0.16276088  0.75595445  1
  O2-  O175  1  0.85776722  0.64000705  0.00030281  1
  O2-  O176  1  0.89848399  0.65999327  0.25963925  1
  O2-  O177  1  0.84168637  0.62222489  0.49947697  1
  O2-  O178  1  0.84868305  0.63785536  0.75046280  1
  O2-  O179  1  0.10626777  0.36330466  -0.02692031  1
  O2-  O180  1  0.08651086  0.37939187  0.25101280  1
  O2-  O181  1  0.12507402  0.36989979  0.49766439  1
  O2-  O182  1  0.11798220  0.36707623  0.74392767  1
  O2-  O183  1  0.16632011  0.88093612  -0.01320522  1
  O2-  O184  1  0.13880507  0.85703062  0.24469566  1
  O2-  O185  1  0.13605988  0.86367017  0.50436244  1
  O2-  O186  1  0.17310497  0.87926238  0.74475513  1
  O2-  O187  1  0.40460484  0.36853588  0.00776442  1
  O2-  O188  1  0.41856951  0.36998541  0.23719375  1
  O2-  O189  1  0.38241896  0.36973755  0.49165293  1
  O2-  O190  1  0.39286515  0.36386637  0.75245403  1
  O2-  O191  1  0.34699774  0.85410942  -0.00772318  1
  O2-  O192  1  0.34745009  0.85425486  0.26329847  1
  O2-  O193  1  0.35686575  0.86410002  0.49452421  1
  O2-  O194  1  0.36051519  0.84663067  0.74421028  1
  O2-  O195  1  0.59544179  0.38397345  0.03581507  1
  O2-  O196  1  0.60620023  0.37742230  0.25133201  1
  O2-  O197  1  0.57250225  0.37512998  0.50300916  1
  O2-  O198  1  0.59232160  0.35433773  0.74503579  1
  O2-  O199  1  0.64903840  0.86693210  -0.01855865  1
  O2-  O200  1  0.57606777  0.86103817  0.24828651  1
  O2-  O201  1  0.63699880  0.86332420  0.49283775  1
  O2-  O202  1  0.64919700  0.87113372  0.77475779  1
  O2-  O203  1  0.93780979  0.34972705  0.01068802  1
  O2-  O204  1  0.90365972  0.36103319  0.24910833  1
  O2-  O205  1  0.91384272  0.38317518  0.49176651  1
  O2-  O206  1  0.91948462  0.35494742  0.82113561  1
  O2-  O207  1  0.84740015  0.87802374  0.00388290  1
  O2-  O208  1  0.90695897  0.86439640  0.25394141  1
  O2-  O209  1  0.84283332  0.89180509  0.49789487  1
  O2-  O210  1  0.84252104  0.87353768  0.75069598  1
  O2-  O211  1  0.00960412  -0.14064405  -0.05722850  1
  O2-  O212  1  0.01658308  -0.10042993  0.11921883  1
  O2-  O213  1  -0.00971575  -0.12398188  0.61702765  1
  O2-  O214  1  0.00967494  -0.11586119  0.78819622  1
  O2-  O215  1  -0.04379097  0.51367838  -0.08261344  1
  O2-  O216  1  0.00267344  0.61901554  0.11309506  1
  O2-  O217  1  -0.00435920  0.62543478  0.62467378  1
  O2-  O218  1  0.00159339  0.65310894  0.85197930  1
  O2-  O219  1  0.27403011  0.13764724  -0.14155581  1
  O2-  O220  1  0.25542978  0.14707483  0.36092094  1
  O2-  O221  1  0.23907527  0.12520028  0.53865501  1
  O2-  O222  1  0.22933960  0.12000185  0.70259902  1
  O2-  O223  1  0.24600584  0.34077656  0.05473473  1
  O2-  O224  1  0.24785023  0.36268141  0.20958579  1
  O2-  O225  1  0.25502628  0.39241280  0.37136750  1
  O2-  O226  1  0.27506606  0.33869371  0.87948974  1
  O2-  O227  1  0.51567065  0.02207837  -0.13388647  1
  O2-  O228  1  0.49593608  -0.13023632  0.08020918  1
  O2-  O229  1  0.49752139  -0.15247951  0.61742648  1
  O2-  O230  1  0.50020927  -0.14841090  0.87574408  1
  O2-  O231  1  0.48611962  0.68373058  0.08820835  1
  O2-  O232  1  0.50318471  0.52841564  0.12507088  1
  O2-  O233  1  0.49889365  0.63269793  0.63247022  1
  O2-  O234  1  0.49665230  0.66126642  0.87795847  1
  O2-  O235  1  0.74499248  0.12170381  0.04877170  1
  O2-  O236  1  0.74477068  0.11891066  0.21479421  1
  O2-  O237  1  0.74797003  0.11441605  0.38755352  1
  O2-  O238  1  0.74042343  0.16662010  0.62685394  1
  O2-  O239  1  0.78293002  0.40063573  0.00188899  1
  O2-  O240  1  0.75426865  0.37013364  0.35953510  1
  O2-  O241  1  0.73243854  0.37585990  0.53076767  1
  O2-  O242  1  0.75385266  0.35457558  0.69279495  1
