# generated using pymatgen
data_Gd19Ta56(WO20)8
_symmetry_space_group_name_H-M   'P 1'
_cell_length_a   15.71796217
_cell_length_b   15.52808769
_cell_length_c   15.24058726
_cell_angle_alpha   89.78150862
_cell_angle_beta   90.32056665
_cell_angle_gamma   89.73357251
_symmetry_Int_Tables_number   1
_chemical_formula_structural   Gd19Ta56(WO20)8
_chemical_formula_sum   'Gd19 Ta56 W8 O160'
_cell_volume   3719.64267723
_cell_formula_units_Z   1
loop_
 _symmetry_equiv_pos_site_id
 _symmetry_equiv_pos_as_xyz
  1  'x, y, z'
loop_
 _atom_type_symbol
 _atom_type_oxidation_number
  Gd3+  3.0
  Ta5+  5.0
  W6+  6.0
  O2-  -2.0
loop_
 _atom_site_type_symbol
 _atom_site_label
 _atom_site_symmetry_multiplicity
 _atom_site_fract_x
 _atom_site_fract_y
 _atom_site_fract_z
 _atom_site_occupancy
  Gd3+  Gd0  1  0.22416937  0.74946014  0.47181796  1
  Gd3+  Gd1  1  0.24673590  0.24637973  -0.02920448  1
  Gd3+  Gd2  1  0.55485873  0.21395056  0.50943246  1
  Gd3+  Gd3  1  0.50353766  0.75194382  -0.01046503  1
  Gd3+  Gd4  1  -0.00406851  0.74673498  0.01518777  1
  Gd3+  Gd5  1  -0.03534161  0.77871771  0.50500340  1
  Gd3+  Gd6  1  0.50387155  0.74974118  0.24331133  1
  Gd3+  Gd7  1  0.75172850  0.24467761  0.26507965  1
  Gd3+  Gd8  1  0.73782114  0.75580961  0.49143134  1
  Gd3+  Gd9  1  0.76721692  0.75810635  -0.01454995  1
  Gd3+  Gd10  1  0.75408737  0.77582867  0.26368264  1
  Gd3+  Gd11  1  0.49851058  0.25446853  -0.01018739  1
  Gd3+  Gd12  1  0.26167355  0.24673192  0.72434691  1
  Gd3+  Gd13  1  0.50851124  0.24583409  0.23821521  1
  Gd3+  Gd14  1  -0.01116462  0.26214238  0.51911305  1
  Gd3+  Gd15  1  0.51199248  0.75226526  0.70428666  1
  Gd3+  Gd16  1  0.00597389  0.24573210  0.26271327  1
  Gd3+  Gd17  1  -0.01910648  0.75271647  0.75247424  1
  Gd3+  Gd18  1  0.23050597  0.25503332  0.24372816  1
  Ta5+  Ta19  1  0.88665383  0.38027583  0.12005633  1
  Ta5+  Ta20  1  0.67162734  0.62174198  0.63582787  1
  Ta5+  Ta21  1  0.11182341  0.38126834  0.09641152  1
  Ta5+  Ta22  1  0.86199711  0.93733475  0.38005245  1
  Ta5+  Ta23  1  0.36946546  0.11528435  0.11875036  1
  Ta5+  Ta24  1  0.83824281  0.62217164  0.63427400  1
  Ta5+  Ta25  1  0.16254647  0.38320789  0.44668192  1
  Ta5+  Ta26  1  0.62002898  0.12395849  0.86834199  1
  Ta5+  Ta27  1  0.36446217  0.63066448  0.11187482  1
  Ta5+  Ta28  1  0.86685395  0.13376477  0.39240252  1
  Ta5+  Ta29  1  0.11862080  0.38390510  0.64640501  1
  Ta5+  Ta30  1  0.35543447  0.87499145  0.11521424  1
  Ta5+  Ta31  1  0.61920313  0.89048817  0.11654800  1
  Ta5+  Ta32  1  0.08851201  0.60890628  0.37707368  1
  Ta5+  Ta33  1  0.11905695  0.87168052  0.62583205  1
  Ta5+  Ta34  1  0.35852565  0.87378354  0.59837307  1
  Ta5+  Ta35  1  0.88535735  0.60404197  0.37852189  1
  Ta5+  Ta36  1  0.83857361  0.62068101  0.13847429  1
  Ta5+  Ta37  1  0.87804474  0.89813202  0.87910882  1
  Ta5+  Ta38  1  0.64899975  0.11597095  0.11421173  1
  Ta5+  Ta39  1  0.61343143  0.61543820  0.38131523  1
  Ta5+  Ta40  1  0.12337224  0.62769979  0.63477865  1
  Ta5+  Ta41  1  0.63654192  0.62087365  0.87881667  1
  Ta5+  Ta42  1  0.62665715  0.37521376  0.86550994  1
  Ta5+  Ta43  1  0.90917563  0.13931081  0.11239892  1
  Ta5+  Ta44  1  0.83607098  0.89043860  0.63515721  1
  Ta5+  Ta45  1  0.70270281  0.06614414  0.39108540  1
  Ta5+  Ta46  1  0.10821693  0.11979349  0.62846664  1
  Ta5+  Ta47  1  0.88044535  0.38035230  0.65381535  1
  Ta5+  Ta48  1  0.92484756  0.14185937  0.89216716  1
  Ta5+  Ta49  1  0.88173723  0.61691662  0.88231855  1
  Ta5+  Ta50  1  0.85667462  0.89879204  0.12818331  1
  Ta5+  Ta51  1  0.38520373  0.38647372  0.10731182  1
  Ta5+  Ta52  1  0.63161105  0.88319740  0.86925691  1
  Ta5+  Ta53  1  0.11121009  0.11792739  0.08522401  1
  Ta5+  Ta54  1  0.66986534  0.88819163  0.62968815  1
  Ta5+  Ta55  1  0.90613159  0.38672873  0.89286269  1
  Ta5+  Ta56  1  0.37259148  0.38160705  0.34790514  1
  Ta5+  Ta57  1  0.14074756  0.12237419  0.40790178  1
  Ta5+  Ta58  1  0.63455539  0.37259812  0.11255448  1
  Ta5+  Ta59  1  0.63220035  0.61832357  0.12624992  1
  Ta5+  Ta60  1  0.64202770  0.37572772  0.62942750  1
  Ta5+  Ta61  1  0.69857435  0.12322999  0.63830649  1
  Ta5+  Ta62  1  0.37936509  0.62411702  0.36631421  1
  Ta5+  Ta63  1  0.86404977  0.13327735  0.64787592  1
  Ta5+  Ta64  1  0.59857091  0.89487481  0.37774683  1
  Ta5+  Ta65  1  0.41583163  0.11936470  0.85487741  1
  Ta5+  Ta66  1  0.37859462  0.11949349  0.60588052  1
  Ta5+  Ta67  1  0.39179183  0.88137648  0.36434488  1
  Ta5+  Ta68  1  0.36040045  0.62435088  0.61114218  1
  Ta5+  Ta69  1  0.12492737  0.87806156  0.12046237  1
  Ta5+  Ta70  1  0.12705044  0.61622185  0.12865001  1
  Ta5+  Ta71  1  0.15091458  0.09307713  0.84525605  1
  Ta5+  Ta72  1  0.38990363  0.87578948  0.85382494  1
  Ta5+  Ta73  1  0.37909168  0.12437882  0.36310752  1
  Ta5+  Ta74  1  0.38348023  0.38638382  0.85353551  1
  W6+  W75  1  0.04644457  0.59298829  0.88125164  1
  W6+  W76  1  0.10195978  0.87330841  0.36067624  1
  W6+  W77  1  0.86182673  0.38292957  0.38744461  1
  W6+  W78  1  0.12332557  0.85679344  0.87837693  1
  W6+  W79  1  0.60716867  0.36670578  0.37416677  1
  W6+  W80  1  0.37162814  0.37091682  0.59482686  1
  W6+  W81  1  0.08383782  0.33955300  0.84235609  1
  W6+  W82  1  0.39410865  0.63321044  0.85256066  1
  O2-  O83  1  0.14365846  0.00280614  0.11098737  1
  O2-  O84  1  0.12568333  0.00815110  0.38615996  1
  O2-  O85  1  0.10961352  -0.01034330  0.62281086  1
  O2-  O86  1  0.17791940  -0.02185138  0.85863752  1
  O2-  O87  1  0.16483015  0.48731490  0.11161660  1
  O2-  O88  1  0.15312765  0.49717262  0.39859207  1
  O2-  O89  1  0.13447981  0.50789991  0.63753884  1
  O2-  O90  1  0.01095641  0.44926548  0.87962493  1
  O2-  O91  1  0.38607384  -0.00640369  0.10393838  1
  O2-  O92  1  0.36898448  0.00325725  0.36508227  1
  O2-  O93  1  0.36756377  -0.00449756  0.59160527  1
  O2-  O94  1  0.39357420  -0.00195017  0.85987458  1
  O2-  O95  1  0.37873190  0.50850833  0.10284122  1
  O2-  O96  1  0.34923815  0.50563775  0.34884494  1
  O2-  O97  1  0.37316851  0.50826455  0.59649108  1
  O2-  O98  1  0.35768595  0.50011729  0.85749916  1
  O2-  O99  1  0.58947134  0.00755418  0.13007436  1
  O2-  O100  1  0.58511362  0.01464127  0.36880919  1
  O2-  O101  1  0.65359285  0.00862723  0.64138199  1
  O2-  O102  1  0.60879907  0.00023185  0.85631440  1
  O2-  O103  1  0.63256638  0.49686769  0.13048518  1
  O2-  O104  1  0.62861807  0.50019283  0.36901124  1
  O2-  O105  1  0.63776695  0.49930933  0.63404038  1
  O2-  O106  1  0.63270563  0.49913325  0.86441684  1
  O2-  O107  1  0.88316652  0.01734255  0.11910677  1
  O2-  O108  1  0.92829498  0.03431131  0.34427932  1
  O2-  O109  1  0.86764102  0.01119161  0.63519629  1
  O2-  O110  1  0.90174319  0.01397713  0.89659044  1
  O2-  O111  1  0.84417915  0.49943087  0.12522858  1
  O2-  O112  1  0.81402856  0.50994417  0.37026247  1
  O2-  O113  1  0.88022051  0.50324228  0.65352556  1
  O2-  O114  1  0.85376215  0.50201494  0.90609933  1
  O2-  O115  1  0.15668468  0.23939063  0.09868201  1
  O2-  O116  1  0.11391998  0.26857196  0.42447906  1
  O2-  O117  1  0.12155501  0.25055268  0.63395114  1
  O2-  O118  1  0.17641769  0.22654955  0.84489702  1
  O2-  O119  1  0.10360573  0.74144235  0.12267943  1
  O2-  O120  1  0.14620475  0.72820986  0.35445205  1
  O2-  O121  1  0.05992132  0.74570499  0.62077541  1
  O2-  O122  1  0.06238541  0.73460257  0.88777344  1
  O2-  O123  1  0.40246446  0.24709559  0.11738691  1
  O2-  O124  1  0.37617484  0.24742154  0.31669777  1
  O2-  O125  1  0.33872244  0.23624006  0.59222199  1
  O2-  O126  1  0.37688170  0.24549890  0.86931261  1
  O2-  O127  1  0.41423514  0.75982068  0.12480275  1
  O2-  O128  1  0.37795072  0.75028209  0.34788551  1
  O2-  O129  1  0.40573379  0.75076510  0.59117436  1
  O2-  O130  1  0.45252455  0.76174244  0.84552303  1
  O2-  O131  1  0.60163722  0.23629350  0.10421503  1
  O2-  O132  1  0.56500684  0.23645242  0.36961765  1
  O2-  O133  1  0.64602364  0.23839063  0.62474019  1
  O2-  O134  1  0.61098443  0.24973497  0.89365906  1
  O2-  O135  1  0.59636466  0.75138584  0.11704106  1
  O2-  O136  1  0.63338991  0.74963398  0.36783283  1
  O2-  O137  1  0.65703680  0.75036845  0.62542521  1
  O2-  O138  1  0.63246636  0.75406202  0.90683158  1
  O2-  O139  1  0.94916365  0.26579168  0.12247486  1
  O2-  O140  1  0.92467762  0.25448884  0.38345883  1
  O2-  O141  1  0.91405433  0.25621358  0.65178748  1
  O2-  O142  1  0.96743478  0.27081593  0.89574786  1
  O2-  O143  1  0.83535726  0.76031117  0.13549196  1
  O2-  O144  1  0.81995448  0.71607892  0.37557792  1
  O2-  O145  1  0.86823687  0.75508886  0.62638639  1
  O2-  O146  1  0.88392908  0.75989657  0.88603213  1
  O2-  O147  1  0.17491126  0.11711576  -0.02795862  1
  O2-  O148  1  0.12548818  0.16698208  0.29201518  1
  O2-  O149  1  0.06448532  0.12743225  0.50819107  1
  O2-  O150  1  0.19244390  0.10936539  0.72503137  1
  O2-  O151  1  0.05579803  0.60363074  0.03051266  1
  O2-  O152  1  0.09603561  0.59732919  0.24566091  1
  O2-  O153  1  0.12735766  0.63521698  0.50363015  1
  O2-  O154  1  0.06392410  0.62605167  0.74298721  1
  O2-  O155  1  0.35077561  0.13652323  -0.00517559  1
  O2-  O156  1  0.43117379  0.11500635  0.23801318  1
  O2-  O157  1  0.42948902  0.13312822  0.47712005  1
  O2-  O158  1  0.36369344  0.12541975  0.73108669  1
  O2-  O159  1  0.39012372  0.65264926  -0.00636019  1
  O2-  O160  1  0.40309399  0.63066255  0.23372729  1
  O2-  O161  1  0.32310956  0.63828977  0.47757760  1
  O2-  O162  1  0.42483736  0.63215601  0.71618169  1
  O2-  O163  1  0.67224467  0.10938577  -0.00748335  1
  O2-  O164  1  0.68019998  0.11706386  0.24245373  1
  O2-  O165  1  0.66786887  0.11812773  0.49961606  1
  O2-  O166  1  0.69122296  0.13482137  0.77038988  1
  O2-  O167  1  0.57637462  0.61804241  0.00019684  1
  O2-  O168  1  0.57964793  0.62726664  0.24751204  1
  O2-  O169  1  0.65647757  0.62598759  0.49920878  1
  O2-  O170  1  0.61244235  0.64711034  0.75732375  1
  O2-  O171  1  0.85579397  0.16186192  -0.00144596  1
  O2-  O172  1  0.86881739  0.16244876  0.23756786  1
  O2-  O173  1  0.88228765  0.15423908  0.51782198  1
  O2-  O174  1  0.87028799  0.14821713  0.78492664  1
  O2-  O175  1  0.88518552  0.64872790  0.01801073  1
  O2-  O176  1  0.90046830  0.62587752  0.24576609  1
  O2-  O177  1  0.86305459  0.62089821  0.50843725  1
  O2-  O178  1  0.87799183  0.64127844  0.75885389  1
  O2-  O179  1  0.13973031  0.35221141  -0.02395586  1
  O2-  O180  1  0.11140987  0.34261473  0.21822444  1
  O2-  O181  1  0.06380674  0.39340427  0.52696304  1
  O2-  O182  1  0.18555582  0.37437572  0.75329129  1
  O2-  O183  1  0.07344896  0.87495951  0.00836298  1
  O2-  O184  1  0.07155195  0.88593816  0.22702682  1
  O2-  O185  1  0.11134009  0.84500398  0.49754536  1
  O2-  O186  1  0.10042389  0.84894802  0.74723153  1
  O2-  O187  1  0.34605421  0.36439225  -0.01013987  1
  O2-  O188  1  0.31534450  0.37561259  0.20580645  1
  O2-  O189  1  0.40481005  0.36447864  0.46135417  1
  O2-  O190  1  0.36468453  0.36011242  0.73502049  1
  O2-  O191  1  0.38777869  0.85822902  -0.01609406  1
  O2-  O192  1  0.33898230  0.87903986  0.23815398  1
  O2-  O193  1  0.31956615  0.86308002  0.46981470  1
  O2-  O194  1  0.39094797  0.86898238  0.72361452  1
  O2-  O195  1  0.66164070  0.37733385  -0.00656136  1
  O2-  O196  1  0.64355434  0.34139428  0.23811207  1
  O2-  O197  1  0.59088307  0.36006794  0.51524378  1
  O2-  O198  1  0.59434543  0.36032364  0.74359541  1
  O2-  O199  1  0.57729602  0.88488330  -0.00642784  1
  O2-  O200  1  0.63725919  0.86234316  0.24005209  1
  O2-  O201  1  0.64695004  0.87547326  0.49857095  1
  O2-  O202  1  0.61090207  0.85583820  0.74896602  1
  O2-  O203  1  0.84822041  0.35748119  0.00457495  1
  O2-  O204  1  0.84996843  0.35564072  0.23886602  1
  O2-  O205  1  0.88981597  0.37475869  0.52589778  1
  O2-  O206  1  0.85367339  0.36763211  0.78633837  1
  O2-  O207  1  0.89490712  0.86673672  0.01004125  1
  O2-  O208  1  0.85368499  0.88990901  0.25451884  1
  O2-  O209  1  0.83891879  0.86936095  0.49924782  1
  O2-  O210  1  0.88999947  0.88275090  0.75556019  1
  O2-  O211  1  0.01039660  0.12058622  0.01435931  1
  O2-  O212  1  0.02283825  0.12375308  0.17518098  1
  O2-  O213  1  -0.03286046  -0.12802717  0.39208277  1
  O2-  O214  1  0.03462552  0.10543152  0.84007116  1
  O2-  O215  1  0.00015604  0.42459016  0.09233647  1
  O2-  O216  1  -0.01000983  0.53116721  0.37962125  1
  O2-  O217  1  -0.00807173  0.68530199  0.40208276  1
  O2-  O218  1  0.01372896  0.38087002  0.70731512  1
  O2-  O219  1  0.24209129  -0.15086618  0.09220956  1
  O2-  O220  1  0.26156815  0.12616822  0.16294509  1
  O2-  O221  1  0.26372813  0.14308538  0.39514194  1
  O2-  O222  1  0.24138930  -0.15592506  0.62142235  1
  O2-  O223  1  0.24812571  0.64441488  0.12512981  1
  O2-  O224  1  0.25005854  0.34843356  0.36111233  1
  O2-  O225  1  0.22951510  0.37841832  0.55124496  1
  O2-  O226  1  0.24379567  0.65462895  0.64311053  1
  O2-  O227  1  0.50539245  0.11830485  -0.05013227  1
  O2-  O228  1  0.49401233  -0.11281265  0.28683124  1
  O2-  O229  1  0.48920506  -0.12850526  0.44465360  1
  O2-  O230  1  0.51598875  0.13747990  0.78962170  1
  O2-  O231  1  0.50615084  0.37665630  0.10313921  1
  O2-  O232  1  0.47924201  0.38396252  0.28817985  1
  O2-  O233  1  0.49197840  0.62383484  0.40642333  1
  O2-  O234  1  0.49883829  0.37782989  0.89653153  1
  O2-  O235  1  0.73650331  -0.11144685  0.08380818  1
  O2-  O236  1  0.72900262  -0.07272670  0.35879135  1
  O2-  O237  1  0.80607202  0.02863598  0.45236202  1
  O2-  O238  1  0.75307498  -0.11426441  0.88794446  1
  O2-  O239  1  0.73091038  0.63254120  0.05317269  1
  O2-  O240  1  0.73336435  0.63822183  0.21125410  1
  O2-  O241  1  0.75927486  0.36987909  0.64082955  1
  O2-  O242  1  0.75288366  0.64358052  0.87979451  1
