# generated using pymatgen
data_Gd19Ta56(WO20)8
_symmetry_space_group_name_H-M   'P 1'
_cell_length_a   15.48411170
_cell_length_b   15.47536953
_cell_length_c   15.25731068
_cell_angle_alpha   89.89130578
_cell_angle_beta   89.87231607
_cell_angle_gamma   90.10083664
_symmetry_Int_Tables_number   1
_chemical_formula_structural   Gd19Ta56(WO20)8
_chemical_formula_sum   'Gd19 Ta56 W8 O160'
_cell_volume   3655.97129906
_cell_formula_units_Z   1
loop_
 _symmetry_equiv_pos_site_id
 _symmetry_equiv_pos_as_xyz
  1  'x, y, z'
loop_
 _atom_type_symbol
 _atom_type_oxidation_number
  Gd3+  3.0
  Ta5+  5.0
  W6+  6.0
  O2-  -2.0
loop_
 _atom_site_type_symbol
 _atom_site_label
 _atom_site_symmetry_multiplicity
 _atom_site_fract_x
 _atom_site_fract_y
 _atom_site_fract_z
 _atom_site_occupancy
  Gd3+  Gd0  1  0.01417965  0.73434236  0.25425977  1
  Gd3+  Gd1  1  0.72803008  0.72829132  0.46625210  1
  Gd3+  Gd2  1  0.49197316  0.73974446  0.75452642  1
  Gd3+  Gd3  1  0.50293342  0.27036038  0.50992941  1
  Gd3+  Gd4  1  0.49788538  0.74725068  -0.00713009  1
  Gd3+  Gd5  1  0.00389290  0.24927926  0.50840968  1
  Gd3+  Gd6  1  0.25811836  0.74464919  -0.02409378  1
  Gd3+  Gd7  1  0.00982067  0.74996193  0.00651716  1
  Gd3+  Gd8  1  0.75376162  0.75174987  0.73613735  1
  Gd3+  Gd9  1  0.25098295  0.25358942  0.22560574  1
  Gd3+  Gd10  1  0.00865022  0.76042915  0.76034989  1
  Gd3+  Gd11  1  0.75461449  0.74525223  0.00975659  1
  Gd3+  Gd12  1  0.52497787  0.25990466  0.01505980  1
  Gd3+  Gd13  1  0.21801473  0.23947357  0.77882149  1
  Gd3+  Gd14  1  -0.01655797  0.24310845  -0.01732722  1
  Gd3+  Gd15  1  0.75725927  0.24597442  0.03571065  1
  Gd3+  Gd16  1  0.50429678  0.75343313  0.23980062  1
  Gd3+  Gd17  1  0.24015954  0.75485321  0.49825107  1
  Gd3+  Gd18  1  0.75074080  0.22584685  0.47053942  1
  Ta5+  Ta19  1  0.35013304  0.88333115  0.13542872  1
  Ta5+  Ta20  1  0.10579894  0.09633827  0.89552409  1
  Ta5+  Ta21  1  0.40412039  0.62386887  0.38611817  1
  Ta5+  Ta22  1  0.35622560  0.89917880  0.62252595  1
  Ta5+  Ta23  1  0.35181621  0.62294652  0.13662468  1
  Ta5+  Ta24  1  0.87746434  0.87799367  0.13190912  1
  Ta5+  Ta25  1  0.89544219  0.36981120  0.13297807  1
  Ta5+  Ta26  1  0.61322947  0.60523065  0.61878443  1
  Ta5+  Ta27  1  0.41586298  0.38961081  0.13631977  1
  Ta5+  Ta28  1  0.12995871  0.88375423  0.63571312  1
  Ta5+  Ta29  1  0.42368397  0.88372699  0.38368020  1
  Ta5+  Ta30  1  0.62900595  0.12470843  0.62856862  1
  Ta5+  Ta31  1  0.06471076  0.37346711  0.13433582  1
  Ta5+  Ta32  1  0.89880953  0.87308826  0.37556405  1
  Ta5+  Ta33  1  0.87053963  0.61180612  0.13307880  1
  Ta5+  Ta34  1  0.08063777  0.87488750  0.39466337  1
  Ta5+  Ta35  1  0.33876253  0.37120958  0.62843019  1
  Ta5+  Ta36  1  0.59158164  0.12171900  0.35950249  1
  Ta5+  Ta37  1  0.67167522  0.36455866  0.87001348  1
  Ta5+  Ta38  1  0.57116942  0.60604462  0.37027306  1
  Ta5+  Ta39  1  0.89082657  0.61779070  0.38346832  1
  Ta5+  Ta40  1  0.13288719  0.90550371  0.89183420  1
  Ta5+  Ta41  1  0.85516824  0.11145226  0.61521094  1
  Ta5+  Ta42  1  0.90227618  0.11391476  0.35869794  1
  Ta5+  Ta43  1  0.38956528  0.14159823  0.64312686  1
  Ta5+  Ta44  1  0.14360856  0.88474637  0.14600368  1
  Ta5+  Ta45  1  0.11648265  0.62006293  0.87309671  1
  Ta5+  Ta46  1  0.84317366  0.89182337  0.88559493  1
  Ta5+  Ta47  1  0.65996312  0.14131161  0.88031555  1
  Ta5+  Ta48  1  0.88864372  0.12108996  0.13330470  1
  Ta5+  Ta49  1  0.88535550  0.38317210  0.37790064  1
  Ta5+  Ta50  1  0.63229253  0.89357984  0.89391346  1
  Ta5+  Ta51  1  0.14081522  0.37659972  0.62821782  1
  Ta5+  Ta52  1  0.15031399  0.60394480  0.13240929  1
  Ta5+  Ta53  1  0.64003970  0.38360472  0.38384594  1
  Ta5+  Ta54  1  0.63757568  0.61032392  0.87641871  1
  Ta5+  Ta55  1  0.09888049  0.37498555  0.88294306  1
  Ta5+  Ta56  1  0.41015697  0.59342731  0.61128220  1
  Ta5+  Ta57  1  0.82758391  0.13444705  0.86665978  1
  Ta5+  Ta58  1  0.13054750  0.36685180  0.37154132  1
  Ta5+  Ta59  1  0.59947532  0.88362778  0.60847019  1
  Ta5+  Ta60  1  0.05675076  0.11950688  0.15582434  1
  Ta5+  Ta61  1  0.91409351  0.61887362  0.62157484  1
  Ta5+  Ta62  1  0.38140128  0.88800241  0.87288715  1
  Ta5+  Ta63  1  0.84460344  0.36678718  0.86807352  1
  Ta5+  Ta64  1  0.36309682  0.12997541  0.38632123  1
  Ta5+  Ta65  1  0.63033470  0.13237232  0.16031833  1
  Ta5+  Ta66  1  0.63600064  0.61673386  0.12658949  1
  Ta5+  Ta67  1  0.65764606  0.38729263  0.14190514  1
  Ta5+  Ta68  1  0.67680008  0.37698653  0.62538449  1
  Ta5+  Ta69  1  0.90113466  0.87611934  0.57951327  1
  Ta5+  Ta70  1  0.85639852  0.61757409  0.87651956  1
  Ta5+  Ta71  1  0.12145633  0.11869696  0.37439200  1
  Ta5+  Ta72  1  0.84712012  0.37646005  0.61973170  1
  Ta5+  Ta73  1  0.13197196  0.60858122  0.39021619  1
  Ta5+  Ta74  1  0.64058209  0.89181753  0.11911715  1
  W6+  W75  1  0.37635288  0.61337727  0.86828326  1
  W6+  W76  1  0.36473243  0.37774341  0.37499529  1
  W6+  W77  1  0.41839825  0.12651197  0.14122014  1
  W6+  W78  1  0.37847725  0.13638716  0.88873316  1
  W6+  W79  1  0.36589710  0.36521334  0.88109484  1
  W6+  W80  1  0.07962531  0.61974070  0.61586065  1
  W6+  W81  1  0.59177696  0.87114729  0.36946564  1
  W6+  W82  1  0.12121621  0.11673267  0.63446084  1
  O2-  O83  1  0.09063367  -0.00707329  0.14935297  1
  O2-  O84  1  0.09849762  -0.00393795  0.38216273  1
  O2-  O85  1  0.17305966  -0.00327096  0.63164576  1
  O2-  O86  1  0.19490616  0.01776889  0.92282027  1
  O2-  O87  1  0.07823444  0.50503735  0.13168331  1
  O2-  O88  1  0.16498944  0.48873991  0.37533652  1
  O2-  O89  1  0.09930604  0.48645790  0.62326693  1
  O2-  O90  1  0.11173790  0.50107484  0.88947488  1
  O2-  O91  1  0.39884095  -0.00956619  0.12886410  1
  O2-  O92  1  0.40643660  0.01549664  0.38867652  1
  O2-  O93  1  0.34748726  0.01620796  0.63315933  1
  O2-  O94  1  0.39780016  0.00546552  0.86565540  1
  O2-  O95  1  0.41426697  0.51611197  0.13415273  1
  O2-  O96  1  0.37833771  0.50657123  0.38245454  1
  O2-  O97  1  0.33246121  0.49375007  0.62471103  1
  O2-  O98  1  0.38138826  0.48150366  0.86432708  1
  O2-  O99  1  0.65695585  0.00994154  0.13021728  1
  O2-  O100  1  0.60324008  0.00584236  0.37131611  1
  O2-  O101  1  0.63798501  -0.00660029  0.63142176  1
  O2-  O102  1  0.62623199  0.01270366  0.88189894  1
  O2-  O103  1  0.69040359  0.50744904  0.12286321  1
  O2-  O104  1  0.57146018  0.48205869  0.36115278  1
  O2-  O105  1  0.68238682  0.50483492  0.62918074  1
  O2-  O106  1  0.63704996  0.48942333  0.87350003  1
  O2-  O107  1  0.87869074  -0.00544704  0.10551984  1
  O2-  O108  1  0.88019648  -0.00466173  0.38687265  1
  O2-  O109  1  0.84828080  -0.02034035  0.61300712  1
  O2-  O110  1  0.84794115  0.01059495  0.89497254  1
  O2-  O111  1  0.88125006  0.49771674  0.10477772  1
  O2-  O112  1  0.85082395  0.50311292  0.39150715  1
  O2-  O113  1  0.88139725  0.50528477  0.62050655  1
  O2-  O114  1  0.85898706  0.49790168  0.88086640  1
  O2-  O115  1  0.05751132  0.24386430  0.14086847  1
  O2-  O116  1  0.08185119  0.24259737  0.37760099  1
  O2-  O117  1  0.13131443  0.24531981  0.64206418  1
  O2-  O118  1  0.10514175  0.23789494  0.88856772  1
  O2-  O119  1  0.09080768  0.76536993  0.13176508  1
  O2-  O120  1  0.11921563  0.74052254  0.39334377  1
  O2-  O121  1  0.08467531  0.75852691  0.63166999  1
  O2-  O122  1  0.11361753  0.76577786  0.89065260  1
  O2-  O123  1  0.43500041  0.26199010  0.14310579  1
  O2-  O124  1  0.42184938  0.24277531  0.38402638  1
  O2-  O125  1  0.42198035  0.26546650  0.64231625  1
  O2-  O126  1  0.30888604  0.25259971  0.90038418  1
  O2-  O127  1  0.41248883  0.76535356  0.12650817  1
  O2-  O128  1  0.43700132  0.75810854  0.39098069  1
  O2-  O129  1  0.25256576  0.82595487  0.63350859  1
  O2-  O130  1  0.38215317  0.75158881  0.87573149  1
  O2-  O131  1  0.63185624  0.25765980  0.14442085  1
  O2-  O132  1  0.61343427  0.25976351  0.38485351  1
  O2-  O133  1  0.64493776  0.24795005  0.59679465  1
  O2-  O134  1  0.60273008  0.25457232  0.88126401  1
  O2-  O135  1  0.61265831  0.74948428  0.11237243  1
  O2-  O136  1  0.61857142  0.72952831  0.35353602  1
  O2-  O137  1  0.70552745  0.69397801  0.60818673  1
  O2-  O138  1  0.64392830  0.75099491  0.90608230  1
  O2-  O139  1  0.86193425  0.24637883  0.14710091  1
  O2-  O140  1  0.88253486  0.24315168  0.38340451  1
  O2-  O141  1  0.84188310  0.24286326  0.59760664  1
  O2-  O142  1  0.88815195  0.24298838  0.86311943  1
  O2-  O143  1  0.91569097  0.74855526  0.13947101  1
  O2-  O144  1  0.88143207  0.74284168  0.35184805  1
  O2-  O145  1  0.88582579  0.76795060  0.64221448  1
  O2-  O146  1  0.82977842  0.75145980  0.87936174  1
  O2-  O147  1  0.06339357  0.11863942  0.01708312  1
  O2-  O148  1  0.15937752  0.13880369  0.24954124  1
  O2-  O149  1  0.09606350  0.12998250  0.50111194  1
  O2-  O150  1  0.13512241  0.11437305  0.77270789  1
  O2-  O151  1  0.12315904  0.64082171  0.01143323  1
  O2-  O152  1  0.12396013  0.63080588  0.25452696  1
  O2-  O153  1  0.17255118  0.62130504  0.50665710  1
  O2-  O154  1  0.09558176  0.63087575  0.75246959  1
  O2-  O155  1  0.44442841  0.14232686  0.00777313  1
  O2-  O156  1  0.34698714  0.14303539  0.26153076  1
  O2-  O157  1  0.37640397  0.14926138  0.51894352  1
  O2-  O158  1  0.33000880  0.14777790  0.75321454  1
  O2-  O159  1  0.37418081  0.64463019  0.01180272  1
  O2-  O160  1  0.38466783  0.65015077  0.25626694  1
  O2-  O161  1  0.35753875  0.64956342  0.51136438  1
  O2-  O162  1  0.38712165  0.63276405  0.72642572  1
  O2-  O163  1  0.64130437  0.14852933  0.01667119  1
  O2-  O164  1  0.68380472  0.14166425  0.27400849  1
  O2-  O165  1  0.57736026  0.13482325  0.48921017  1
  O2-  O166  1  0.65792472  0.13885865  0.74572968  1
  O2-  O167  1  0.58056262  0.60996829  0.01782025  1
  O2-  O168  1  0.56932859  0.61164701  0.22977278  1
  O2-  O169  1  0.61936630  0.61177623  0.48692763  1
  O2-  O170  1  0.60361801  0.63275111  0.74450830  1
  O2-  O171  1  0.86443290  0.14664951  0.00292673  1
  O2-  O172  1  0.84377602  0.10567339  0.25186493  1
  O2-  O173  1  0.91355560  0.12268117  0.49784032  1
  O2-  O174  1  0.84625046  0.11826943  0.73706067  1
  O2-  O175  1  0.88770826  0.65004830  0.01117170  1
  O2-  O176  1  0.92064878  0.60876338  0.24770395  1
  O2-  O177  1  0.86016992  0.65073071  0.50476291  1
  O2-  O178  1  0.89842794  0.64308046  0.74836847  1
  O2-  O179  1  0.09316190  0.36422001  0.01327521  1
  O2-  O180  1  0.13857873  0.35982124  0.24132174  1
  O2-  O181  1  0.12454411  0.35510901  0.50107102  1
  O2-  O182  1  0.13992967  0.37176953  0.76245302  1
  O2-  O183  1  0.08950229  0.88302962  0.00862886  1
  O2-  O184  1  0.09874304  0.85717814  0.26901877  1
  O2-  O185  1  0.15096518  0.87097121  0.50389575  1
  O2-  O186  1  0.11605752  0.87766196  0.76470466  1
  O2-  O187  1  0.41059806  0.36957552  0.01168825  1
  O2-  O188  1  0.34069998  0.37611153  0.23575109  1
  O2-  O189  1  0.38261744  0.36470346  0.50867257  1
  O2-  O190  1  0.31915163  0.35102913  0.75297047  1
  O2-  O191  1  0.39189850  0.86612452  -0.00266404  1
  O2-  O192  1  0.40045359  0.86841413  0.26328620  1
  O2-  O193  1  0.34935927  0.87082335  0.49428883  1
  O2-  O194  1  0.39018163  0.86273192  0.73933492  1
  O2-  O195  1  0.66027439  0.36294916  0.00908942  1
  O2-  O196  1  0.68212183  0.38446681  0.26203612  1
  O2-  O197  1  0.60514904  0.38469740  0.51042084  1
  O2-  O198  1  0.65714629  0.35677226  0.74506684  1
  O2-  O199  1  0.56930375  0.88598583  0.01684676  1
  O2-  O200  1  0.57836983  0.88197565  0.22304291  1
  O2-  O201  1  0.63562266  0.83765828  0.50230059  1
  O2-  O202  1  0.61666251  0.81612098  0.70862002  1
  O2-  O203  1  0.86541145  0.34714680  0.00325572  1
  O2-  O204  1  0.86832074  0.38675084  0.25528481  1
  O2-  O205  1  0.91495955  0.36972105  0.50739670  1
  O2-  O206  1  0.85328404  0.36665520  0.74150591  1
  O2-  O207  1  0.89788050  0.85338918  0.00074101  1
  O2-  O208  1  0.92030384  0.88389524  0.24750193  1
  O2-  O209  1  0.81820384  0.84756758  0.48483048  1
  O2-  O210  1  0.92113483  0.87077135  0.79675308  1
  O2-  O211  1  0.04083450  -0.00586042  -0.12508517  1
  O2-  O212  1  0.00881255  0.11105414  0.29437055  1
  O2-  O213  1  -0.02021392  -0.15730451  0.47524644  1
  O2-  O214  1  0.01024496  -0.08354569  0.62362330  1
  O2-  O215  1  -0.01189052  0.65428694  -0.11440617  1
  O2-  O216  1  0.00805822  0.39766618  0.36444371  1
  O2-  O217  1  0.01153540  0.59739539  0.40068723  1
  O2-  O218  1  -0.01760715  0.37356686  0.87305462  1
  O2-  O219  1  0.24262617  -0.13604932  0.06236994  1
  O2-  O220  1  0.24936177  -0.09228289  0.21084774  1
  O2-  O221  1  0.24274294  0.11738796  0.40326277  1
  O2-  O222  1  0.25612260  -0.12992480  0.87767254  1
  O2-  O223  1  0.25232762  0.53830376  0.13294847  1
  O2-  O224  1  0.24873670  0.69815140  0.12463783  1
  O2-  O225  1  0.24665122  0.30762131  0.36411104  1
  O2-  O226  1  0.23787305  0.63551587  0.87303540  1
  O2-  O227  1  0.51500282  -0.14233853  -0.14035205  1
  O2-  O228  1  0.52817775  0.12475765  0.24014141  1
  O2-  O229  1  0.48128365  -0.10620606  0.59822678  1
  O2-  O230  1  0.50627523  0.11160005  0.65529561  1
  O2-  O231  1  0.51197938  0.64655461  -0.12455056  1
  O2-  O232  1  0.53728949  0.40500310  0.14874115  1
  O2-  O233  1  0.50611189  0.68960243  0.61135111  1
  O2-  O234  1  0.50900781  0.52355864  0.60753912  1
  O2-  O235  1  0.72878642  -0.11037139  -0.01812968  1
  O2-  O236  1  0.75806759  -0.15055824  0.14735313  1
  O2-  O237  1  0.74061861  0.10745540  0.56245783  1
  O2-  O238  1  0.73540491  -0.11602124  0.81331837  1
  O2-  O239  1  0.73919026  0.61038853  -0.03960029  1
  O2-  O240  1  0.75589090  0.66150938  0.14486428  1
  O2-  O241  1  0.75924476  0.36332283  0.41788574  1
  O2-  O242  1  0.74761300  0.62367959  0.80283926  1
