# generated using pymatgen
data_Gd19Ta56(WO20)8
_symmetry_space_group_name_H-M   'P 1'
_cell_length_a   15.64184102
_cell_length_b   15.54654229
_cell_length_c   15.39119818
_cell_angle_alpha   90.03693278
_cell_angle_beta   89.73265469
_cell_angle_gamma   90.66283893
_symmetry_Int_Tables_number   1
_chemical_formula_structural   Gd19Ta56(WO20)8
_chemical_formula_sum   'Gd19 Ta56 W8 O160'
_cell_volume   3742.48651437
_cell_formula_units_Z   1
loop_
 _symmetry_equiv_pos_site_id
 _symmetry_equiv_pos_as_xyz
  1  'x, y, z'
loop_
 _atom_type_symbol
 _atom_type_oxidation_number
  Gd3+  3.0
  Ta5+  5.0
  W6+  6.0
  O2-  -2.0
loop_
 _atom_site_type_symbol
 _atom_site_label
 _atom_site_symmetry_multiplicity
 _atom_site_fract_x
 _atom_site_fract_y
 _atom_site_fract_z
 _atom_site_occupancy
  Gd3+  Gd0  1  0.75719452  0.74281471  0.01821251  1
  Gd3+  Gd1  1  0.74789841  0.74415358  0.46961070  1
  Gd3+  Gd2  1  0.52590856  0.76052421  0.01718836  1
  Gd3+  Gd3  1  0.03158134  0.22041539  -0.01987578  1
  Gd3+  Gd4  1  -0.02256648  0.25745549  0.75154167  1
  Gd3+  Gd5  1  0.53025793  0.78069532  0.74210975  1
  Gd3+  Gd6  1  -0.02640407  0.74186276  0.75388189  1
  Gd3+  Gd7  1  0.74757463  0.25165324  0.73788632  1
  Gd3+  Gd8  1  0.51439438  0.24788346  0.75513994  1
  Gd3+  Gd9  1  0.24209610  0.72625725  0.23788214  1
  Gd3+  Gd10  1  0.76527458  0.25496164  0.49465971  1
  Gd3+  Gd11  1  0.75850076  0.25620532  0.23755485  1
  Gd3+  Gd12  1  0.21872749  0.69516861  0.78307406  1
  Gd3+  Gd13  1  -0.01172483  0.75377108  0.22203995  1
  Gd3+  Gd14  1  0.24475264  0.24053452  0.24449594  1
  Gd3+  Gd15  1  0.23549692  0.73093754  0.50925661  1
  Gd3+  Gd16  1  0.80716034  0.26244509  0.00673654  1
  Gd3+  Gd17  1  0.47486073  0.26329223  -0.01558767  1
  Gd3+  Gd18  1  0.25527130  0.23166542  0.75559477  1
  Ta5+  Ta19  1  0.64604836  0.63752883  0.86852801  1
  Ta5+  Ta20  1  0.62028521  0.38045807  0.36602450  1
  Ta5+  Ta21  1  0.12557485  0.36430999  0.37010511  1
  Ta5+  Ta22  1  0.11308544  0.60119125  0.37641255  1
  Ta5+  Ta23  1  0.83563576  0.85886501  0.86983098  1
  Ta5+  Ta24  1  0.37367264  0.86205441  0.87864725  1
  Ta5+  Ta25  1  0.68102330  0.87634207  0.62214972  1
  Ta5+  Ta26  1  0.39535270  0.89027877  0.12663999  1
  Ta5+  Ta27  1  0.67105127  0.87327312  0.87415163  1
  Ta5+  Ta28  1  0.91582184  0.11446498  0.17619649  1
  Ta5+  Ta29  1  0.87168574  0.41650543  0.87759874  1
  Ta5+  Ta30  1  0.62124942  0.62536588  0.36190205  1
  Ta5+  Ta31  1  0.12042572  0.06531829  0.85150035  1
  Ta5+  Ta32  1  0.12927784  0.86651415  0.62856068  1
  Ta5+  Ta33  1  0.63252764  0.10490501  0.93454041  1
  Ta5+  Ta34  1  0.62995149  0.38369273  0.62232838  1
  Ta5+  Ta35  1  0.87072109  0.11395152  0.62253370  1
  Ta5+  Ta36  1  0.14793766  0.86645339  0.11449983  1
  Ta5+  Ta37  1  0.34545350  0.39916504  0.87762486  1
  Ta5+  Ta38  1  0.14672572  0.39834827  0.87102388  1
  Ta5+  Ta39  1  0.84725144  0.86571200  0.62389648  1
  Ta5+  Ta40  1  0.37814255  0.90013685  0.37762067  1
  Ta5+  Ta41  1  0.66915149  0.41988186  0.88144342  1
  Ta5+  Ta42  1  0.88797436  0.12266357  0.36717780  1
  Ta5+  Ta43  1  0.13190011  0.86157329  0.37347973  1
  Ta5+  Ta44  1  0.42649409  0.62502376  0.87442546  1
  Ta5+  Ta45  1  0.38200268  0.13724719  0.38161362  1
  Ta5+  Ta46  1  0.37660486  0.87986381  0.62400707  1
  Ta5+  Ta47  1  0.94873119  0.37642190  0.12272351  1
  Ta5+  Ta48  1  0.13687271  0.56115488  0.12518712  1
  Ta5+  Ta49  1  0.88779308  0.87567831  0.36996640  1
  Ta5+  Ta50  1  0.31934349  0.06664952  0.94620016  1
  Ta5+  Ta51  1  0.84179765  0.88670671  0.12662844  1
  Ta5+  Ta52  1  0.38502026  0.38806601  0.63250160  1
  Ta5+  Ta53  1  0.11443320  0.11317613  0.61885502  1
  Ta5+  Ta54  1  0.41286381  0.12050914  0.60306725  1
  Ta5+  Ta55  1  0.11361173  0.36000696  0.11933310  1
  Ta5+  Ta56  1  0.86085117  0.62911227  0.61658085  1
  Ta5+  Ta57  1  0.13773679  0.86798138  0.87356485  1
  Ta5+  Ta58  1  0.60239851  0.02451273  0.15724859  1
  Ta5+  Ta59  1  0.61912436  0.63332932  0.61911774  1
  Ta5+  Ta60  1  0.61579006  0.37685205  0.10919159  1
  Ta5+  Ta61  1  0.81345296  0.61710290  0.86377691  1
  Ta5+  Ta62  1  0.82679545  0.10701318  0.86908009  1
  Ta5+  Ta63  1  0.13823523  0.10249921  0.10962186  1
  Ta5+  Ta64  1  0.60807762  0.12940724  0.36860336  1
  Ta5+  Ta65  1  0.88287199  0.39169475  0.62187090  1
  Ta5+  Ta66  1  0.38583742  0.59915211  0.38585107  1
  Ta5+  Ta67  1  0.37831729  0.37000019  0.38647366  1
  Ta5+  Ta68  1  0.88574295  0.38235392  0.36151841  1
  Ta5+  Ta69  1  0.63458341  0.62206712  0.13516934  1
  Ta5+  Ta70  1  0.12585219  0.36508387  0.61991232  1
  Ta5+  Ta71  1  0.37406347  0.38557797  0.13260874  1
  Ta5+  Ta72  1  0.87332875  0.62023075  0.35948870  1
  Ta5+  Ta73  1  0.86796897  0.60648617  0.11579437  1
  Ta5+  Ta74  1  0.61769080  0.11509194  0.60266827  1
  W6+  W75  1  0.10567734  0.61481012  0.63087459  1
  W6+  W76  1  0.05092050  0.61343893  0.89539182  1
  W6+  W77  1  0.68115045  0.87691430  0.13631880  1
  W6+  W78  1  0.38189468  0.63918412  0.63645733  1
  W6+  W79  1  0.38928511  0.63730989  0.12931489  1
  W6+  W80  1  0.11744072  0.11036297  0.36298623  1
  W6+  W81  1  0.36128649  0.11971881  0.12763819  1
  W6+  W82  1  0.63035608  0.88442197  0.36856242  1
  O2-  O83  1  0.11764843  -0.01814422  0.13870371  1
  O2-  O84  1  0.13265870  -0.02222760  0.36461588  1
  O2-  O85  1  0.09907436  -0.01506830  0.62937420  1
  O2-  O86  1  0.05646873  -0.03772284  0.83939294  1
  O2-  O87  1  0.19987539  0.46228085  0.09785699  1
  O2-  O88  1  0.15775987  0.48971502  0.36520881  1
  O2-  O89  1  0.14302607  0.47999072  0.64101509  1
  O2-  O90  1  0.07212354  0.48783822  0.85709154  1
  O2-  O91  1  0.33987163  -0.01059750  0.07736805  1
  O2-  O92  1  0.40423015  0.01907752  0.39393504  1
  O2-  O93  1  0.37286865  0.01114198  0.63433777  1
  O2-  O94  1  0.39492711  -0.01609679  0.89529342  1
  O2-  O95  1  0.37866999  0.50334727  0.13237990  1
  O2-  O96  1  0.33777335  0.48701405  0.40195002  1
  O2-  O97  1  0.37575605  0.50247652  0.61992757  1
  O2-  O98  1  0.41681876  0.49878095  0.86195223  1
  O2-  O99  1  0.50404582  -0.04405478  0.12230643  1
  O2-  O100  1  0.59867458  0.01563551  0.39195852  1
  O2-  O101  1  0.64172596  0.00053987  0.61359298  1
  O2-  O102  1  0.62452124  -0.00691209  0.89489484  1
  O2-  O103  1  0.63426601  0.49264384  0.10145827  1
  O2-  O104  1  0.65233857  0.49520149  0.37064184  1
  O2-  O105  1  0.61564670  0.50090851  0.62071274  1
  O2-  O106  1  0.60171325  0.51353358  0.89074111  1
  O2-  O107  1  0.88537630  0.00848564  0.12938399  1
  O2-  O108  1  0.89071118  -0.00052467  0.37558503  1
  O2-  O109  1  0.86734407  -0.00390016  0.62204363  1
  O2-  O110  1  0.83867696  -0.00894685  0.86930375  1
  O2-  O111  1  0.89494758  0.49213213  0.10561234  1
  O2-  O112  1  0.84756085  0.49542648  0.35944487  1
  O2-  O113  1  0.90450476  0.50899052  0.60789851  1
  O2-  O114  1  0.91677987  0.52775682  0.89129483  1
  O2-  O115  1  0.13832983  0.23839417  0.10684668  1
  O2-  O116  1  0.14323606  0.24449175  0.36627972  1
  O2-  O117  1  0.16304754  0.23756137  0.63170112  1
  O2-  O118  1  0.06385809  0.18030216  0.83802300  1
  O2-  O119  1  0.06693753  0.77765110  0.10647077  1
  O2-  O120  1  0.16830967  0.71784211  0.37150706  1
  O2-  O121  1  0.07374169  0.75526850  0.63559667  1
  O2-  O122  1  0.08008346  0.75973003  0.88326279  1
  O2-  O123  1  0.33779121  0.26127682  0.13172697  1
  O2-  O124  1  0.32711765  0.25780431  0.37396807  1
  O2-  O125  1  0.38445956  0.22583991  0.66881977  1
  O2-  O126  1  0.43154449  0.31078455  0.85297857  1
  O2-  O127  1  0.43538984  0.76924387  0.13835757  1
  O2-  O128  1  0.26619551  0.84845582  0.37835489  1
  O2-  O129  1  0.42773877  0.76913430  0.63443138  1
  O2-  O130  1  0.44420722  0.75700190  0.86643102  1
  O2-  O131  1  0.70449756  0.29190664  0.10757539  1
  O2-  O132  1  0.67402979  0.26171871  0.36370003  1
  O2-  O133  1  0.75442488  0.38172781  0.64269559  1
  O2-  O134  1  0.55560337  0.18667306  0.88397472  1
  O2-  O135  1  0.63439508  0.74652902  0.14231918  1
  O2-  O136  1  0.65329557  0.74306722  0.35089311  1
  O2-  O137  1  0.62191780  0.76021627  0.62255493  1
  O2-  O138  1  0.61416993  0.76062770  0.86744741  1
  O2-  O139  1  0.88385112  0.23628799  0.13249551  1
  O2-  O140  1  0.84909717  0.25544370  0.37076494  1
  O2-  O141  1  0.86428822  0.25705394  0.64132517  1
  O2-  O142  1  0.83383959  0.27860706  0.85162201  1
  O2-  O143  1  0.86857218  0.74756323  0.12387248  1
  O2-  O144  1  0.85476177  0.74592192  0.35086296  1
  O2-  O145  1  0.90172101  0.74604540  0.61779283  1
  O2-  O146  1  0.86734708  0.73445748  0.87896960  1
  O2-  O147  1  0.10451754  0.09203783  -0.02792511  1
  O2-  O148  1  0.16038091  0.12093326  0.23019459  1
  O2-  O149  1  0.12947463  0.11036067  0.50138061  1
  O2-  O150  1  0.17254944  0.10058734  0.73531473  1
  O2-  O151  1  0.08017306  0.59592091  0.02772210  1
  O2-  O152  1  0.11758085  0.62145148  0.24275205  1
  O2-  O153  1  0.14637024  0.61305159  0.49669254  1
  O2-  O154  1  0.08217969  0.63702090  0.76368171  1
  O2-  O155  1  0.24492746  0.11438946  0.04392865  1
  O2-  O156  1  0.33792836  0.12370513  0.26884771  1
  O2-  O157  1  0.34236300  0.14362649  0.50474878  1
  O2-  O158  1  0.30529096  0.13954657  0.85229166  1
  O2-  O159  1  0.43116152  0.63815676  -0.00284349  1
  O2-  O160  1  0.35613456  0.64279876  0.27581720  1
  O2-  O161  1  0.35922027  0.65712794  0.48958613  1
  O2-  O162  1  0.35125307  0.64228881  0.77479827  1
  O2-  O163  1  0.58724922  0.10361705  0.04905922  1
  O2-  O164  1  0.63365986  0.12725925  0.24608803  1
  O2-  O165  1  0.66279268  0.15114265  0.48464764  1
  O2-  O166  1  0.62491963  0.24691596  0.64227126  1
  O2-  O167  1  0.63473230  0.64845229  0.00506923  1
  O2-  O168  1  0.57727146  0.60239513  0.24243494  1
  O2-  O169  1  0.63723806  0.63548756  0.48772980  1
  O2-  O170  1  0.60794080  0.63764965  0.74462311  1
  O2-  O171  1  0.90911574  0.15480021  -0.05357743  1
  O2-  O172  1  0.81466861  0.12449325  0.26210606  1
  O2-  O173  1  0.86726579  0.14136179  0.49751817  1
  O2-  O174  1  0.88031489  0.13341291  0.75610076  1
  O2-  O175  1  0.82241537  0.61415801  -0.00316449  1
  O2-  O176  1  0.91947940  0.62237502  0.23559420  1
  O2-  O177  1  0.84675484  0.63094688  0.48361283  1
  O2-  O178  1  0.86858324  0.62901981  0.74400851  1
  O2-  O179  1  0.10766018  0.35549737  -0.01992340  1
  O2-  O180  1  0.15934760  0.36258732  0.24737222  1
  O2-  O181  1  0.14911753  0.36613934  0.49810663  1
  O2-  O182  1  0.11848495  0.33968443  0.75921858  1
  O2-  O183  1  0.14906115  0.88874532  -0.00547338  1
  O2-  O184  1  0.13373914  0.83158278  0.24846308  1
  O2-  O185  1  0.13535745  0.84417758  0.50010480  1
  O2-  O186  1  0.16609575  0.84910486  0.74879462  1
  O2-  O187  1  0.37079966  0.37735759  -0.00188662  1
  O2-  O188  1  0.36619811  0.37875639  0.26152892  1
  O2-  O189  1  0.36256339  0.35039306  0.51726391  1
  O2-  O190  1  0.31766899  0.37303246  0.73557455  1
  O2-  O191  1  0.41054717  0.85121730  -0.00169441  1
  O2-  O192  1  0.38680887  0.90150851  0.25240795  1
  O2-  O193  1  0.40086976  0.87886936  0.50093683  1
  O2-  O194  1  0.39546833  0.87923410  0.75527478  1
  O2-  O195  1  0.60076172  0.35491010  -0.02213320  1
  O2-  O196  1  0.62596738  0.36778396  0.24054588  1
  O2-  O197  1  0.64223934  0.35995006  0.50145872  1
  O2-  O198  1  0.63576372  0.35521061  0.77530175  1
  O2-  O199  1  0.64817603  0.85085470  0.00393806  1
  O2-  O200  1  0.62439457  0.93289936  0.24723225  1
  O2-  O201  1  0.66993587  0.86541089  0.49302043  1
  O2-  O202  1  0.64754211  0.88078006  0.74854833  1
  O2-  O203  1  0.92639886  0.35397461  -0.01417012  1
  O2-  O204  1  0.87760817  0.36377941  0.23910692  1
  O2-  O205  1  0.86416998  0.37091047  0.49714665  1
  O2-  O206  1  0.90842555  0.39237448  0.75425564  1
  O2-  O207  1  0.85134944  0.87094742  0.00227789  1
  O2-  O208  1  0.90683613  0.87253948  0.23870609  1
  O2-  O209  1  0.85692374  0.85869508  0.48879706  1
  O2-  O210  1  0.87636351  0.85736174  0.74875223  1
  O2-  O211  1  0.01610142  0.13000429  0.10405545  1
  O2-  O212  1  -0.01804782  0.14748863  0.28913879  1
  O2-  O213  1  0.00951932  -0.16294142  0.37207360  1
  O2-  O214  1  -0.00071581  0.14581672  0.63781214  1
  O2-  O215  1  0.04654784  0.46789664  0.16165869  1
  O2-  O216  1  0.00718400  0.37699247  0.37212598  1
  O2-  O217  1  -0.00369832  0.59962306  0.39018060  1
  O2-  O218  1  0.00538410  0.34826098  0.61792691  1
  O2-  O219  1  0.26154153  -0.18812160  -0.12014449  1
  O2-  O220  1  0.26590872  -0.16454695  0.13368151  1
  O2-  O221  1  0.25787505  -0.13809152  0.60917332  1
  O2-  O222  1  0.21896483  -0.00672356  0.88052088  1
  O2-  O223  1  0.24733368  0.31074482  -0.12286384  1
  O2-  O224  1  0.24050017  0.63496735  0.12483205  1
  O2-  O225  1  0.23646528  0.66978374  0.64329414  1
  O2-  O226  1  0.24331590  0.47484455  0.87943583  1
  O2-  O227  1  0.40783926  0.13774280  -0.00481816  1
  O2-  O228  1  0.49653685  0.18039038  0.36423150  1
  O2-  O229  1  0.51103377  0.11277118  0.52719702  1
  O2-  O230  1  0.52050931  0.11811387  0.68914020  1
  O2-  O231  1  0.49505209  0.35082347  0.11957641  1
  O2-  O232  1  0.49938044  0.37281675  0.38437099  1
  O2-  O233  1  0.50014180  0.58577305  0.39182581  1
  O2-  O234  1  0.50340017  0.36406382  0.65362473  1
  O2-  O235  1  0.74760385  0.13050096  -0.02334218  1
  O2-  O236  1  0.71374943  0.00699901  0.11409813  1
  O2-  O237  1  0.74691133  0.13855109  0.63116591  1
  O2-  O238  1  0.71125534  0.13534732  0.81983395  1
  O2-  O239  1  0.76681955  0.39830405  -0.04113604  1
  O2-  O240  1  0.75256588  0.61188996  0.16081947  1
  O2-  O241  1  0.74222747  0.63164111  0.62338293  1
  O2-  O242  1  0.76957534  0.47829473  0.82025121  1
