# generated using pymatgen
data_Gd19Ta56(WO20)8
_symmetry_space_group_name_H-M   'P 1'
_cell_length_a   15.50704342
_cell_length_b   15.44517571
_cell_length_c   15.29960741
_cell_angle_alpha   90.17813496
_cell_angle_beta   90.00241196
_cell_angle_gamma   89.88245718
_symmetry_Int_Tables_number   1
_chemical_formula_structural   Gd19Ta56(WO20)8
_chemical_formula_sum   'Gd19 Ta56 W8 O160'
_cell_volume   3664.36840407
_cell_formula_units_Z   1
loop_
 _symmetry_equiv_pos_site_id
 _symmetry_equiv_pos_as_xyz
  1  'x, y, z'
loop_
 _atom_type_symbol
 _atom_type_oxidation_number
  Gd3+  3.0
  Ta5+  5.0
  W6+  6.0
  O2-  -2.0
loop_
 _atom_site_type_symbol
 _atom_site_label
 _atom_site_symmetry_multiplicity
 _atom_site_fract_x
 _atom_site_fract_y
 _atom_site_fract_z
 _atom_site_occupancy
  Gd3+  Gd0  1  0.74311966  0.25725863  0.01768524  1
  Gd3+  Gd1  1  0.50639004  0.24650512  0.25954181  1
  Gd3+  Gd2  1  0.73419194  0.74889759  0.50865268  1
  Gd3+  Gd3  1  0.73302482  0.70497509  0.77458877  1
  Gd3+  Gd4  1  0.51659001  0.74566982  -0.01077574  1
  Gd3+  Gd5  1  0.76826783  0.26365516  0.75087406  1
  Gd3+  Gd6  1  0.74735806  0.23927439  0.48004796  1
  Gd3+  Gd7  1  0.24650309  0.74450160  -0.00937947  1
  Gd3+  Gd8  1  0.47799177  0.74482032  0.23946441  1
  Gd3+  Gd9  1  0.03513509  0.28091762  0.52547701  1
  Gd3+  Gd10  1  0.02314150  0.76084359  0.49119123  1
  Gd3+  Gd11  1  0.45519251  0.72030956  0.46551081  1
  Gd3+  Gd12  1  0.27393298  0.25234574  0.00881043  1
  Gd3+  Gd13  1  0.00011255  0.26357459  0.28485590  1
  Gd3+  Gd14  1  0.01372813  0.25605268  0.75589321  1
  Gd3+  Gd15  1  0.76144689  0.74504854  0.01149806  1
  Gd3+  Gd16  1  0.75624180  0.75502009  0.24482896  1
  Gd3+  Gd17  1  0.49441360  0.73740472  0.73595381  1
  Gd3+  Gd18  1  0.49829319  0.24861721  0.48935312  1
  Ta5+  Ta19  1  0.14403759  0.62987916  0.13226432  1
  Ta5+  Ta20  1  0.88097602  0.13637843  0.88604323  1
  Ta5+  Ta21  1  0.38355773  0.88034789  0.10052380  1
  Ta5+  Ta22  1  0.90191077  0.62699619  0.13075704  1
  Ta5+  Ta23  1  0.91649761  0.40203543  0.91782514  1
  Ta5+  Ta24  1  0.15688418  0.87349225  0.63023263  1
  Ta5+  Ta25  1  0.30585013  0.62252248  0.34403346  1
  Ta5+  Ta26  1  0.39746442  0.88982341  0.85968160  1
  Ta5+  Ta27  1  0.87623266  0.89386018  0.87992900  1
  Ta5+  Ta28  1  0.63467496  0.88287916  0.86306630  1
  Ta5+  Ta29  1  0.86561417  0.85756662  0.64483415  1
  Ta5+  Ta30  1  0.59386056  0.35838214  0.11542044  1
  Ta5+  Ta31  1  0.42590871  0.36075157  0.10512804  1
  Ta5+  Ta32  1  0.89304099  0.88220599  0.13309284  1
  Ta5+  Ta33  1  0.38952393  0.60659936  0.10085068  1
  Ta5+  Ta34  1  0.17019242  0.41744053  0.63755116  1
  Ta5+  Ta35  1  0.89047389  0.13082176  0.13477922  1
  Ta5+  Ta36  1  0.88927719  0.64330914  0.38595217  1
  Ta5+  Ta37  1  0.37115130  0.38508756  0.35956895  1
  Ta5+  Ta38  1  0.59738547  0.57596498  0.59603658  1
  Ta5+  Ta39  1  0.59249704  0.13031463  0.11620275  1
  Ta5+  Ta40  1  0.88079865  0.38057705  0.14020378  1
  Ta5+  Ta41  1  0.42382685  0.12538176  0.11222718  1
  Ta5+  Ta42  1  0.38215174  0.60167840  0.85884716  1
  Ta5+  Ta43  1  0.62623586  0.38802483  0.37148749  1
  Ta5+  Ta44  1  0.86172819  0.41721846  0.61155524  1
  Ta5+  Ta45  1  0.63197990  0.88315444  0.13455856  1
  Ta5+  Ta46  1  0.15891595  0.88459152  0.38115078  1
  Ta5+  Ta47  1  0.14275251  0.39146893  0.87366183  1
  Ta5+  Ta48  1  0.12726805  0.12666114  0.88247587  1
  Ta5+  Ta49  1  0.62799327  0.58054158  0.36765341  1
  Ta5+  Ta50  1  0.16925852  0.13600181  0.38305297  1
  Ta5+  Ta51  1  0.32359339  0.87032424  0.35171114  1
  Ta5+  Ta52  1  0.11576081  0.88216502  0.87955460  1
  Ta5+  Ta53  1  0.39084762  0.11698513  0.60830535  1
  Ta5+  Ta54  1  0.59861769  0.56409708  0.89465288  1
  Ta5+  Ta55  1  0.61218107  0.89317352  0.59826877  1
  Ta5+  Ta56  1  0.88358882  0.86844318  0.38617112  1
  Ta5+  Ta57  1  0.59231344  0.88856724  0.40777741  1
  Ta5+  Ta58  1  0.40291819  0.35349751  0.84411688  1
  Ta5+  Ta59  1  0.09321729  0.08857541  0.62326506  1
  Ta5+  Ta60  1  0.64325619  0.60460873  0.12714942  1
  Ta5+  Ta61  1  0.13055018  0.38003458  0.13144841  1
  Ta5+  Ta62  1  0.63530214  0.12048753  0.62911363  1
  Ta5+  Ta63  1  0.56880988  0.32054996  0.86696275  1
  Ta5+  Ta64  1  0.17528125  0.38219835  0.38618462  1
  Ta5+  Ta65  1  0.63766736  0.38949078  0.63425579  1
  Ta5+  Ta66  1  0.38664894  0.13180937  0.85803483  1
  Ta5+  Ta67  1  0.36370118  0.11594003  0.36435693  1
  Ta5+  Ta68  1  0.11341658  0.63492819  0.63703458  1
  Ta5+  Ta69  1  0.89027361  0.08647087  0.63353378  1
  Ta5+  Ta70  1  0.62527172  0.12922696  0.87200756  1
  Ta5+  Ta71  1  0.08762718  0.62820075  0.88298719  1
  Ta5+  Ta72  1  0.12577155  0.13838181  0.13917972  1
  Ta5+  Ta73  1  0.14260004  0.62773987  0.37741028  1
  Ta5+  Ta74  1  0.63358949  0.11086842  0.36649074  1
  W6+  W75  1  0.35568783  0.37130193  0.58893967  1
  W6+  W76  1  0.39286328  0.87686845  0.59585060  1
  W6+  W77  1  0.88565407  0.39322645  0.40088827  1
  W6+  W78  1  0.90210601  0.66382228  0.65504292  1
  W6+  W79  1  0.92795441  0.58838070  0.88741285  1
  W6+  W80  1  0.14883626  0.88712798  0.13128317  1
  W6+  W81  1  0.35262133  0.61234567  0.60336572  1
  W6+  W82  1  0.88836478  0.11878202  0.39231614  1
  O2-  O83  1  0.00870028  0.14373573  0.09784122  1
  O2-  O84  1  0.14900021  0.01749513  0.38907371  1
  O2-  O85  1  0.17472476  0.00001173  0.62247037  1
  O2-  O86  1  0.15413705  0.00730855  0.87175014  1
  O2-  O87  1  0.13912501  0.49975243  0.13302341  1
  O2-  O88  1  0.13921734  0.49654425  0.37237069  1
  O2-  O89  1  0.09291085  0.50700601  0.65144971  1
  O2-  O90  1  0.13609713  0.51514306  0.87605101  1
  O2-  O91  1  0.40729092  -0.00191869  0.10338569  1
  O2-  O92  1  0.34704888  -0.00514717  0.35504671  1
  O2-  O93  1  0.35221204  0.00609268  0.58888857  1
  O2-  O94  1  0.35670094  0.00585381  0.85637408  1
  O2-  O95  1  0.41044586  0.48808000  0.10121402  1
  O2-  O96  1  0.35054561  0.50432951  0.34185978  1
  O2-  O97  1  0.27875091  0.48012434  0.61531898  1
  O2-  O98  1  0.38392060  0.48094804  0.85890008  1
  O2-  O99  1  0.60880265  -0.00017980  0.12141369  1
  O2-  O100  1  0.57269117  0.00356424  0.37238411  1
  O2-  O101  1  0.51376457  0.12214143  0.63447657  1
  O2-  O102  1  0.65936990  0.00183330  0.86881210  1
  O2-  O103  1  0.62029764  0.48802648  0.10792194  1
  O2-  O104  1  0.54757349  0.48890157  0.38403751  1
  O2-  O105  1  0.55448691  0.47656006  0.66438934  1
  O2-  O106  1  0.57633287  0.44723182  0.88129670  1
  O2-  O107  1  0.87822897  0.00727037  0.12950560  1
  O2-  O108  1  0.88217762  -0.01415198  0.39085397  1
  O2-  O109  1  0.83640316  -0.02126116  0.65812625  1
  O2-  O110  1  0.85385220  0.01115257  0.87294612  1
  O2-  O111  1  0.89591388  0.50527672  0.13692540  1
  O2-  O112  1  0.89222902  0.52606139  0.39348568  1
  O2-  O113  1  0.88282282  0.52932741  0.64196238  1
  O2-  O114  1  0.85814464  0.46844764  0.84076364  1
  O2-  O115  1  0.17869422  0.25479712  0.13056658  1
  O2-  O116  1  0.11438733  0.26486586  0.39284574  1
  O2-  O117  1  0.10183602  0.30990302  0.65673547  1
  O2-  O118  1  0.13449896  0.25286466  0.86116407  1
  O2-  O119  1  0.17227042  0.75221984  0.12362604  1
  O2-  O120  1  0.13688488  0.75444431  0.38867487  1
  O2-  O121  1  0.08545235  0.76232015  0.62600972  1
  O2-  O122  1  0.12952642  0.75596860  0.88003540  1
  O2-  O123  1  0.36967801  0.24425146  0.12839778  1
  O2-  O124  1  0.40675843  0.24954363  0.36786456  1
  O2-  O125  1  0.37754706  0.23744911  0.57527543  1
  O2-  O126  1  0.32640562  0.24220380  0.86054710  1
  O2-  O127  1  0.38269085  0.74335686  0.07102275  1
  O2-  O128  1  0.36146755  0.74070877  0.33856159  1
  O2-  O129  1  0.42018188  0.73965523  0.60715817  1
  O2-  O130  1  0.41727142  0.75478741  0.87085609  1
  O2-  O131  1  0.65754332  0.24544301  0.13771626  1
  O2-  O132  1  0.60824414  0.24939210  0.37523575  1
  O2-  O133  1  0.70427338  0.23213512  0.61896588  1
  O2-  O134  1  0.69285957  0.24374449  0.87545363  1
  O2-  O135  1  0.65831334  0.74559105  0.13011159  1
  O2-  O136  1  0.53980663  0.66861043  0.34950563  1
  O2-  O137  1  0.62317806  0.66920842  0.67183976  1
  O2-  O138  1  0.60759347  0.75320202  0.86080181  1
  O2-  O139  1  0.85158375  0.25262875  0.13216962  1
  O2-  O140  1  0.91754820  0.25532850  0.41296830  1
  O2-  O141  1  0.98345131  0.17781601  0.62567815  1
  O2-  O142  1  0.88708121  0.26654501  0.87557525  1
  O2-  O143  1  0.85303661  0.75543717  0.12872789  1
  O2-  O144  1  0.80834815  0.75542255  0.38497270  1
  O2-  O145  1  0.79040506  0.75571296  0.64584619  1
  O2-  O146  1  0.75979104  0.83404160  0.86130333  1
  O2-  O147  1  0.16125744  0.14191467  0.00069982  1
  O2-  O148  1  0.09466326  0.15070747  0.26076808  1
  O2-  O149  1  0.11121960  0.14670951  0.51539948  1
  O2-  O150  1  0.10835578  0.13006861  0.74128128  1
  O2-  O151  1  0.11389186  0.63805239  0.00763653  1
  O2-  O152  1  0.19739782  0.62991578  0.25479742  1
  O2-  O153  1  0.09832064  0.62865030  0.50796110  1
  O2-  O154  1  0.06973746  0.64330304  0.75640207  1
  O2-  O155  1  0.38207403  0.13763519  -0.01318459  1
  O2-  O156  1  0.42347018  0.12035966  0.24837093  1
  O2-  O157  1  0.43780305  0.11329122  0.46911415  1
  O2-  O158  1  0.36296039  0.12847344  0.72760651  1
  O2-  O159  1  0.27301776  0.63803167  -0.10746584  1
  O2-  O160  1  0.38102665  0.63014891  0.22220240  1
  O2-  O161  1  0.33069954  0.63021146  0.46713250  1
  O2-  O162  1  0.38223503  0.62988036  0.73776382  1
  O2-  O163  1  0.63980212  0.13465810  -0.00385837  1
  O2-  O164  1  0.60708053  0.12641528  0.24716719  1
  O2-  O165  1  0.62770002  0.13725790  0.49867627  1
  O2-  O166  1  0.67267068  0.13497444  0.74939613  1
  O2-  O167  1  0.62781942  0.63840475  -0.00446145  1
  O2-  O168  1  0.67287290  0.61476272  0.25267472  1
  O2-  O169  1  0.65651921  0.62442574  0.48289040  1
  O2-  O170  1  0.69931779  0.57822080  0.83501170  1
  O2-  O171  1  0.84324773  0.13846311  0.00494195  1
  O2-  O172  1  0.90993247  0.14054143  0.25677862  1
  O2-  O173  1  0.83781721  0.12454845  0.52971758  1
  O2-  O174  1  0.86851859  0.14052054  0.74948235  1
  O2-  O175  1  0.90222776  0.65543256  0.00641442  1
  O2-  O176  1  0.86527333  0.64983489  0.25594227  1
  O2-  O177  1  0.89865187  0.67069209  0.51097098  1
  O2-  O178  1  0.86928317  0.66735529  0.79043688  1
  O2-  O179  1  0.16728692  0.37018253  -0.00260957  1
  O2-  O180  1  0.09791292  0.36662238  0.25254183  1
  O2-  O181  1  0.13591600  0.38957972  0.51681818  1
  O2-  O182  1  0.20204335  0.39408890  0.76510098  1
  O2-  O183  1  0.16627995  0.87828072  -0.00685319  1
  O2-  O184  1  0.13861908  0.88360810  0.26286025  1
  O2-  O185  1  0.11163444  0.88080902  0.50873339  1
  O2-  O186  1  0.12483248  0.88439187  0.75183727  1
  O2-  O187  1  0.38841754  0.34695302  -0.01608918  1
  O2-  O188  1  0.42621589  0.37181868  0.24340679  1
  O2-  O189  1  0.43809152  0.38246955  0.47301086  1
  O2-  O190  1  0.39312555  0.35679576  0.72307779  1
  O2-  O191  1  0.34011377  0.87428740  -0.02296110  1
  O2-  O192  1  0.36118101  0.85824471  0.22141047  1
  O2-  O193  1  0.36841355  0.84770443  0.46564952  1
  O2-  O194  1  0.41814008  0.87292930  0.73824078  1
  O2-  O195  1  0.60750051  0.32942627  -0.00800623  1
  O2-  O196  1  0.60928863  0.37101980  0.25128109  1
  O2-  O197  1  0.61806653  0.34879254  0.51344507  1
  O2-  O198  1  0.60867478  0.32218160  0.73803666  1
  O2-  O199  1  0.64892752  0.85710441  0.00218433  1
  O2-  O200  1  0.60938243  0.85215291  0.27406920  1
  O2-  O201  1  0.58839323  0.78559865  0.50494549  1
  O2-  O202  1  0.61763344  0.86549088  0.73104032  1
  O2-  O203  1  0.83317433  0.37919144  0.01303161  1
  O2-  O204  1  0.89359764  0.37138880  0.26339686  1
  O2-  O205  1  0.79833179  0.37063236  0.51169973  1
  O2-  O206  1  0.90396753  0.32815793  0.68709189  1
  O2-  O207  1  0.85527571  0.86385402  0.00197129  1
  O2-  O208  1  0.89006167  0.85731868  0.25846008  1
  O2-  O209  1  0.88126728  0.85250573  0.51891821  1
  O2-  O210  1  0.90800313  0.85291830  0.76587633  1
  O2-  O211  1  0.00375785  0.12376609  -0.10946249  1
  O2-  O212  1  0.00933109  -0.12447910  0.11616191  1
  O2-  O213  1  -0.00496058  0.01365398  0.61466966  1
  O2-  O214  1  -0.00040053  -0.09901707  0.90488564  1
  O2-  O215  1  -0.02009107  0.48664201  -0.02459801  1
  O2-  O216  1  0.02103467  0.64178626  0.15902020  1
  O2-  O217  1  -0.04612719  0.40296453  0.52674615  1
  O2-  O218  1  0.02297832  0.37944355  0.83998596  1
  O2-  O219  1  0.15893349  0.02493467  0.13764457  1
  O2-  O220  1  0.25579820  0.14671195  0.29490455  1
  O2-  O221  1  0.26946162  0.14216040  0.45510550  1
  O2-  O222  1  0.26646527  -0.16296738  0.62988809  1
  O2-  O223  1  0.26889706  0.61220989  0.08030566  1
  O2-  O224  1  0.26158609  0.35251852  0.30164278  1
  O2-  O225  1  0.28012376  0.37460253  0.45845120  1
  O2-  O226  1  0.22877174  0.64690450  0.64308501  1
  O2-  O227  1  0.51278635  -0.09680722  -0.10204406  1
  O2-  O228  1  0.50772588  -0.15698302  0.11506340  1
  O2-  O229  1  0.51594086  -0.07210976  0.52867300  1
  O2-  O230  1  0.50678261  0.10747118  0.85201346  1
  O2-  O231  1  0.44981564  0.61057834  -0.02635972  1
  O2-  O232  1  0.52007208  0.64891394  0.13002555  1
  O2-  O233  1  0.48593808  0.59141119  0.54678749  1
  O2-  O234  1  0.51799586  0.61180895  0.81961981  1
  O2-  O235  1  0.75243760  -0.11397269  0.15798795  1
  O2-  O236  1  0.75346625  0.13376490  0.36707895  1
  O2-  O237  1  0.69413128  -0.10199990  0.48734033  1
  O2-  O238  1  0.66569320  0.00430288  0.62393137  1
  O2-  O239  1  0.76440194  0.61550518  0.10029765  1
  O2-  O240  1  0.71196457  0.47422112  0.37108699  1
  O2-  O241  1  0.69218314  0.49746045  0.58221481  1
  O2-  O242  1  0.75205033  0.39280582  0.68723723  1
