# generated using pymatgen
data_Gd19Ta56(WO20)8
_symmetry_space_group_name_H-M   'P 1'
_cell_length_a   15.57567781
_cell_length_b   15.42311054
_cell_length_c   15.27684575
_cell_angle_alpha   89.73583191
_cell_angle_beta   90.35479855
_cell_angle_gamma   90.24526258
_symmetry_Int_Tables_number   1
_chemical_formula_structural   Gd19Ta56(WO20)8
_chemical_formula_sum   'Gd19 Ta56 W8 O160'
_cell_volume   3669.74384689
_cell_formula_units_Z   1
loop_
 _symmetry_equiv_pos_site_id
 _symmetry_equiv_pos_as_xyz
  1  'x, y, z'
loop_
 _atom_type_symbol
 _atom_type_oxidation_number
  Gd3+  3.0
  Ta5+  5.0
  W6+  6.0
  O2-  -2.0
loop_
 _atom_site_type_symbol
 _atom_site_label
 _atom_site_symmetry_multiplicity
 _atom_site_fract_x
 _atom_site_fract_y
 _atom_site_fract_z
 _atom_site_occupancy
  Gd3+  Gd0  1  0.25336068  0.73905221  0.74882530  1
  Gd3+  Gd1  1  0.79042519  0.23203862  0.51266469  1
  Gd3+  Gd2  1  0.21853655  0.75348679  0.01055976  1
  Gd3+  Gd3  1  0.24823013  0.26064389  0.73272126  1
  Gd3+  Gd4  1  0.49959128  0.74794360  0.77119442  1
  Gd3+  Gd5  1  0.48411602  0.73517976  0.51184199  1
  Gd3+  Gd6  1  0.22487968  0.80255113  0.45276322  1
  Gd3+  Gd7  1  -0.03003034  0.79272857  0.48903365  1
  Gd3+  Gd8  1  0.23970205  0.26407853  0.26049565  1
  Gd3+  Gd9  1  -0.00181974  0.23614978  0.24863341  1
  Gd3+  Gd10  1  0.77416022  0.74461702  0.01168680  1
  Gd3+  Gd11  1  0.50923353  0.74309376  0.03006493  1
  Gd3+  Gd12  1  0.25305503  0.25468981  0.01400344  1
  Gd3+  Gd13  1  0.49193334  0.24660120  0.28151023  1
  Gd3+  Gd14  1  0.74506790  0.24006842  0.24378587  1
  Gd3+  Gd15  1  0.49197599  0.24504424  0.73783170  1
  Gd3+  Gd16  1  0.73514351  0.75241472  0.47506456  1
  Gd3+  Gd17  1  0.77886193  0.25137064  -0.00369142  1
  Gd3+  Gd18  1  0.05272442  0.24185372  0.47413048  1
  Ta5+  Ta19  1  0.58452429  0.59663168  0.37328989  1
  Ta5+  Ta20  1  0.35238100  0.87016303  0.12952251  1
  Ta5+  Ta21  1  0.36470068  0.88380724  0.63259572  1
  Ta5+  Ta22  1  0.38466492  0.36990535  0.88164443  1
  Ta5+  Ta23  1  0.08666257  0.91831568  0.36146861  1
  Ta5+  Ta24  1  0.13242145  0.38784101  0.62578797  1
  Ta5+  Ta25  1  0.62659182  0.61164889  0.63250140  1
  Ta5+  Ta26  1  0.17533352  0.44214731  0.39909840  1
  Ta5+  Ta27  1  0.60391040  0.10656468  0.13204410  1
  Ta5+  Ta28  1  0.91672636  0.12768207  0.87509688  1
  Ta5+  Ta29  1  0.37489400  0.60579717  0.64206056  1
  Ta5+  Ta30  1  0.85876775  0.88437922  0.87459805  1
  Ta5+  Ta31  1  0.91177432  0.11861207  0.10002584  1
  Ta5+  Ta32  1  0.86746385  0.64071264  0.61789435  1
  Ta5+  Ta33  1  0.38138391  0.61435985  0.90380609  1
  Ta5+  Ta34  1  0.13414433  0.63262921  0.60716879  1
  Ta5+  Ta35  1  0.07043394  0.86228060  0.11780064  1
  Ta5+  Ta36  1  0.86258782  0.00726241  0.47329442  1
  Ta5+  Ta37  1  0.91362527  0.38229951  0.87352864  1
  Ta5+  Ta38  1  0.08321907  0.63908381  0.12920210  1
  Ta5+  Ta39  1  0.92481150  0.13092502  0.63537646  1
  Ta5+  Ta40  1  0.89187145  0.63200623  0.86852662  1
  Ta5+  Ta41  1  0.63261632  0.36306118  0.62908798  1
  Ta5+  Ta42  1  0.15229405  0.88989791  0.62952595  1
  Ta5+  Ta43  1  0.36021519  0.12376606  0.87880004  1
  Ta5+  Ta44  1  0.65823121  0.60587369  0.13527688  1
  Ta5+  Ta45  1  0.12306972  0.62187899  0.87235698  1
  Ta5+  Ta46  1  0.33862544  0.10391639  0.39213103  1
  Ta5+  Ta47  1  0.66145854  0.86355693  0.15036507  1
  Ta5+  Ta48  1  0.36872153  0.11945483  0.61360038  1
  Ta5+  Ta49  1  0.35413880  0.12018322  0.13915247  1
  Ta5+  Ta50  1  0.08015198  0.64880379  0.37954586  1
  Ta5+  Ta51  1  0.87667191  0.39098172  0.35950108  1
  Ta5+  Ta52  1  0.91759905  0.63042386  0.12668301  1
  Ta5+  Ta53  1  0.09236200  0.12649294  0.64528018  1
  Ta5+  Ta54  1  0.07993242  0.37200147  0.86746530  1
  Ta5+  Ta55  1  0.62646620  0.88262955  0.89004555  1
  Ta5+  Ta56  1  0.41996460  0.87639346  0.37578954  1
  Ta5+  Ta57  1  0.60469135  0.11911743  0.88092270  1
  Ta5+  Ta58  1  0.38958123  0.88479913  0.90795310  1
  Ta5+  Ta59  1  0.63412628  0.86787691  0.62846936  1
  Ta5+  Ta60  1  0.08295641  0.12183637  0.85471479  1
  Ta5+  Ta61  1  0.65970291  0.09223140  0.38919048  1
  Ta5+  Ta62  1  0.90407557  0.86763092  0.12906216  1
  Ta5+  Ta63  1  0.84637882  0.88056444  0.31422172  1
  Ta5+  Ta64  1  0.38298041  0.37623525  0.59669123  1
  Ta5+  Ta65  1  0.62770315  0.41925950  0.11729197  1
  Ta5+  Ta66  1  0.61532516  0.11684545  0.61919120  1
  Ta5+  Ta67  1  0.91861859  0.38092374  0.09860133  1
  Ta5+  Ta68  1  0.11821309  0.40411230  0.07667211  1
  Ta5+  Ta69  1  0.11774308  0.09544079  0.05781629  1
  Ta5+  Ta70  1  0.63144185  0.36264081  0.87973746  1
  Ta5+  Ta71  1  0.08621286  0.86617550  0.85931251  1
  Ta5+  Ta72  1  0.64713313  0.40028152  0.38926560  1
  Ta5+  Ta73  1  0.62943138  0.61120396  0.88215616  1
  Ta5+  Ta74  1  0.58451228  0.85932468  0.36741656  1
  W6+  W75  1  0.89944036  0.38997114  0.61816534  1
  W6+  W76  1  0.32667927  0.63141191  0.38931478  1
  W6+  W77  1  0.41211801  0.45796371  0.34603377  1
  W6+  W78  1  0.34915940  0.60546775  0.15258981  1
  W6+  W79  1  0.90972043  0.64000367  0.35640250  1
  W6+  W80  1  0.87228754  0.89685535  0.64604948  1
  W6+  W81  1  0.16922836  0.08026452  0.39618107  1
  W6+  W82  1  0.35605613  0.39422119  0.14510481  1
  O2-  O83  1  0.11163332  -0.01873346  0.08241098  1
  O2-  O84  1  0.04274695  0.02999349  0.36591778  1
  O2-  O85  1  0.11578320  0.00134999  0.65149680  1
  O2-  O86  1  0.10025004  -0.01414616  0.85923072  1
  O2-  O87  1  0.11746756  0.51331762  0.12100117  1
  O2-  O88  1  0.20044361  0.65569640  0.44087063  1
  O2-  O89  1  0.11014359  0.50901791  0.60665525  1
  O2-  O90  1  0.10458085  0.50557846  0.87088792  1
  O2-  O91  1  0.33850773  -0.00077930  0.12674585  1
  O2-  O92  1  0.38803321  -0.00490015  0.38204094  1
  O2-  O93  1  0.39654646  -0.00001309  0.65324974  1
  O2-  O94  1  0.35173988  0.00311144  0.87227247  1
  O2-  O95  1  0.29814276  0.50261553  0.09667564  1
  O2-  O96  1  0.45926710  0.59475404  0.36929338  1
  O2-  O97  1  0.41320334  0.49101249  0.65121747  1
  O2-  O98  1  0.37285250  0.49047638  0.87334454  1
  O2-  O99  1  0.64447631  -0.00448440  0.14803186  1
  O2-  O100  1  0.61149608  -0.01504245  0.35700967  1
  O2-  O101  1  0.62872126  -0.00561605  0.62777881  1
  O2-  O102  1  0.65588780  0.00943985  0.87581234  1
  O2-  O103  1  0.56470010  0.52115845  0.09166161  1
  O2-  O104  1  0.54936880  0.46012268  0.34201933  1
  O2-  O105  1  0.62893662  0.48833164  0.64585241  1
  O2-  O106  1  0.64012902  0.48442129  0.87247935  1
  O2-  O107  1  0.90448148  -0.00050408  0.12237802  1
  O2-  O108  1  0.86698081  0.00291885  0.34603387  1
  O2-  O109  1  0.84304273  0.02617218  0.61581098  1
  O2-  O110  1  0.89074597  0.00035613  0.87996607  1
  O2-  O111  1  0.93692491  0.50101235  0.10878484  1
  O2-  O112  1  0.90562385  0.50218347  0.37443967  1
  O2-  O113  1  0.89956239  0.52809831  0.59669546  1
  O2-  O114  1  0.89208135  0.50999419  0.87910240  1
  O2-  O115  1  0.21246027  0.34344712  0.13314859  1
  O2-  O116  1  0.11894177  0.20616357  0.34190003  1
  O2-  O117  1  0.11410959  0.26007239  0.62892244  1
  O2-  O118  1  0.09040405  0.24888513  0.87384968  1
  O2-  O119  1  0.13666429  0.75424650  0.13895308  1
  O2-  O120  1  0.08645373  0.78036449  0.37840926  1
  O2-  O121  1  0.19076884  0.75056417  0.60491857  1
  O2-  O122  1  0.17237163  0.76809338  0.86428477  1
  O2-  O123  1  0.35147368  0.25042497  0.13895332  1
  O2-  O124  1  0.42518288  0.18736421  0.39540680  1
  O2-  O125  1  0.35469604  0.24902942  0.60493631  1
  O2-  O126  1  0.31058417  0.25124775  0.87455338  1
  O2-  O127  1  0.33119977  0.74579769  0.11081769  1
  O2-  O128  1  0.36448454  0.76204144  0.40700723  1
  O2-  O129  1  0.39072305  0.75162848  0.64030073  1
  O2-  O130  1  0.41020968  0.75213690  0.91312492  1
  O2-  O131  1  0.69704693  0.18598809  0.11188706  1
  O2-  O132  1  0.59129309  0.29326635  0.37263033  1
  O2-  O133  1  0.67340894  0.23278184  0.61196950  1
  O2-  O134  1  0.66229032  0.22784899  0.89766620  1
  O2-  O135  1  0.67556898  0.73044592  0.13382442  1
  O2-  O136  1  0.60449699  0.72341842  0.38821391  1
  O2-  O137  1  0.57766802  0.74252804  0.63823985  1
  O2-  O138  1  0.59534153  0.75042182  0.89782176  1
  O2-  O139  1  0.90777322  0.25177554  0.07992629  1
  O2-  O140  1  0.97417068  0.31537437  0.37071757  1
  O2-  O141  1  0.90850355  0.25327735  0.60933046  1
  O2-  O142  1  0.89230058  0.25379701  0.89336708  1
  O2-  O143  1  0.86249339  0.74554419  0.13607872  1
  O2-  O144  1  0.90600109  0.77526006  0.33748181  1
  O2-  O145  1  0.91506960  0.76014816  0.62530857  1
  O2-  O146  1  0.82178819  0.73638784  0.87205339  1
  O2-  O147  1  0.18695272  0.12114015  -0.04676052  1
  O2-  O148  1  0.21780362  0.14350265  0.12424147  1
  O2-  O149  1  0.11364863  0.12023464  0.51927635  1
  O2-  O150  1  0.16660259  0.14042115  0.75649854  1
  O2-  O151  1  0.11604311  0.64270694  -0.00287827  1
  O2-  O152  1  0.08573974  0.63654579  0.25968623  1
  O2-  O153  1  0.04942622  0.66622675  0.52323739  1
  O2-  O154  1  0.13198078  0.64574509  0.73900000  1
  O2-  O155  1  0.36091122  0.13538072  0.00332352  1
  O2-  O156  1  0.32418972  0.12748816  0.26356269  1
  O2-  O157  1  0.29921977  0.09297298  0.51742004  1
  O2-  O158  1  0.35499655  0.15002288  0.74662530  1
  O2-  O159  1  0.41439748  0.61814620  0.02288439  1
  O2-  O160  1  0.29822180  0.64076893  0.26087816  1
  O2-  O161  1  0.38485897  0.62490854  0.52089246  1
  O2-  O162  1  0.38047088  0.64847284  0.76849140  1
  O2-  O163  1  0.57964180  0.10486917  0.00844323  1
  O2-  O164  1  0.62680381  0.14373532  0.26624235  1
  O2-  O165  1  0.59818674  0.12717891  0.48805702  1
  O2-  O166  1  0.60596687  0.13581466  0.75205341  1
  O2-  O167  1  0.68352146  0.62032202  -0.00343739  1
  O2-  O168  1  0.61476225  0.60639347  0.25227999  1
  O2-  O169  1  0.57696782  0.61126761  0.51607610  1
  O2-  O170  1  0.64949363  0.63693063  0.76088383  1
  O2-  O171  1  0.83701122  0.11725998  -0.00364502  1
  O2-  O172  1  0.86796105  0.15921114  0.21235127  1
  O2-  O173  1  0.90615584  0.12866226  0.49256505  1
  O2-  O174  1  0.88873147  0.13757106  0.75586495  1
  O2-  O175  1  0.87739939  0.63822035  0.00025659  1
  O2-  O176  1  0.87460191  0.60404809  0.23835975  1
  O2-  O177  1  0.86360068  0.67903971  0.48214127  1
  O2-  O178  1  0.86829490  0.63004226  0.74143979  1
  O2-  O179  1  0.17690631  0.37684000  -0.03263957  1
  O2-  O180  1  0.16040568  0.37868965  0.30069650  1
  O2-  O181  1  0.14325205  0.36075748  0.48969826  1
  O2-  O182  1  0.14330009  0.37802006  0.75267667  1
  O2-  O183  1  0.08990152  0.84144073  -0.01503391  1
  O2-  O184  1  0.08104052  0.89641199  0.24158074  1
  O2-  O185  1  0.10191085  0.87604109  0.51217272  1
  O2-  O186  1  0.09507223  0.84041334  0.72865825  1
  O2-  O187  1  0.36104660  0.35845171  0.00201708  1
  O2-  O188  1  0.37119374  0.34044319  0.28171946  1
  O2-  O189  1  0.39834839  0.40071579  0.48175572  1
  O2-  O190  1  0.38140463  0.34273323  0.75226145  1
  O2-  O191  1  0.44303173  0.87149915  0.04191710  1
  O2-  O192  1  0.38740835  0.86604643  0.24569849  1
  O2-  O193  1  0.42765041  0.87619735  0.52072948  1
  O2-  O194  1  0.40129588  0.85421800  0.77964950  1
  O2-  O195  1  0.64936843  0.36021868  0.01003546  1
  O2-  O196  1  0.60133444  0.32753976  0.19457470  1
  O2-  O197  1  0.67179233  0.37516942  0.50926792  1
  O2-  O198  1  0.61796220  0.33447119  0.75527333  1
  O2-  O199  1  0.61576663  0.85585304  0.03079446  1
  O2-  O200  1  0.58230835  0.84063541  0.23583730  1
  O2-  O201  1  0.61088142  0.85487684  0.50329600  1
  O2-  O202  1  0.61489979  0.86183256  0.76445979  1
  O2-  O203  1  0.83977861  0.38707507  -0.00107108  1
  O2-  O204  1  0.88084478  0.35632526  0.22543300  1
  O2-  O205  1  0.84935743  0.36227600  0.47943949  1
  O2-  O206  1  0.90857359  0.37995087  0.75298259  1
  O2-  O207  1  0.89023022  0.85453038  0.00314915  1
  O2-  O208  1  0.77693630  0.88013321  0.20427521  1
  O2-  O209  1  0.81042903  0.87176298  0.43911239  1
  O2-  O210  1  0.80853846  0.88695516  0.76306590  1
  O2-  O211  1  0.00948343  0.11177863  -0.01715083  1
  O2-  O212  1  0.03518463  0.13706595  0.14707790  1
  O2-  O213  1  -0.05927212  -0.07164790  0.53190837  1
  O2-  O214  1  -0.02969203  -0.16088445  0.84381332  1
  O2-  O215  1  0.01095922  0.38743922  -0.00856328  1
  O2-  O216  1  0.03754760  0.34339769  0.15286976  1
  O2-  O217  1  0.08693660  0.52036070  0.40554779  1
  O2-  O218  1  0.00760327  0.66441618  0.86264817  1
  O2-  O219  1  0.29160994  -0.12179252  -0.01473792  1
  O2-  O220  1  0.20559479  -0.06028969  0.38350437  1
  O2-  O221  1  0.26690664  -0.09788005  0.55642900  1
  O2-  O222  1  0.25743036  -0.12070794  0.71158823  1
  O2-  O223  1  0.25795557  0.62971400  -0.10597198  1
  O2-  O224  1  0.28423963  0.49490763  0.38436128  1
  O2-  O225  1  0.26038252  0.38887026  0.61897619  1
  O2-  O226  1  0.25719146  0.59665926  0.64293615  1
  O2-  O227  1  0.48128485  0.14865294  -0.13298157  1
  O2-  O228  1  0.48252393  0.13169112  0.16377239  1
  O2-  O229  1  0.49508048  0.14802533  0.62260945  1
  O2-  O230  1  0.50932366  -0.07686174  0.90216169  1
  O2-  O231  1  0.50379117  0.34353353  -0.11391671  1
  O2-  O232  1  0.41119884  0.49329275  0.21242571  1
  O2-  O233  1  0.51104984  0.33879412  0.61697156  1
  O2-  O234  1  0.50823833  0.60783306  0.87333640  1
  O2-  O235  1  0.74283172  -0.12568623  -0.06898627  1
  O2-  O236  1  0.75008569  0.18794076  0.37938130  1
  O2-  O237  1  0.74266758  0.03953209  0.46696063  1
  O2-  O238  1  0.74578646  -0.16559981  0.60602871  1
  O2-  O239  1  0.72245388  0.48911588  0.14991040  1
  O2-  O240  1  0.75087247  0.37239286  0.32653806  1
  O2-  O241  1  0.68342378  0.52814977  0.40534619  1
  O2-  O242  1  0.74206809  0.64668868  0.59965123  1
