# generated using pymatgen
data_Gd19Ta56(WO20)8
_symmetry_space_group_name_H-M   'P 1'
_cell_length_a   15.48976155
_cell_length_b   15.60029957
_cell_length_c   15.17294765
_cell_angle_alpha   89.79864023
_cell_angle_beta   90.23013498
_cell_angle_gamma   89.87424835
_symmetry_Int_Tables_number   1
_chemical_formula_structural   Gd19Ta56(WO20)8
_chemical_formula_sum   'Gd19 Ta56 W8 O160'
_cell_volume   3666.40456614
_cell_formula_units_Z   1
loop_
 _symmetry_equiv_pos_site_id
 _symmetry_equiv_pos_as_xyz
  1  'x, y, z'
loop_
 _atom_type_symbol
 _atom_type_oxidation_number
  Gd3+  3.0
  Ta5+  5.0
  W6+  6.0
  O2-  -2.0
loop_
 _atom_site_type_symbol
 _atom_site_label
 _atom_site_symmetry_multiplicity
 _atom_site_fract_x
 _atom_site_fract_y
 _atom_site_fract_z
 _atom_site_occupancy
  Gd3+  Gd0  1  -0.05304054  0.76192748  -0.02446794  1
  Gd3+  Gd1  1  0.24461872  0.74674400  -0.00518657  1
  Gd3+  Gd2  1  0.50146245  0.24407429  0.77573925  1
  Gd3+  Gd3  1  0.75703632  0.75588870  0.23838680  1
  Gd3+  Gd4  1  0.74077766  0.27232305  0.49379337  1
  Gd3+  Gd5  1  0.51165536  0.76391932  0.25610232  1
  Gd3+  Gd6  1  0.01931539  0.25593175  0.27239542  1
  Gd3+  Gd7  1  0.24441685  0.73826687  0.50248219  1
  Gd3+  Gd8  1  0.50204290  0.74018879  0.51092687  1
  Gd3+  Gd9  1  0.47345022  0.22697542  0.22128965  1
  Gd3+  Gd10  1  0.48969958  0.22400352  0.48450549  1
  Gd3+  Gd11  1  0.24377663  0.24076247  0.51510254  1
  Gd3+  Gd12  1  0.25363209  0.23740120  0.00395338  1
  Gd3+  Gd13  1  0.24966248  0.75204917  0.26579179  1
  Gd3+  Gd14  1  0.53831775  0.77029901  0.00266505  1
  Gd3+  Gd15  1  0.00955791  0.25271401  0.74545945  1
  Gd3+  Gd16  1  0.52401955  0.73284657  0.74849652  1
  Gd3+  Gd17  1  -0.01879246  0.74555363  0.74603628  1
  Gd3+  Gd18  1  0.74179564  0.75961463  0.50428398  1
  Ta5+  Ta19  1  0.65786825  0.36890811  0.11667871  1
  Ta5+  Ta20  1  0.12646895  0.86908379  0.63082036  1
  Ta5+  Ta21  1  0.36813832  0.61763283  0.88085635  1
  Ta5+  Ta22  1  0.37146470  0.11182073  0.63672417  1
  Ta5+  Ta23  1  0.11319025  0.88193497  0.87941188  1
  Ta5+  Ta24  1  0.37703265  0.60545697  0.62738744  1
  Ta5+  Ta25  1  0.16352567  0.37280386  0.14079716  1
  Ta5+  Ta26  1  0.33196154  0.11528363  0.35957355  1
  Ta5+  Ta27  1  0.85634330  0.15481524  0.87623968  1
  Ta5+  Ta28  1  0.64154228  0.38960646  0.86940805  1
  Ta5+  Ta29  1  0.81779521  0.14181945  0.35101913  1
  Ta5+  Ta30  1  0.13161330  0.37318969  0.62278876  1
  Ta5+  Ta31  1  0.66120765  0.14476996  0.13762698  1
  Ta5+  Ta32  1  0.13834050  0.12067057  0.88088630  1
  Ta5+  Ta33  1  0.11271550  0.87795532  0.13155537  1
  Ta5+  Ta34  1  0.92440751  0.91981331  0.59338757  1
  Ta5+  Ta35  1  0.68456904  0.15415217  0.88905288  1
  Ta5+  Ta36  1  0.88134922  0.89800131  0.37623312  1
  Ta5+  Ta37  1  0.88390655  0.34850570  0.87899778  1
  Ta5+  Ta38  1  0.60949582  0.60710797  0.37554050  1
  Ta5+  Ta39  1  0.86045839  0.90899917  0.84787394  1
  Ta5+  Ta40  1  0.17265954  0.37621454  0.87540512  1
  Ta5+  Ta41  1  0.18307532  0.37321449  0.36454064  1
  Ta5+  Ta42  1  0.61889411  0.93470342  0.83314619  1
  Ta5+  Ta43  1  0.35940549  0.87291521  0.62968991  1
  Ta5+  Ta44  1  0.09155420  0.87723382  0.38257525  1
  Ta5+  Ta45  1  0.35155895  0.36038557  0.36007993  1
  Ta5+  Ta46  1  0.87412850  0.15230251  0.61241805  1
  Ta5+  Ta47  1  0.39081313  0.88772279  0.38785376  1
  Ta5+  Ta48  1  0.13287915  0.61140062  0.63287658  1
  Ta5+  Ta49  1  0.39586956  0.60331421  0.37569591  1
  Ta5+  Ta50  1  0.89214719  0.62209855  0.12319846  1
  Ta5+  Ta51  1  0.12750882  0.61840866  0.13884792  1
  Ta5+  Ta52  1  0.62066932  0.94285654  0.62791295  1
  Ta5+  Ta53  1  0.87724738  0.89950796  0.11330038  1
  Ta5+  Ta54  1  0.09639062  0.59582363  0.38020919  1
  Ta5+  Ta55  1  0.38317697  0.60932446  0.14143062  1
  Ta5+  Ta56  1  0.83207374  0.54391509  0.80312532  1
  Ta5+  Ta57  1  0.63985182  0.12828556  0.63459847  1
  Ta5+  Ta58  1  0.38059753  0.86274402  0.87496880  1
  Ta5+  Ta59  1  0.63470993  0.60559662  0.62055130  1
  Ta5+  Ta60  1  0.31210246  0.09978589  0.14321176  1
  Ta5+  Ta61  1  0.64609550  0.13339157  0.35096538  1
  Ta5+  Ta62  1  0.16452556  0.11404083  0.36562569  1
  Ta5+  Ta63  1  0.85089073  0.38675913  0.36443704  1
  Ta5+  Ta64  1  0.60860954  0.36838460  0.62157226  1
  Ta5+  Ta65  1  0.59405490  0.36518008  0.35662050  1
  Ta5+  Ta66  1  0.61859965  0.60678953  0.12842725  1
  Ta5+  Ta67  1  0.14134303  0.12124723  0.14283770  1
  Ta5+  Ta68  1  0.62592262  0.90616643  0.13142959  1
  Ta5+  Ta69  1  0.89917302  0.60706232  0.37366373  1
  Ta5+  Ta70  1  0.34624509  0.37117850  0.88031329  1
  Ta5+  Ta71  1  0.37806500  0.36640787  0.62966912  1
  Ta5+  Ta72  1  0.12680614  0.10963127  0.62719796  1
  Ta5+  Ta73  1  0.33369852  0.36977279  0.13932481  1
  Ta5+  Ta74  1  0.88153302  0.37356161  0.12806508  1
  W6+  W75  1  0.86949389  0.58468767  0.60551225  1
  W6+  W76  1  0.60311276  0.89224465  0.39004196  1
  W6+  W77  1  0.86920511  0.38438251  0.62055779  1
  W6+  W78  1  0.36964670  0.87652102  0.13836316  1
  W6+  W79  1  0.91728781  0.14665907  0.11987414  1
  W6+  W80  1  0.37049780  0.11263430  0.88528384  1
  W6+  W81  1  0.65329681  0.56965302  0.88404663  1
  W6+  W82  1  0.11507756  0.61619528  0.88110543  1
  O2-  O83  1  0.10736416  -0.00595498  0.13305848  1
  O2-  O84  1  0.13602565  -0.01399531  0.36905856  1
  O2-  O85  1  0.09095372  -0.01109401  0.63113260  1
  O2-  O86  1  0.15536121  -0.00595982  0.86683119  1
  O2-  O87  1  0.14447578  0.50224549  0.14100402  1
  O2-  O88  1  0.17156531  0.49991807  0.37106567  1
  O2-  O89  1  0.10166442  0.49389315  0.62040048  1
  O2-  O90  1  0.15854464  0.49391909  0.86950159  1
  O2-  O91  1  0.29543989  -0.02004272  0.13009397  1
  O2-  O92  1  0.36630470  0.00293721  0.40390443  1
  O2-  O93  1  0.39349332  -0.01214665  0.62191730  1
  O2-  O94  1  0.37711017  -0.02251753  0.87760246  1
  O2-  O95  1  0.33719592  0.49924056  0.13501517  1
  O2-  O96  1  0.37634066  0.48658198  0.37470450  1
  O2-  O97  1  0.39987688  0.48947579  0.60961205  1
  O2-  O98  1  0.36622850  0.49965580  0.88826505  1
  O2-  O99  1  0.66510526  0.01757082  0.11974425  1
  O2-  O100  1  0.63689499  0.01824997  0.37258380  1
  O2-  O101  1  0.55883968  0.04464797  0.58305765  1
  O2-  O102  1  0.65103913  0.03227259  0.89921925  1
  O2-  O103  1  0.67073253  0.49830516  0.12369587  1
  O2-  O104  1  0.61628561  0.48879015  0.37668279  1
  O2-  O105  1  0.59864969  0.48922892  0.60545515  1
  O2-  O106  1  0.55789849  0.47212533  0.89309005  1
  O2-  O107  1  0.89738561  0.01289855  0.11702655  1
  O2-  O108  1  0.84580910  0.01099027  0.36055820  1
  O2-  O109  1  0.92408791  0.04083352  0.58995344  1
  O2-  O110  1  0.85552832  0.02880679  0.86403632  1
  O2-  O111  1  0.87829371  0.50012080  0.13521571  1
  O2-  O112  1  0.82099144  0.50486955  0.36110113  1
  O2-  O113  1  0.80685594  0.48744901  0.56127353  1
  O2-  O114  1  0.89992520  0.47622609  0.87924712  1
  O2-  O115  1  0.14812490  0.24692333  0.14372130  1
  O2-  O116  1  0.15808484  0.24404985  0.36735290  1
  O2-  O117  1  0.12782483  0.24072387  0.62186024  1
  O2-  O118  1  0.16174598  0.24125061  0.87413306  1
  O2-  O119  1  0.17672163  0.74731624  0.13367993  1
  O2-  O120  1  0.16353493  0.76790634  0.38407990  1
  O2-  O121  1  0.15968738  0.74064109  0.62379154  1
  O2-  O122  1  0.07191120  0.74906732  0.89403317  1
  O2-  O123  1  0.34007724  0.23841234  0.14103259  1
  O2-  O124  1  0.38233337  0.23505719  0.35066603  1
  O2-  O125  1  0.38441889  0.23904366  0.63937995  1
  O2-  O126  1  0.37193197  0.24731164  0.87926430  1
  O2-  O127  1  0.39866612  0.73921194  0.16303744  1
  O2-  O128  1  0.39498698  0.74683122  0.38140713  1
  O2-  O129  1  0.37411733  0.74348041  0.60940702  1
  O2-  O130  1  0.44792752  0.72262229  0.88095283  1
  O2-  O131  1  0.59704163  0.25636452  0.11780338  1
  O2-  O132  1  0.56122714  0.24038786  0.34918986  1
  O2-  O133  1  0.56445473  0.23803277  0.62741364  1
  O2-  O134  1  0.61677397  0.26467840  0.87895899  1
  O2-  O135  1  0.60473574  0.73509546  0.14417073  1
  O2-  O136  1  0.59796968  0.74687759  0.38982630  1
  O2-  O137  1  0.62661143  0.72952033  0.59617127  1
  O2-  O138  1  0.52759472  0.87090690  0.88837085  1
  O2-  O139  1  0.95897097  0.27607296  0.13072073  1
  O2-  O140  1  0.79326687  0.27625180  0.34721557  1
  O2-  O141  1  0.93719504  0.25504621  0.60849128  1
  O2-  O142  1  0.95820017  0.25043087  0.88579363  1
  O2-  O143  1  0.84588771  0.74351871  0.11515752  1
  O2-  O144  1  0.80004146  0.80238304  0.37304638  1
  O2-  O145  1  1.00328491  0.82358116  0.61560185  1
  O2-  O146  1  0.88811987  0.78421179  0.84720418  1
  O2-  O147  1  0.13743409  0.12279801  0.00658297  1
  O2-  O148  1  0.08089773  0.12167166  0.25810066  1
  O2-  O149  1  0.14931879  0.11696066  0.49945557  1
  O2-  O150  1  0.09112797  0.12523398  0.75482966  1
  O2-  O151  1  0.15032862  0.63145217  0.01542622  1
  O2-  O152  1  0.14759986  0.63681478  0.26822755  1
  O2-  O153  1  0.13047481  0.62742528  0.49822306  1
  O2-  O154  1  0.07904218  0.63214832  0.74325370  1
  O2-  O155  1  0.33407496  0.11387605  0.01819542  1
  O2-  O156  1  0.39755947  0.09896517  0.24414693  1
  O2-  O157  1  0.36038714  0.14111072  0.50306685  1
  O2-  O158  1  0.41998434  0.11836150  0.75214469  1
  O2-  O159  1  0.35864016  0.63809807  0.01848356  1
  O2-  O160  1  0.32938617  0.62257879  0.26307730  1
  O2-  O161  1  0.33969589  0.62237259  0.49383681  1
  O2-  O162  1  0.39389492  0.62318414  0.75378881  1
  O2-  O163  1  0.69351888  0.16237064  0.01440736  1
  O2-  O164  1  0.57546678  0.12006982  0.22943339  1
  O2-  O165  1  0.63830184  0.16355544  0.48394060  1
  O2-  O166  1  0.63979643  0.15300267  0.75655712  1
  O2-  O167  1  0.61459231  0.63857324  0.00448692  1
  O2-  O168  1  0.66611869  0.62823739  0.25926618  1
  O2-  O169  1  0.67514411  0.61811545  0.48432332  1
  O2-  O170  1  0.62755197  0.62337672  0.74585400  1
  O2-  O171  1  0.87475702  0.15380311  -0.00065438  1
  O2-  O172  1  0.90167916  0.16201611  0.25276210  1
  O2-  O173  1  0.84282828  0.15799177  0.47380849  1
  O2-  O174  1  0.88853528  0.15166804  0.73902222  1
  O2-  O175  1  0.91979898  0.62642663  0.00462191  1
  O2-  O176  1  0.85634543  0.64488467  0.26021299  1
  O2-  O177  1  0.85503866  0.65757505  0.47693187  1
  O2-  O178  1  0.88024986  0.64098310  0.72788650  1
  O2-  O179  1  0.16020850  0.36532934  0.00913138  1
  O2-  O180  1  0.09839154  0.37669214  0.25731952  1
  O2-  O181  1  0.15615117  0.36491848  0.49236257  1
  O2-  O182  1  0.11870231  0.36049434  0.75217615  1
  O2-  O183  1  0.15023234  0.86404257  0.00718543  1
  O2-  O184  1  0.13878336  0.85992833  0.25239889  1
  O2-  O185  1  0.14095595  0.86920384  0.50584259  1
  O2-  O186  1  0.10009015  0.84857530  0.75730735  1
  O2-  O187  1  0.34925359  0.36344768  0.01188523  1
  O2-  O188  1  0.41894126  0.36724545  0.24107396  1
  O2-  O189  1  0.37826056  0.33610800  0.49432520  1
  O2-  O190  1  0.39790417  0.37007648  0.75622288  1
  O2-  O191  1  0.38543496  0.83076812  0.00047715  1
  O2-  O192  1  0.32759398  0.87395743  0.27720077  1
  O2-  O193  1  0.32426584  0.86182547  0.50251537  1
  O2-  O194  1  0.41169891  0.84158918  0.74622161  1
  O2-  O195  1  0.67582335  0.37908541  -0.00737326  1
  O2-  O196  1  0.60466158  0.37689135  0.23444690  1
  O2-  O197  1  0.59024803  0.34326742  0.49192735  1
  O2-  O198  1  0.58467563  0.36733262  0.74617401  1
  O2-  O199  1  0.65953409  0.85403098  0.02771357  1
  O2-  O200  1  0.65320471  0.86616533  0.24831201  1
  O2-  O201  1  0.65865032  0.88615056  0.52337274  1
  O2-  O202  1  0.60959837  0.85054636  0.71874811  1
  O2-  O203  1  0.86005798  0.36210314  0.00738482  1
  O2-  O204  1  0.91930102  0.37531767  0.26203289  1
  O2-  O205  1  0.87490612  0.35529541  0.48164645  1
  O2-  O206  1  0.87572487  0.33724296  0.75384468  1
  O2-  O207  1  0.85307376  0.88116252  -0.01126636  1
  O2-  O208  1  0.83555506  0.88199535  0.22966623  1
  O2-  O209  1  0.83735703  0.87971540  0.51750720  1
  O2-  O210  1  0.89126535  0.90925772  0.71765331  1
  O2-  O211  1  -0.00629300  -0.15404173  0.11038134  1
  O2-  O212  1  -0.01691325  -0.13665390  0.31285205  1
  O2-  O213  1  -0.01675746  -0.08512161  0.46192819  1
  O2-  O214  1  -0.00378824  -0.09044565  0.89164165  1
  O2-  O215  1  0.00869261  0.64086904  0.15874291  1
  O2-  O216  1  -0.00046153  0.68018904  0.36347621  1
  O2-  O217  1  -0.00543916  0.52183712  0.38750628  1
  O2-  O218  1  -0.10502956  0.49000537  0.69723333  1
  O2-  O219  1  0.25998138  -0.16215478  -0.12990526  1
  O2-  O220  1  0.24249399  0.13513115  0.25382979  1
  O2-  O221  1  0.24946285  0.10712231  0.64907156  1
  O2-  O222  1  0.24699685  -0.11080765  0.66689075  1
  O2-  O223  1  0.25458990  0.65720346  -0.12868415  1
  O2-  O224  1  0.25764633  0.36223741  0.25096308  1
  O2-  O225  1  0.25594960  0.36897604  0.63277224  1
  O2-  O226  1  0.25203272  0.59583842  0.64949699  1
  O2-  O227  1  0.50681890  -0.11704724  0.11887053  1
  O2-  O228  1  0.49071367  -0.10319891  0.30874578  1
  O2-  O229  1  0.49039709  -0.11928045  0.47826932  1
  O2-  O230  1  0.56578808  -0.00155617  0.74458535  1
  O2-  O231  1  0.49985576  0.57592739  0.12686815  1
  O2-  O232  1  0.49749355  0.62137412  0.29215896  1
  O2-  O233  1  0.50244741  0.60602589  0.45153379  1
  O2-  O234  1  0.50169309  0.63603078  0.62559209  1
  O2-  O235  1  0.73937875  -0.10581158  -0.16869874  1
  O2-  O236  1  0.73346271  0.15353020  0.23919133  1
  O2-  O237  1  0.75343355  0.18250164  0.61721438  1
  O2-  O238  1  0.71620560  0.01500062  0.64483372  1
  O2-  O239  1  0.77610613  0.62433511  -0.12577702  1
  O2-  O240  1  0.76847738  0.33824190  0.16016265  1
  O2-  O241  1  0.72655899  0.35039352  0.62360092  1
  O2-  O242  1  0.72489644  0.47101288  0.80628428  1
