# generated using pymatgen
data_Gd19Ta56(WO20)8
_symmetry_space_group_name_H-M   'P 1'
_cell_length_a   15.52558872
_cell_length_b   15.51049705
_cell_length_c   15.27416386
_cell_angle_alpha   89.88060642
_cell_angle_beta   90.12535856
_cell_angle_gamma   90.05230442
_symmetry_Int_Tables_number   1
_chemical_formula_structural   Gd19Ta56(WO20)8
_chemical_formula_sum   'Gd19 Ta56 W8 O160'
_cell_volume   3678.14695153
_cell_formula_units_Z   1
loop_
 _symmetry_equiv_pos_site_id
 _symmetry_equiv_pos_as_xyz
  1  'x, y, z'
loop_
 _atom_type_symbol
 _atom_type_oxidation_number
  Gd3+  3.0
  Ta5+  5.0
  W6+  6.0
  O2-  -2.0
loop_
 _atom_site_type_symbol
 _atom_site_label
 _atom_site_symmetry_multiplicity
 _atom_site_fract_x
 _atom_site_fract_y
 _atom_site_fract_z
 _atom_site_occupancy
  Gd3+  Gd0  1  0.74490911  0.74255152  -0.00884597  1
  Gd3+  Gd1  1  0.22259342  0.75333241  0.27724931  1
  Gd3+  Gd2  1  -0.00186027  0.28791583  0.48241855  1
  Gd3+  Gd3  1  0.50347855  0.72660622  -0.00110072  1
  Gd3+  Gd4  1  0.52240110  0.76428545  0.47581395  1
  Gd3+  Gd5  1  0.50517199  0.26551100  0.00509625  1
  Gd3+  Gd6  1  0.01748834  0.26102228  0.75387377  1
  Gd3+  Gd7  1  0.49095782  0.24613936  0.76302043  1
  Gd3+  Gd8  1  -0.00622727  0.25583722  0.25309682  1
  Gd3+  Gd9  1  0.67617769  0.29087931  0.24525819  1
  Gd3+  Gd10  1  0.01090304  0.25589595  -0.00103815  1
  Gd3+  Gd11  1  0.23840746  0.71375210  0.51377616  1
  Gd3+  Gd12  1  -0.00903421  0.77262374  0.27581367  1
  Gd3+  Gd13  1  0.78258815  0.75144167  0.71859808  1
  Gd3+  Gd14  1  0.50483956  0.25966309  0.46820730  1
  Gd3+  Gd15  1  0.74044090  0.22445607  0.72137504  1
  Gd3+  Gd16  1  0.52639443  0.72493985  0.24447043  1
  Gd3+  Gd17  1  0.25535537  0.75150627  -0.00228719  1
  Gd3+  Gd18  1  0.27813917  0.25629174  0.51854175  1
  Ta5+  Ta19  1  0.62447873  0.62707662  0.62291827  1
  Ta5+  Ta20  1  0.87202289  0.88004299  0.12125226  1
  Ta5+  Ta21  1  0.62897160  0.87864960  0.62279709  1
  Ta5+  Ta22  1  0.88489757  0.62144986  0.87282556  1
  Ta5+  Ta23  1  0.07543433  0.59490940  0.38277326  1
  Ta5+  Ta24  1  0.12056688  0.86454139  0.64363022  1
  Ta5+  Ta25  1  0.60469180  0.88126383  0.86737201  1
  Ta5+  Ta26  1  0.12104499  0.10997376  0.38556152  1
  Ta5+  Ta27  1  0.84919554  0.37598711  0.87777786  1
  Ta5+  Ta28  1  0.87319263  0.12507889  0.87173002  1
  Ta5+  Ta29  1  0.64312537  0.38236553  0.87783597  1
  Ta5+  Ta30  1  0.68091060  0.63057791  0.37738206  1
  Ta5+  Ta31  1  0.18530963  0.41794585  0.37914529  1
  Ta5+  Ta32  1  0.63422628  0.59558276  0.11569376  1
  Ta5+  Ta33  1  0.90867753  0.89392684  0.61225606  1
  Ta5+  Ta34  1  0.39758412  0.38464811  0.64002450  1
  Ta5+  Ta35  1  0.37534978  0.11181845  0.64154423  1
  Ta5+  Ta36  1  0.40240788  0.87634693  0.86323670  1
  Ta5+  Ta37  1  0.67553507  0.87338246  0.36384315  1
  Ta5+  Ta38  1  0.12880865  0.11290709  0.62858336  1
  Ta5+  Ta39  1  0.38602660  0.87918299  0.14521627  1
  Ta5+  Ta40  1  0.62115477  0.44688190  0.38398094  1
  Ta5+  Ta41  1  0.13238103  0.11660732  0.13282479  1
  Ta5+  Ta42  1  0.12185977  0.61632814  0.87325046  1
  Ta5+  Ta43  1  0.32404571  0.56172663  0.33807925  1
  Ta5+  Ta44  1  0.37189640  0.36416155  0.13617600  1
  Ta5+  Ta45  1  0.37044230  0.12096229  0.13328082  1
  Ta5+  Ta46  1  0.56850582  0.38808547  0.62970987  1
  Ta5+  Ta47  1  0.86831687  0.12504385  0.12671645  1
  Ta5+  Ta48  1  0.13522396  0.62056465  0.13244661  1
  Ta5+  Ta49  1  0.62848962  0.87424426  0.11944157  1
  Ta5+  Ta50  1  0.38335315  0.86125382  0.62908508  1
  Ta5+  Ta51  1  0.62463393  0.11889815  0.12308083  1
  Ta5+  Ta52  1  0.38231050  0.90810125  0.37732075  1
  Ta5+  Ta53  1  0.36868029  0.60224672  0.88724743  1
  Ta5+  Ta54  1  0.83671470  0.11458504  0.37405224  1
  Ta5+  Ta55  1  0.16733524  0.37283249  0.88155224  1
  Ta5+  Ta56  1  0.07574127  0.61624963  0.62335076  1
  Ta5+  Ta57  1  0.41841845  0.62788041  0.66494488  1
  Ta5+  Ta58  1  0.10199715  0.87388717  0.43728898  1
  Ta5+  Ta59  1  0.14040382  0.37956047  0.62726679  1
  Ta5+  Ta60  1  0.88747485  0.39483201  0.12030588  1
  Ta5+  Ta61  1  0.11537993  0.87201725  0.12081042  1
  Ta5+  Ta62  1  0.83987131  0.87074682  0.38522483  1
  Ta5+  Ta63  1  0.33333198  0.35740240  0.88214957  1
  Ta5+  Ta64  1  0.88473202  0.39745108  0.63707317  1
  Ta5+  Ta65  1  0.83692738  0.41505951  0.38621665  1
  Ta5+  Ta66  1  0.35465103  0.11324520  0.88074428  1
  Ta5+  Ta67  1  0.11241852  0.86331146  0.86759718  1
  Ta5+  Ta68  1  0.63606639  0.11574008  0.37269316  1
  Ta5+  Ta69  1  0.61026939  0.62101003  0.84491552  1
  Ta5+  Ta70  1  0.35834242  0.10320823  0.38475720  1
  Ta5+  Ta71  1  0.89475174  0.63913590  0.11965932  1
  Ta5+  Ta72  1  0.13516563  0.37448699  0.14022231  1
  Ta5+  Ta73  1  0.37751892  0.60770775  0.14201050  1
  Ta5+  Ta74  1  0.62719704  0.12391035  0.88279605  1
  W6+  W75  1  0.59271970  0.12320853  0.61466089  1
  W6+  W76  1  0.12594109  0.11641806  0.87866922  1
  W6+  W77  1  0.88634420  0.14551300  0.60463421  1
  W6+  W78  1  0.57537350  0.43068791  0.12071179  1
  W6+  W79  1  0.90959371  0.62316865  0.37753578  1
  W6+  W80  1  0.91679124  0.62755696  0.61720205  1
  W6+  W81  1  0.86543325  0.88326534  0.86062987  1
  W6+  W82  1  0.35268814  0.38845790  0.38072202  1
  O2-  O83  1  0.14763619  -0.01095781  0.12280095  1
  O2-  O84  1  0.09592955  -0.01454021  0.38671124  1
  O2-  O85  1  0.13651148  -0.01121755  0.62859118  1
  O2-  O86  1  0.12501851  -0.01977968  0.87323559  1
  O2-  O87  1  0.13540866  0.50044911  0.13802548  1
  O2-  O88  1  0.06252622  0.47624814  0.38979585  1
  O2-  O89  1  0.11920216  0.49854588  0.62055666  1
  O2-  O90  1  0.15666158  0.50038143  0.88168400  1
  O2-  O91  1  0.41012325  0.00190960  0.13549901  1
  O2-  O92  1  0.45104185  0.00756846  0.37732810  1
  O2-  O93  1  0.36439115  -0.02074117  0.63671357  1
  O2-  O94  1  0.34511507  -0.01910587  0.87941658  1
  O2-  O95  1  0.36220242  0.48941289  0.12257822  1
  O2-  O96  1  0.37618137  0.51658824  0.43406690  1
  O2-  O97  1  0.38963813  0.51653585  0.63762455  1
  O2-  O98  1  0.33999899  0.48830703  0.88960699  1
  O2-  O99  1  0.62272477  -0.00494152  0.10464899  1
  O2-  O100  1  0.64314194  -0.00759076  0.35513690  1
  O2-  O101  1  0.63861286  -0.00406516  0.62435294  1
  O2-  O102  1  0.63542174  0.00147573  0.88117777  1
  O2-  O103  1  0.69712447  0.49596043  0.10606035  1
  O2-  O104  1  0.57159874  0.55792212  0.38347396  1
  O2-  O105  1  0.61741615  0.50572847  0.62940847  1
  O2-  O106  1  0.64468305  0.50329263  0.85469220  1
  O2-  O107  1  0.89306782  0.00491901  0.13297934  1
  O2-  O108  1  0.86537850  -0.00074809  0.36847881  1
  O2-  O109  1  0.92247513  0.01223135  0.60567454  1
  O2-  O110  1  0.90593556  0.01328897  0.85795204  1
  O2-  O111  1  0.88113700  0.51550412  0.12414941  1
  O2-  O112  1  0.88833879  0.49675469  0.31720508  1
  O2-  O113  1  0.85016280  0.50942575  0.65322774  1
  O2-  O114  1  0.85855063  0.50143516  0.86992296  1
  O2-  O115  1  0.09902495  0.24277638  0.14330283  1
  O2-  O116  1  0.06866337  0.22076889  0.37414069  1
  O2-  O117  1  0.10964610  0.24523453  0.62201660  1
  O2-  O118  1  0.09959406  0.25418871  0.87826129  1
  O2-  O119  1  0.17751547  0.75869013  0.12981275  1
  O2-  O120  1  0.11659746  0.75754817  0.39262090  1
  O2-  O121  1  0.12930038  0.73780656  0.61782608  1
  O2-  O122  1  0.17067064  0.73488009  0.87451305  1
  O2-  O123  1  0.41908303  0.23405083  0.13148789  1
  O2-  O124  1  0.37744800  0.23146953  0.39523116  1
  O2-  O125  1  0.38692638  0.24074953  0.64369558  1
  O2-  O126  1  0.39046605  0.23575470  0.87672411  1
  O2-  O127  1  0.39688005  0.74822578  0.13507449  1
  O2-  O128  1  0.46112324  0.81189523  0.34639104  1
  O2-  O129  1  0.35376140  0.72621057  0.60871630  1
  O2-  O130  1  0.37768509  0.75641874  0.90665648  1
  O2-  O131  1  0.60937794  0.24518826  0.11611953  1
  O2-  O132  1  0.59085689  0.23582076  0.35492782  1
  O2-  O133  1  0.57230848  0.25993550  0.61075387  1
  O2-  O134  1  0.59932352  0.25476741  0.88527783  1
  O2-  O135  1  0.61478412  0.74268841  0.10787235  1
  O2-  O136  1  0.62316525  0.74698178  0.36257304  1
  O2-  O137  1  0.66103480  0.75339995  0.62915775  1
  O2-  O138  1  0.59702600  0.74887360  0.87349041  1
  O2-  O139  1  0.91664587  0.24399953  0.11996967  1
  O2-  O140  1  0.91550870  0.32311310  0.35660486  1
  O2-  O141  1  0.83008552  0.28373937  0.62374482  1
  O2-  O142  1  0.90880038  0.25729120  0.88368938  1
  O2-  O143  1  0.83232540  0.75263180  0.11202283  1
  O2-  O144  1  0.90428894  0.76381323  0.39416823  1
  O2-  O145  1  0.89081159  0.75428718  0.61496940  1
  O2-  O146  1  0.82297967  0.74343261  0.86703271  1
  O2-  O147  1  0.08478988  0.12418949  0.01869694  1
  O2-  O148  1  0.09837645  0.10571896  0.25437268  1
  O2-  O149  1  0.08635693  0.11389486  0.50773720  1
  O2-  O150  1  0.08350693  0.12402489  0.74340514  1
  O2-  O151  1  0.16229045  0.62989270  0.00934742  1
  O2-  O152  1  0.09746351  0.65277841  0.25705644  1
  O2-  O153  1  0.12445014  0.61855344  0.49801506  1
  O2-  O154  1  0.09729184  0.61997898  0.75221057  1
  O2-  O155  1  0.36969521  0.11572874  0.00249625  1
  O2-  O156  1  0.36246770  0.11459593  0.26021708  1
  O2-  O157  1  0.37727616  0.11244333  0.51323583  1
  O2-  O158  1  0.41586559  0.10577040  0.76420615  1
  O2-  O159  1  0.34567135  0.63009786  0.01213719  1
  O2-  O160  1  0.41980750  0.62039228  0.26406615  1
  O2-  O161  1  0.29670663  0.68461286  0.38330904  1
  O2-  O162  1  0.34397281  0.63712510  0.76976808  1
  O2-  O163  1  0.57069152  0.12507910  0.00003911  1
  O2-  O164  1  0.58977868  0.11114675  0.23917332  1
  O2-  O165  1  0.56675503  0.12260626  0.47617120  1
  O2-  O166  1  0.61179406  0.14282398  0.75607986  1
  O2-  O167  1  0.64250426  0.62995245  -0.01784951  1
  O2-  O168  1  0.65085598  0.62412182  0.23978071  1
  O2-  O169  1  0.67046392  0.64062202  0.50502451  1
  O2-  O170  1  0.68971492  0.63477788  0.74675661  1
  O2-  O171  1  0.89143670  0.12855900  0.00174529  1
  O2-  O172  1  0.90148980  0.14009872  0.25491012  1
  O2-  O173  1  0.90799721  0.16879674  0.45735574  1
  O2-  O174  1  0.87151219  0.15592627  0.74718848  1
  O2-  O175  1  0.84504246  0.63117178  -0.00431579  1
  O2-  O176  1  0.89996798  0.66166168  0.24014196  1
  O2-  O177  1  0.94223988  0.58089837  0.50410502  1
  O2-  O178  1  0.89277781  0.64641374  0.75218789  1
  O2-  O179  1  0.11466732  0.36493503  0.01109457  1
  O2-  O180  1  0.14687175  0.36986097  0.26977421  1
  O2-  O181  1  0.14784262  0.35179000  0.49057900  1
  O2-  O182  1  0.12650775  0.36642115  0.75562250  1
  O2-  O183  1  0.13992475  0.85122597  -0.00483134  1
  O2-  O184  1  0.11484528  0.85843890  0.24964915  1
  O2-  O185  1  0.19487625  0.86041575  0.52049219  1
  O2-  O186  1  0.17489748  0.85510516  0.75339486  1
  O2-  O187  1  0.38196218  0.35081517  0.00455471  1
  O2-  O188  1  0.39534445  0.36700295  0.25513529  1
  O2-  O189  1  0.38798605  0.35745873  0.51286913  1
  O2-  O190  1  0.38506246  0.36795158  0.76696581  1
  O2-  O191  1  0.31877995  0.87690546  0.04473508  1
  O2-  O192  1  0.32473366  0.87245168  0.25525375  1
  O2-  O193  1  0.38006895  0.85857085  0.49316908  1
  O2-  O194  1  0.35983018  0.83657094  0.74893537  1
  O2-  O195  1  0.56928018  0.39605046  -0.02303558  1
  O2-  O196  1  0.59473840  0.41543097  0.26671241  1
  O2-  O197  1  0.57994016  0.39441606  0.48891944  1
  O2-  O198  1  0.58338985  0.36913471  0.75957636  1
  O2-  O199  1  0.66158488  0.86375450  -0.00757655  1
  O2-  O200  1  0.68127272  0.86219457  0.22962061  1
  O2-  O201  1  0.63098730  0.86454193  0.49284877  1
  O2-  O202  1  0.66141233  0.86534880  0.75634876  1
  O2-  O203  1  0.91195725  0.37823385  -0.00229356  1
  O2-  O204  1  0.79742823  0.34948924  0.18489044  1
  O2-  O205  1  0.87021745  0.40294181  0.50403618  1
  O2-  O206  1  0.91582727  0.37323609  0.76233047  1
  O2-  O207  1  0.84755112  0.87949875  -0.00083543  1
  O2-  O208  1  0.87445633  0.86268036  0.24973433  1
  O2-  O209  1  0.83369622  0.88658246  0.51234690  1
  O2-  O210  1  0.84182529  0.88764448  0.71813089  1
  O2-  O211  1  -0.00214242  -0.16134466  -0.12635883  1
  O2-  O212  1  -0.00377183  -0.14859830  0.11404048  1
  O2-  O213  1  0.02050351  -0.12659484  0.52616487  1
  O2-  O214  1  0.01206526  -0.13228368  0.69259949  1
  O2-  O215  1  0.01337713  0.65104579  0.09937737  1
  O2-  O216  1  0.00007330  0.38414839  0.16943250  1
  O2-  O217  1  0.00388101  0.37187278  0.61159618  1
  O2-  O218  1  0.00238428  0.62385739  0.90610421  1
  O2-  O219  1  0.24960166  0.13952747  0.12744447  1
  O2-  O220  1  0.28770296  -0.00864586  0.38575648  1
  O2-  O221  1  0.23327421  0.14818560  0.40473704  1
  O2-  O222  1  0.24884840  0.13423285  0.62755766  1
  O2-  O223  1  0.25112846  0.33971257  0.12964754  1
  O2-  O224  1  0.25834667  0.62728492  0.19028959  1
  O2-  O225  1  0.19860127  0.54359115  0.33880358  1
  O2-  O226  1  0.26067184  0.36490027  0.62744277  1
  O2-  O227  1  0.49547019  -0.12941965  -0.04356435  1
  O2-  O228  1  0.51083324  -0.13534582  0.16443215  1
  O2-  O229  1  0.50586100  -0.15410999  0.61793427  1
  O2-  O230  1  0.50248278  -0.09034792  0.79821379  1
  O2-  O231  1  0.49027108  0.60824742  -0.09840199  1
  O2-  O232  1  0.50384163  0.61692997  0.10858539  1
  O2-  O233  1  0.50822596  0.65175612  0.57020724  1
  O2-  O234  1  0.52758055  0.62878802  0.73340465  1
  O2-  O235  1  0.74783404  0.12932957  0.12096877  1
  O2-  O236  1  0.74210918  0.16677946  0.30129468  1
  O2-  O237  1  0.73810489  0.10741681  0.45045881  1
  O2-  O238  1  0.74837001  0.15367379  0.87601739  1
  O2-  O239  1  0.74771496  0.37205999  -0.04667410  1
  O2-  O240  1  0.73355142  0.51319237  0.39622211  1
  O2-  O241  1  0.72679490  0.35775341  0.36926915  1
  O2-  O242  1  0.75209477  0.34406935  0.79767926  1
