# generated using pymatgen
data_Gd19Ta56(WO20)8
_symmetry_space_group_name_H-M   'P 1'
_cell_length_a   15.49459696
_cell_length_b   15.48186123
_cell_length_c   15.35713353
_cell_angle_alpha   90.04833029
_cell_angle_beta   89.95641747
_cell_angle_gamma   89.90864880
_symmetry_Int_Tables_number   1
_chemical_formula_structural   Gd19Ta56(WO20)8
_chemical_formula_sum   'Gd19 Ta56 W8 O160'
_cell_volume   3683.94198726
_cell_formula_units_Z   1
loop_
 _symmetry_equiv_pos_site_id
 _symmetry_equiv_pos_as_xyz
  1  'x, y, z'
loop_
 _atom_type_symbol
 _atom_type_oxidation_number
  Gd3+  3.0
  Ta5+  5.0
  W6+  6.0
  O2-  -2.0
loop_
 _atom_site_type_symbol
 _atom_site_label
 _atom_site_symmetry_multiplicity
 _atom_site_fract_x
 _atom_site_fract_y
 _atom_site_fract_z
 _atom_site_occupancy
  Gd3+  Gd0  1  0.25053733  0.75838018  0.00972417  1
  Gd3+  Gd1  1  0.22519327  0.74435798  0.75679800  1
  Gd3+  Gd2  1  0.23856884  0.23163120  0.47854365  1
  Gd3+  Gd3  1  0.74771032  0.25977954  0.73427059  1
  Gd3+  Gd4  1  0.51898481  0.75054469  0.49801123  1
  Gd3+  Gd5  1  0.01348932  0.25104826  0.24537627  1
  Gd3+  Gd6  1  0.02104986  0.73709248  0.24699103  1
  Gd3+  Gd7  1  -0.00255158  0.22680218  0.75616750  1
  Gd3+  Gd8  1  0.23159427  0.75023425  0.50828487  1
  Gd3+  Gd9  1  0.76582999  0.74057823  0.76981229  1
  Gd3+  Gd10  1  0.01040611  0.24793830  -0.00882528  1
  Gd3+  Gd11  1  0.76231905  0.23885083  0.49562196  1
  Gd3+  Gd12  1  0.51635539  0.74366348  0.24846481  1
  Gd3+  Gd13  1  0.48831632  0.25209139  0.74330509  1
  Gd3+  Gd14  1  -0.00582806  0.23944653  0.50159582  1
  Gd3+  Gd15  1  0.24761755  0.26646768  0.73273365  1
  Gd3+  Gd16  1  0.75718567  0.75988448  0.22068491  1
  Gd3+  Gd17  1  0.74103940  0.22114732  0.25800808  1
  Gd3+  Gd18  1  0.50498973  0.24138929  0.25355230  1
  Ta5+  Ta19  1  0.14986182  0.13411826  0.12663727  1
  Ta5+  Ta20  1  0.60758369  0.61975452  0.86719623  1
  Ta5+  Ta21  1  0.09867998  0.62461014  0.08611374  1
  Ta5+  Ta22  1  0.38765824  0.13303837  0.09958444  1
  Ta5+  Ta23  1  0.61452443  0.87533938  0.87075496  1
  Ta5+  Ta24  1  0.89729879  0.64604623  0.61892635  1
  Ta5+  Ta25  1  0.08662053  0.87494437  0.62902265  1
  Ta5+  Ta26  1  0.12428841  0.89759278  0.87863031  1
  Ta5+  Ta27  1  0.65171304  0.87407824  0.38039038  1
  Ta5+  Ta28  1  0.37959207  0.87266360  0.36813887  1
  Ta5+  Ta29  1  0.37057200  0.62913083  0.87969365  1
  Ta5+  Ta30  1  0.61669804  0.37251189  0.88755809  1
  Ta5+  Ta31  1  0.12887074  0.88108271  0.37723858  1
  Ta5+  Ta32  1  0.88106757  0.88536258  0.87917170  1
  Ta5+  Ta33  1  0.62055417  0.88166929  0.11850788  1
  Ta5+  Ta34  1  0.60227445  0.10476256  0.38369243  1
  Ta5+  Ta35  1  0.86227245  0.86809110  0.37384830  1
  Ta5+  Ta36  1  0.37649622  0.37108735  0.36810829  1
  Ta5+  Ta37  1  0.66828758  0.62949500  0.37663044  1
  Ta5+  Ta38  1  0.13550989  0.62485736  0.37794902  1
  Ta5+  Ta39  1  0.09152921  0.39710122  0.62344523  1
  Ta5+  Ta40  1  0.61073175  0.38663142  0.61487973  1
  Ta5+  Ta41  1  0.89316413  0.40750328  0.64295077  1
  Ta5+  Ta42  1  0.37856989  0.87416532  0.62575309  1
  Ta5+  Ta43  1  0.12150733  0.39869562  0.86688923  1
  Ta5+  Ta44  1  0.64798013  0.37986275  0.12918923  1
  Ta5+  Ta45  1  0.39510016  0.62544360  0.63360908  1
  Ta5+  Ta46  1  0.06341507  0.64757924  0.62604164  1
  Ta5+  Ta47  1  0.86313546  0.38785416  0.87760240  1
  Ta5+  Ta48  1  0.14028807  0.38950635  0.11835931  1
  Ta5+  Ta49  1  0.87702093  0.62169883  0.11784583  1
  Ta5+  Ta50  1  0.83621175  0.63861864  0.37762191  1
  Ta5+  Ta51  1  0.12735694  0.11457400  0.62506126  1
  Ta5+  Ta52  1  0.38561857  0.61653568  0.37749754  1
  Ta5+  Ta53  1  0.33857378  0.12813242  0.86744035  1
  Ta5+  Ta54  1  0.89518637  0.88292926  0.12679589  1
  Ta5+  Ta55  1  0.36762868  0.39153746  0.61763578  1
  Ta5+  Ta56  1  0.07803785  0.64203532  0.87635695  1
  Ta5+  Ta57  1  0.38186433  0.36895642  0.11272468  1
  Ta5+  Ta58  1  0.61362776  0.12735591  0.87089021  1
  Ta5+  Ta59  1  0.36199395  0.11692496  0.36127718  1
  Ta5+  Ta60  1  0.12893576  0.39683909  0.37489673  1
  Ta5+  Ta61  1  0.84860002  0.11624976  0.89497315  1
  Ta5+  Ta62  1  0.63925366  0.61697237  0.62936035  1
  Ta5+  Ta63  1  0.63024502  0.11714791  0.62125620  1
  Ta5+  Ta64  1  0.66317130  0.11449701  0.09962674  1
  Ta5+  Ta65  1  0.87940216  0.86508387  0.61758105  1
  Ta5+  Ta66  1  0.17003593  0.14000932  0.87775554  1
  Ta5+  Ta67  1  0.35897231  0.38266614  0.87495562  1
  Ta5+  Ta68  1  0.83372414  0.39638033  0.35504256  1
  Ta5+  Ta69  1  0.37117907  0.88123572  0.87430600  1
  Ta5+  Ta70  1  0.87813884  0.37381862  0.11951391  1
  Ta5+  Ta71  1  0.38080233  0.12235385  0.61599531  1
  Ta5+  Ta72  1  0.62348926  0.87049176  0.63972718  1
  Ta5+  Ta73  1  0.62463198  0.38564153  0.37213526  1
  Ta5+  Ta74  1  0.87360862  0.12004686  0.12017240  1
  W6+  W75  1  0.91356136  0.63457204  0.88369126  1
  W6+  W76  1  0.41742724  0.88169895  0.12397816  1
  W6+  W77  1  0.64402025  0.62623270  0.11577589  1
  W6+  W78  1  0.39131294  0.61925284  0.13172939  1
  W6+  W79  1  0.12863698  0.08696755  0.30343173  1
  W6+  W80  1  0.12587830  0.88783227  0.12401205  1
  W6+  W81  1  0.88148891  0.06846743  0.63712756  1
  W6+  W82  1  0.89008646  0.08722650  0.36974142  1
  O2-  O83  1  0.16913468  0.01648992  0.13411477  1
  O2-  O84  1  0.09604581  -0.00631229  0.39232696  1
  O2-  O85  1  0.13942486  -0.00361293  0.62422364  1
  O2-  O86  1  0.15004627  0.01566715  0.87039651  1
  O2-  O87  1  0.14558116  0.51224739  0.11676230  1
  O2-  O88  1  0.08443318  0.50941329  0.38760524  1
  O2-  O89  1  0.08103788  0.51818692  0.62868807  1
  O2-  O90  1  0.09619790  0.51586003  0.86064360  1
  O2-  O91  1  0.40982841  0.01708525  0.10502866  1
  O2-  O92  1  0.37941613  -0.00359359  0.38010751  1
  O2-  O93  1  0.37701668  -0.00121093  0.61555098  1
  O2-  O94  1  0.34837317  -0.00187815  0.87244224  1
  O2-  O95  1  0.40507905  0.48472457  0.11603479  1
  O2-  O96  1  0.39118567  0.49449471  0.38702228  1
  O2-  O97  1  0.35059212  0.51487171  0.60648452  1
  O2-  O98  1  0.37155383  0.50714548  0.88119730  1
  O2-  O99  1  0.60899287  0.01009450  0.12619699  1
  O2-  O100  1  0.58432204  -0.01315271  0.38413959  1
  O2-  O101  1  0.61575176  0.00079254  0.63878578  1
  O2-  O102  1  0.60991348  0.00878750  0.85500087  1
  O2-  O103  1  0.67121888  0.49370455  0.13381181  1
  O2-  O104  1  0.63352112  0.50538671  0.35800853  1
  O2-  O105  1  0.67167501  0.48994453  0.63199345  1
  O2-  O106  1  0.58537695  0.48729063  0.86038265  1
  O2-  O107  1  0.91589474  0.00773181  0.12768534  1
  O2-  O108  1  0.92969005  -0.03112166  0.36765049  1
  O2-  O109  1  0.80297309  -0.04174314  0.60451258  1
  O2-  O110  1  0.81768373  -0.00209738  0.89105245  1
  O2-  O111  1  0.87034749  0.49230140  0.11866560  1
  O2-  O112  1  0.86748245  0.50819447  0.37653159  1
  O2-  O113  1  0.87134822  0.52181115  0.61528988  1
  O2-  O114  1  0.90563074  0.49755344  0.87584334  1
  O2-  O115  1  0.08815603  0.27106153  0.11456814  1
  O2-  O116  1  0.06528447  0.28993495  0.38269247  1
  O2-  O117  1  0.07972495  0.25620054  0.63150573  1
  O2-  O118  1  0.09169988  0.26709041  0.86299604  1
  O2-  O119  1  0.11045672  0.74570405  0.11368353  1
  O2-  O120  1  0.09819784  0.74813234  0.38082474  1
  O2-  O121  1  0.15634495  0.75797992  0.63016008  1
  O2-  O122  1  0.13333566  0.76314112  0.88319500  1
  O2-  O123  1  0.44539789  0.25122451  0.11931911  1
  O2-  O124  1  0.34271867  0.24859061  0.36785766  1
  O2-  O125  1  0.37289699  0.26070334  0.64164492  1
  O2-  O126  1  0.36946982  0.25876558  0.83757623  1
  O2-  O127  1  0.41046463  0.74736231  0.14645734  1
  O2-  O128  1  0.42032894  0.74609227  0.37385363  1
  O2-  O129  1  0.34020369  0.74304837  0.61615829  1
  O2-  O130  1  0.31988789  0.75360389  0.87558739  1
  O2-  O131  1  0.63885083  0.23181625  0.14128325  1
  O2-  O132  1  0.65315556  0.24720114  0.37766075  1
  O2-  O133  1  0.65302076  0.26786512  0.60196079  1
  O2-  O134  1  0.56148380  0.25770299  0.87698032  1
  O2-  O135  1  0.60769750  0.75833182  0.11421063  1
  O2-  O136  1  0.60649488  0.75324074  0.38128249  1
  O2-  O137  1  0.63406216  0.74192979  0.64369230  1
  O2-  O138  1  0.63906958  0.74870598  0.86374182  1
  O2-  O139  1  0.91705536  0.24181123  0.11520808  1
  O2-  O140  1  0.88140713  0.29804777  0.41337055  1
  O2-  O141  1  0.75393553  0.13875005  0.64645961  1
  O2-  O142  1  0.89071986  0.25483644  0.86647688  1
  O2-  O143  1  0.90097881  0.75312535  0.14146909  1
  O2-  O144  1  0.89320361  0.75050960  0.33390350  1
  O2-  O145  1  0.81716290  0.75691596  0.63134045  1
  O2-  O146  1  0.86002806  0.76431922  0.88195944  1
  O2-  O147  1  0.12608267  0.14926422  0.00200751  1
  O2-  O148  1  0.16848552  0.19813329  0.23996902  1
  O2-  O149  1  0.11501814  0.15276006  0.50523770  1
  O2-  O150  1  0.13251514  0.15007584  0.75011815  1
  O2-  O151  1  0.17048700  0.63245180  -0.01852107  1
  O2-  O152  1  0.13221920  0.63391081  0.25597890  1
  O2-  O153  1  0.12535365  0.64395718  0.50889880  1
  O2-  O154  1  0.09209448  0.66091895  0.75307733  1
  O2-  O155  1  0.39536092  0.14659223  -0.02226022  1
  O2-  O156  1  0.39667799  0.13486318  0.24132443  1
  O2-  O157  1  0.35854638  0.14083856  0.49474623  1
  O2-  O158  1  0.38868737  0.12563554  0.74416123  1
  O2-  O159  1  0.35346826  0.64405954  0.00139271  1
  O2-  O160  1  0.44000221  0.61333775  0.26592340  1
  O2-  O161  1  0.42348874  0.63514293  0.50031061  1
  O2-  O162  1  0.34035473  0.63416394  0.75034960  1
  O2-  O163  1  0.60039091  0.13131561  -0.00702211  1
  O2-  O164  1  0.61752129  0.12703839  0.26292522  1
  O2-  O165  1  0.66185854  0.11955316  0.49616632  1
  O2-  O166  1  0.60645662  0.16059416  0.74251560  1
  O2-  O167  1  0.64120278  0.60837888  -0.02093243  1
  O2-  O168  1  0.64500353  0.65661784  0.25099107  1
  O2-  O169  1  0.62867129  0.62807435  0.50530189  1
  O2-  O170  1  0.67783346  0.61394932  0.76142471  1
  O2-  O171  1  0.93165972  0.12081241  -0.01011139  1
  O2-  O172  1  0.88142786  0.16740706  0.25855507  1
  O2-  O173  1  0.87637105  0.12821598  0.49735458  1
  O2-  O174  1  0.90301715  0.10386539  0.78286165  1
  O2-  O175  1  0.83600794  0.63366594  0.00539727  1
  O2-  O176  1  0.82386997  0.62539251  0.23395946  1
  O2-  O177  1  0.87256896  0.65586241  0.49311019  1
  O2-  O178  1  0.88012801  0.64715309  0.75056036  1
  O2-  O179  1  0.09824081  0.38904931  -0.00266828  1
  O2-  O180  1  0.10552239  0.38736644  0.24287694  1
  O2-  O181  1  0.14935541  0.37484251  0.50646245  1
  O2-  O182  1  0.15550544  0.38309101  0.73638494  1
  O2-  O183  1  0.17225713  0.88672326  -0.00725457  1
  O2-  O184  1  0.09462814  0.86864271  0.25798468  1
  O2-  O185  1  0.12778236  0.86312350  0.50927239  1
  O2-  O186  1  0.13143787  0.87326801  0.74852365  1
  O2-  O187  1  0.40373679  0.35832885  -0.01187635  1
  O2-  O188  1  0.39092862  0.35676114  0.24117036  1
  O2-  O189  1  0.34814879  0.35939013  0.49835992  1
  O2-  O190  1  0.33740968  0.39462273  0.74215267  1
  O2-  O191  1  0.36267814  0.86237777  -0.00363514  1
  O2-  O192  1  0.44655925  0.87950602  0.26514706  1
  O2-  O193  1  0.40804918  0.85882435  0.49643953  1
  O2-  O194  1  0.33681461  0.86399972  0.74586453  1
  O2-  O195  1  0.59801386  0.37228236  0.01575467  1
  O2-  O196  1  0.57984020  0.36814312  0.23434006  1
  O2-  O197  1  0.58659279  0.39891352  0.49663282  1
  O2-  O198  1  0.62863586  0.34823148  0.75105764  1
  O2-  O199  1  0.64046149  0.88742945  -0.01182456  1
  O2-  O200  1  0.64261716  0.87166848  0.24874873  1
  O2-  O201  1  0.62727492  0.86514296  0.51472018  1
  O2-  O202  1  0.67883087  0.87535843  0.75627930  1
  O2-  O203  1  0.91071460  0.36438433  -0.00214307  1
  O2-  O204  1  0.90652243  0.36479183  0.24581990  1
  O2-  O205  1  0.82997311  0.30490180  0.60797884  1
  O2-  O206  1  0.82293903  0.38808351  0.75403717  1
  O2-  O207  1  0.87004741  0.87961575  0.00850085  1
  O2-  O208  1  0.83624633  0.88506416  0.24080944  1
  O2-  O209  1  0.89219626  0.84800158  0.49363218  1
  O2-  O210  1  0.86804829  0.87505459  0.75342803  1
  O2-  O211  1  0.00064984  -0.09869101  -0.11946596  1
  O2-  O212  1  0.03619387  0.11503342  0.19010323  1
  O2-  O213  1  -0.01908000  -0.05355382  0.63289627  1
  O2-  O214  1  -0.00660950  -0.22630090  0.62640872  1
  O2-  O215  1  0.00814531  0.63495352  -0.00392137  1
  O2-  O216  1  -0.00486441  0.60978700  0.16175970  1
  O2-  O217  1  -0.01913785  0.38190072  0.55040786  1
  O2-  O218  1  -0.01079013  0.37598436  0.71872662  1
  O2-  O219  1  0.27193839  0.16346076  0.10463620  1
  O2-  O220  1  0.24117765  0.11341322  0.37881904  1
  O2-  O221  1  0.25649087  -0.15262151  0.38341438  1
  O2-  O222  1  0.24954933  0.15583899  0.62295146  1
  O2-  O223  1  0.25863642  0.36123686  0.11171237  1
  O2-  O224  1  0.24687409  0.39477370  0.35392506  1
  O2-  O225  1  0.26395630  0.64105774  0.39441843  1
  O2-  O226  1  0.23977061  0.37046113  0.89360519  1
  O2-  O227  1  0.49329295  -0.13461630  -0.14105628  1
  O2-  O228  1  0.49155349  0.15143450  0.38921180  1
  O2-  O229  1  0.50619362  0.14784655  0.60604955  1
  O2-  O230  1  0.50074575  -0.14454846  0.64904919  1
  O2-  O231  1  0.48983447  0.65180933  -0.13906340  1
  O2-  O232  1  0.49945792  0.34149867  0.37310574  1
  O2-  O233  1  0.49242865  0.38653937  0.65046828  1
  O2-  O234  1  0.51255322  0.60570519  0.65794918  1
  O2-  O235  1  0.77624947  0.13309062  0.02739187  1
  O2-  O236  1  0.76287716  0.09380305  0.17930005  1
  O2-  O237  1  0.75463009  -0.06232074  0.39548694  1
  O2-  O238  1  0.73483111  0.16455047  0.85690737  1
  O2-  O239  1  0.76353711  0.33360243  0.10942975  1
  O2-  O240  1  0.73422538  0.37235940  0.27714661  1
  O2-  O241  1  0.73836661  0.38159229  0.44147658  1
  O2-  O242  1  0.73744010  0.36423920  0.90117299  1
