# generated using pymatgen
data_Gd19Ta56(WO20)8
_symmetry_space_group_name_H-M   'P 1'
_cell_length_a   15.48469175
_cell_length_b   15.47701862
_cell_length_c   15.28147529
_cell_angle_alpha   90.15942797
_cell_angle_beta   90.08236717
_cell_angle_gamma   90.03615051
_symmetry_Int_Tables_number   1
_chemical_formula_structural   Gd19Ta56(WO20)8
_chemical_formula_sum   'Gd19 Ta56 W8 O160'
_cell_volume   3662.29172362
_cell_formula_units_Z   1
loop_
 _symmetry_equiv_pos_site_id
 _symmetry_equiv_pos_as_xyz
  1  'x, y, z'
loop_
 _atom_type_symbol
 _atom_type_oxidation_number
  Gd3+  3.0
  Ta5+  5.0
  W6+  6.0
  O2-  -2.0
loop_
 _atom_site_type_symbol
 _atom_site_label
 _atom_site_symmetry_multiplicity
 _atom_site_fract_x
 _atom_site_fract_y
 _atom_site_fract_z
 _atom_site_occupancy
  Gd3+  Gd0  1  -0.02408278  0.74332395  0.23895693  1
  Gd3+  Gd1  1  0.49301629  0.76253419  0.73056686  1
  Gd3+  Gd2  1  0.25436551  0.74936283  0.48290788  1
  Gd3+  Gd3  1  0.49162212  0.75553828  0.01159113  1
  Gd3+  Gd4  1  0.22509942  0.25625425  0.75553200  1
  Gd3+  Gd5  1  0.48137142  0.75282557  0.49436135  1
  Gd3+  Gd6  1  0.23491399  0.24566472  0.50792170  1
  Gd3+  Gd7  1  -0.01392002  0.26722379  0.76236479  1
  Gd3+  Gd8  1  -0.02789832  0.26905193  0.01319583  1
  Gd3+  Gd9  1  -0.01577879  0.76124186  0.72350039  1
  Gd3+  Gd10  1  0.51752362  0.72592330  0.23602956  1
  Gd3+  Gd11  1  0.75546102  0.22728128  0.74916639  1
  Gd3+  Gd12  1  -0.00754629  0.75355991  0.00215827  1
  Gd3+  Gd13  1  0.78721697  0.74693768  0.51877969  1
  Gd3+  Gd14  1  0.25065526  0.74793610  0.74622957  1
  Gd3+  Gd15  1  0.49791380  0.24194166  0.23511370  1
  Gd3+  Gd16  1  -0.00536246  0.27011523  0.25361528  1
  Gd3+  Gd17  1  0.73709890  0.77908143  0.00669569  1
  Gd3+  Gd18  1  0.51053697  0.24974010  0.49600449  1
  Ta5+  Ta19  1  0.37679311  0.37516252  0.63683371  1
  Ta5+  Ta20  1  0.37862815  0.37422189  0.37419908  1
  Ta5+  Ta21  1  0.62752094  0.36910735  0.87979851  1
  Ta5+  Ta22  1  0.82739306  0.36694771  0.37663591  1
  Ta5+  Ta23  1  0.65704146  0.36765146  0.37709093  1
  Ta5+  Ta24  1  0.66578852  0.36842773  0.12951368  1
  Ta5+  Ta25  1  0.14313750  0.15103532  0.13152171  1
  Ta5+  Ta26  1  0.85990540  0.59230317  0.11833834  1
  Ta5+  Ta27  1  0.37868916  0.92421411  0.61872849  1
  Ta5+  Ta28  1  0.08786177  0.11877080  0.62962516  1
  Ta5+  Ta29  1  0.08330204  0.38398569  0.61974946  1
  Ta5+  Ta30  1  0.87295958  0.12640167  0.38385405  1
  Ta5+  Ta31  1  0.35707443  0.13021528  0.37031300  1
  Ta5+  Ta32  1  0.63052613  0.61955706  0.86592505  1
  Ta5+  Ta33  1  0.62640751  0.61270938  0.61525318  1
  Ta5+  Ta34  1  0.63845206  0.93691752  0.13630287  1
  Ta5+  Ta35  1  0.36499639  0.13719262  0.88215085  1
  Ta5+  Ta36  1  0.13429962  0.37892150  0.37311984  1
  Ta5+  Ta37  1  0.62441132  0.36786697  0.63595811  1
  Ta5+  Ta38  1  0.10760864  0.39025127  0.89128915  1
  Ta5+  Ta39  1  0.16101066  0.62418898  0.93505316  1
  Ta5+  Ta40  1  0.62926338  0.12867165  0.10884142  1
  Ta5+  Ta41  1  0.38040716  0.37712022  0.87769989  1
  Ta5+  Ta42  1  0.62903235  0.11520007  0.37401417  1
  Ta5+  Ta43  1  0.89237419  0.11407084  0.13440865  1
  Ta5+  Ta44  1  0.90776300  0.94609233  0.61678848  1
  Ta5+  Ta45  1  0.14116871  0.55516532  0.13360325  1
  Ta5+  Ta46  1  0.10211831  0.13014636  0.38564834  1
  Ta5+  Ta47  1  0.12461242  0.88251126  0.36789517  1
  Ta5+  Ta48  1  0.63109389  0.86649318  0.36635123  1
  Ta5+  Ta49  1  0.59414367  0.12299332  0.85583631  1
  Ta5+  Ta50  1  0.35993319  0.11702233  0.63238839  1
  Ta5+  Ta51  1  0.86832298  0.61719346  0.86427447  1
  Ta5+  Ta52  1  0.82712513  0.94909214  0.16310091  1
  Ta5+  Ta53  1  0.87248425  0.39250857  0.61690697  1
  Ta5+  Ta54  1  0.12410575  0.88431012  0.87715084  1
  Ta5+  Ta55  1  0.13484760  0.90378222  0.12933138  1
  Ta5+  Ta56  1  0.88118671  0.87646431  0.37902902  1
  Ta5+  Ta57  1  0.63240783  0.60748520  0.37924168  1
  Ta5+  Ta58  1  0.14212312  0.88394410  0.62046693  1
  Ta5+  Ta59  1  0.83264420  0.37830444  0.13817814  1
  Ta5+  Ta60  1  0.08317298  0.12473145  0.88710905  1
  Ta5+  Ta61  1  0.64821113  0.57537709  0.13488473  1
  Ta5+  Ta62  1  0.12000538  0.62366199  0.36344049  1
  Ta5+  Ta63  1  0.38961552  0.61806101  0.87969349  1
  Ta5+  Ta64  1  0.38295043  0.89088700  0.36542161  1
  Ta5+  Ta65  1  0.37003205  0.89003537  0.87166556  1
  Ta5+  Ta66  1  0.34724027  0.56592581  0.11186361  1
  Ta5+  Ta67  1  0.38555178  0.60293497  0.62021178  1
  Ta5+  Ta68  1  0.86699451  0.87640632  0.86624153  1
  Ta5+  Ta69  1  0.31185686  0.14993669  0.11981055  1
  Ta5+  Ta70  1  0.13466798  0.61322963  0.61625940  1
  Ta5+  Ta71  1  0.87349108  0.60273708  0.37480834  1
  Ta5+  Ta72  1  0.34262156  0.35206667  0.12245817  1
  Ta5+  Ta73  1  0.17550279  0.35054277  0.12875679  1
  Ta5+  Ta74  1  0.89932943  0.59322965  0.62997934  1
  W6+  W75  1  0.62965550  0.87075503  0.61893737  1
  W6+  W76  1  0.61037412  0.87869463  0.88449056  1
  W6+  W77  1  0.60912257  0.10876553  0.64483167  1
  W6+  W78  1  0.93111987  0.14960201  0.59103495  1
  W6+  W79  1  0.91588692  0.11883857  0.87219777  1
  W6+  W80  1  0.84872964  0.37893018  0.88116974  1
  W6+  W81  1  0.37050049  0.90993423  0.12494589  1
  W6+  W82  1  0.37501653  0.62283215  0.35594284  1
  O2-  O83  1  0.13120939  0.02111862  0.13927239  1
  O2-  O84  1  0.11013826  0.00262396  0.37527058  1
  O2-  O85  1  0.14137123  0.00001676  0.64248831  1
  O2-  O86  1  0.12727694  0.00285106  0.86018776  1
  O2-  O87  1  0.07932916  0.45721315  0.13251513  1
  O2-  O88  1  0.13155571  0.50221942  0.35116477  1
  O2-  O89  1  0.14964459  0.49256632  0.62954442  1
  O2-  O90  1  0.12646871  0.52080884  0.88358733  1
  O2-  O91  1  0.32630014  0.02901109  0.10994438  1
  O2-  O92  1  0.39400492  0.01658291  0.39330266  1
  O2-  O93  1  0.44788797  0.03206507  0.64635295  1
  O2-  O94  1  0.36024719  0.00980709  0.87493236  1
  O2-  O95  1  0.41250569  0.47024258  0.09645840  1
  O2-  O96  1  0.38846849  0.49176111  0.37498138  1
  O2-  O97  1  0.33638972  0.49130417  0.60899438  1
  O2-  O98  1  0.35881130  0.50089315  0.89376261  1
  O2-  O99  1  0.55492274  0.02185749  0.11494368  1
  O2-  O100  1  0.62799176  -0.00850635  0.37274718  1
  O2-  O101  1  0.64705806  -0.00566183  0.61347118  1
  O2-  O102  1  0.57633302  0.00575689  0.87316021  1
  O2-  O103  1  0.59283341  0.48028000  0.09216040  1
  O2-  O104  1  0.62302375  0.48906628  0.40314733  1
  O2-  O105  1  0.64115752  0.49160038  0.62238204  1
  O2-  O106  1  0.64529963  0.50063970  0.88097728  1
  O2-  O107  1  0.94185344  -0.00061629  0.13418365  1
  O2-  O108  1  0.86872431  -0.00405785  0.38008051  1
  O2-  O109  1  0.84501673  0.03864248  0.57540641  1
  O2-  O110  1  0.87379062  -0.00667602  0.87766753  1
  O2-  O111  1  0.91212508  0.48650693  0.10609809  1
  O2-  O112  1  0.88293552  0.48458354  0.39024879  1
  O2-  O113  1  0.81617034  0.50476464  0.64451433  1
  O2-  O114  1  0.82946992  0.50477888  0.84954270  1
  O2-  O115  1  0.07219664  0.26234546  0.12058771  1
  O2-  O116  1  0.09826030  0.25663667  0.40191377  1
  O2-  O117  1  0.14235003  0.26431706  0.62449699  1
  O2-  O118  1  0.09419089  0.25765592  0.88602417  1
  O2-  O119  1  0.04203000  0.81786286  0.13008803  1
  O2-  O120  1  0.15706704  0.74740885  0.36944989  1
  O2-  O121  1  0.17538316  0.74287370  0.60686705  1
  O2-  O122  1  0.10770295  0.73018855  0.89861387  1
  O2-  O123  1  0.40681285  0.24594727  0.11334135  1
  O2-  O124  1  0.42642829  0.24432630  0.37168759  1
  O2-  O125  1  0.32363803  0.25666366  0.64060841  1
  O2-  O126  1  0.34972382  0.25802166  0.84158814  1
  O2-  O127  1  0.44071961  0.79968689  0.14239354  1
  O2-  O128  1  0.36845844  0.76203731  0.36034479  1
  O2-  O129  1  0.36434026  0.72737066  0.64615715  1
  O2-  O130  1  0.41255369  0.75369746  0.86299220  1
  O2-  O131  1  0.61968619  0.25341498  0.12879760  1
  O2-  O132  1  0.60031854  0.24827932  0.37172648  1
  O2-  O133  1  0.65088694  0.24291590  0.64361577  1
  O2-  O134  1  0.64871548  0.24690668  0.85920404  1
  O2-  O135  1  0.57339241  0.67241050  0.10537396  1
  O2-  O136  1  0.63764814  0.74065496  0.34466030  1
  O2-  O137  1  0.58534590  0.73725637  0.60654464  1
  O2-  O138  1  0.61333798  0.73935225  0.91670706  1
  O2-  O139  1  0.89287029  0.25039202  0.14306024  1
  O2-  O140  1  0.87763689  0.25345104  0.37831612  1
  O2-  O141  1  0.97345146  0.30190169  0.61196939  1
  O2-  O142  1  0.89705724  0.25325561  0.88145464  1
  O2-  O143  1  0.91233082  0.70689125  0.11650469  1
  O2-  O144  1  0.85384171  0.74784296  0.38445422  1
  O2-  O145  1  0.85558732  0.70873628  0.64770009  1
  O2-  O146  1  0.90339592  0.74306666  0.84438449  1
  O2-  O147  1  0.10798155  0.13172475  0.00668989  1
  O2-  O148  1  0.09696058  0.15232712  0.26160930  1
  O2-  O149  1  0.14543938  0.12820077  0.51731105  1
  O2-  O150  1  0.11207107  0.15327284  0.75345890  1
  O2-  O151  1  0.08324856  0.62919950  0.04116879  1
  O2-  O152  1  0.10363746  0.63062111  0.22826282  1
  O2-  O153  1  0.16409211  0.61881451  0.48720162  1
  O2-  O154  1  0.16111794  0.63559930  0.73475817  1
  O2-  O155  1  0.30585172  0.15483973  -0.01503052  1
  O2-  O156  1  0.36817764  0.14477506  0.24691607  1
  O2-  O157  1  0.36995321  0.16460113  0.50777686  1
  O2-  O158  1  0.31273787  0.12483716  0.75163295  1
  O2-  O159  1  0.38882546  0.64042788  0.01703906  1
  O2-  O160  1  0.39235892  0.62048157  0.21298408  1
  O2-  O161  1  0.36402741  0.64511577  0.49799581  1
  O2-  O162  1  0.40043531  0.60474633  0.75316201  1
  O2-  O163  1  0.63860498  0.12975759  -0.01121960  1
  O2-  O164  1  0.59960234  0.12898609  0.24978313  1
  O2-  O165  1  0.58158090  0.12369269  0.49403576  1
  O2-  O166  1  0.68671709  0.10383135  0.76746814  1
  O2-  O167  1  0.51160462  0.60899777  -0.09417703  1
  O2-  O168  1  0.60862678  0.58936589  0.25085063  1
  O2-  O169  1  0.67832721  0.63630348  0.50301996  1
  O2-  O170  1  0.60857210  0.63529494  0.74652244  1
  O2-  O171  1  0.90876691  0.13031875  0.01201174  1
  O2-  O172  1  0.91025103  0.12903319  0.26575569  1
  O2-  O173  1  0.98342184  0.12354884  0.44809359  1
  O2-  O174  1  0.88845988  0.16123369  0.72889030  1
  O2-  O175  1  0.90751726  0.61556743  -0.01934255  1
  O2-  O176  1  0.88926150  0.60937541  0.24284428  1
  O2-  O177  1  0.87088564  0.61796298  0.50542996  1
  O2-  O178  1  0.94159514  0.60680943  0.75618793  1
  O2-  O179  1  0.16117452  0.37829728  -0.00024252  1
  O2-  O180  1  0.13202919  0.34651183  0.25320117  1
  O2-  O181  1  0.10121510  0.39299890  0.49880104  1
  O2-  O182  1  0.10357560  0.37206578  0.75454437  1
  O2-  O183  1  0.14419156  0.88185995  0.00106585  1
  O2-  O184  1  0.16214545  0.87641864  0.25055278  1
  O2-  O185  1  0.16512188  0.87555188  0.49348874  1
  O2-  O186  1  0.12161992  0.83529775  0.74876430  1
  O2-  O187  1  0.34178662  0.35419688  -0.01140554  1
  O2-  O188  1  0.38012046  0.35741878  0.24898478  1
  O2-  O189  1  0.38975913  0.35130596  0.50882468  1
  O2-  O190  1  0.32657565  0.39181489  0.75505320  1
  O2-  O191  1  0.40776025  0.87972310  -0.01056994  1
  O2-  O192  1  0.33877972  0.91344741  0.25693562  1
  O2-  O193  1  0.35533509  0.86432330  0.50073865  1
  O2-  O194  1  0.40503673  0.88496985  0.74848463  1
  O2-  O195  1  0.66557678  0.36309339  -0.00601514  1
  O2-  O196  1  0.63848093  0.38063936  0.25376169  1
  O2-  O197  1  0.61891387  0.35161254  0.51054308  1
  O2-  O198  1  0.67347029  0.37580176  0.75633515  1
  O2-  O199  1  0.60551264  0.86189590  0.03091500  1
  O2-  O200  1  0.59919796  0.86282244  0.23190670  1
  O2-  O201  1  0.67317848  0.84634002  0.48516050  1
  O2-  O202  1  0.59816216  0.85300049  0.74886198  1
  O2-  O203  1  0.85082995  0.35645701  0.01440665  1
  O2-  O204  1  0.87841392  0.37499548  0.25777050  1
  O2-  O205  1  0.81964117  0.36371814  0.51235341  1
  O2-  O206  1  0.86067309  0.35025209  0.73763978  1
  O2-  O207  1  0.87237953  0.83206763  -0.01384175  1
  O2-  O208  1  0.88522753  0.86395243  0.24861947  1
  O2-  O209  1  0.87402330  0.87057759  0.51490845  1
  O2-  O210  1  0.89082201  0.88284748  0.72929033  1
  O2-  O211  1  0.00356880  -0.13086193  -0.12058580  1
  O2-  O212  1  0.00651936  -0.15177912  0.37125428  1
  O2-  O213  1  0.01874115  -0.13925623  0.61105721  1
  O2-  O214  1  -0.01102195  0.03445490  0.65377838  1
  O2-  O215  1  -0.01182898  0.39844220  -0.09661149  1
  O2-  O216  1  0.00052391  0.64454212  0.37472646  1
  O2-  O217  1  0.01878081  0.64843455  0.60839729  1
  O2-  O218  1  -0.02231646  0.47095513  0.62192002  1
  O2-  O219  1  0.25367788  -0.14739197  -0.14047768  1
  O2-  O220  1  0.23742652  0.14372751  0.37903896  1
  O2-  O221  1  0.30363534  0.02076825  0.57996640  1
  O2-  O222  1  0.26666592  -0.12563389  0.65773914  1
  O2-  O223  1  0.23344021  0.58257307  0.03797683  1
  O2-  O224  1  0.25074122  0.48155189  0.16201516  1
  O2-  O225  1  0.25538317  0.34559676  0.39251717  1
  O2-  O226  1  0.26762915  0.65994369  0.87857233  1
  O2-  O227  1  0.47863214  0.15548034  -0.08617550  1
  O2-  O228  1  0.50688141  -0.13779822  0.39585790  1
  O2-  O229  1  0.48836729  -0.13507383  0.59880309  1
  O2-  O230  1  0.52949175  0.14962206  0.74976918  1
  O2-  O231  1  0.50338163  0.37234051  -0.12209893  1
  O2-  O232  1  0.50937098  0.64585923  0.39148850  1
  O2-  O233  1  0.50243902  0.58880879  0.59565800  1
  O2-  O234  1  0.49794903  0.36830606  0.65492548  1
  O2-  O235  1  0.75016733  -0.07456127  0.06527811  1
  O2-  O236  1  0.72616020  -0.01740721  0.22365359  1
  O2-  O237  1  0.74771035  0.13121963  0.38416472  1
  O2-  O238  1  0.74703325  -0.14683730  0.87245129  1
  O2-  O239  1  0.74590842  0.64062376  0.07563037  1
  O2-  O240  1  0.75494890  0.49716995  0.15571656  1
  O2-  O241  1  0.75406564  0.60446787  0.35137903  1
  O2-  O242  1  0.75198882  0.65968476  0.88490886  1
