# generated using pymatgen
data_Gd19Ta56(WO20)8
_symmetry_space_group_name_H-M   'P 1'
_cell_length_a   15.64434738
_cell_length_b   15.42250609
_cell_length_c   15.17681563
_cell_angle_alpha   89.92670157
_cell_angle_beta   89.66278300
_cell_angle_gamma   90.11906422
_symmetry_Int_Tables_number   1
_chemical_formula_structural   Gd19Ta56(WO20)8
_chemical_formula_sum   'Gd19 Ta56 W8 O160'
_cell_volume   3661.71245838
_cell_formula_units_Z   1
loop_
 _symmetry_equiv_pos_site_id
 _symmetry_equiv_pos_as_xyz
  1  'x, y, z'
loop_
 _atom_type_symbol
 _atom_type_oxidation_number
  Gd3+  3.0
  Ta5+  5.0
  W6+  6.0
  O2-  -2.0
loop_
 _atom_site_type_symbol
 _atom_site_label
 _atom_site_symmetry_multiplicity
 _atom_site_fract_x
 _atom_site_fract_y
 _atom_site_fract_z
 _atom_site_occupancy
  Gd3+  Gd0  1  0.25502139  0.23742615  0.75397220  1
  Gd3+  Gd1  1  0.00594956  0.26581129  0.23740837  1
  Gd3+  Gd2  1  0.31736055  0.76642521  0.81996329  1
  Gd3+  Gd3  1  0.02240650  0.27854494  0.00513571  1
  Gd3+  Gd4  1  0.51053212  0.25486299  0.24024036  1
  Gd3+  Gd5  1  0.26113303  0.29609612  0.02575642  1
  Gd3+  Gd6  1  0.26138601  0.23506094  0.51354989  1
  Gd3+  Gd7  1  0.53077973  0.74728007  0.72201991  1
  Gd3+  Gd8  1  0.00363439  0.76048199  0.73295291  1
  Gd3+  Gd9  1  -0.00185513  0.75558385  0.50445029  1
  Gd3+  Gd10  1  0.48934197  0.75820714  0.25706403  1
  Gd3+  Gd11  1  0.51821000  0.23546590  -0.01003500  1
  Gd3+  Gd12  1  0.25156719  0.73416474  0.27069570  1
  Gd3+  Gd13  1  0.75309824  0.25621013  0.52371727  1
  Gd3+  Gd14  1  0.03428808  0.23170712  0.48618866  1
  Gd3+  Gd15  1  0.77349566  0.76634461  0.43330798  1
  Gd3+  Gd16  1  0.00732574  0.75473501  0.00304921  1
  Gd3+  Gd17  1  0.71948279  0.23021058  0.76549797  1
  Gd3+  Gd18  1  0.21441538  0.65810948  0.02660996  1
  Ta5+  Ta19  1  0.89609576  0.62392076  0.14236938  1
  Ta5+  Ta20  1  0.16757883  0.63430242  0.60835163  1
  Ta5+  Ta21  1  0.38748713  0.62290382  0.40558876  1
  Ta5+  Ta22  1  0.87977742  0.38517848  0.37330177  1
  Ta5+  Ta23  1  0.83572076  0.63786096  0.61821259  1
  Ta5+  Ta24  1  0.12786652  0.38510518  0.86041167  1
  Ta5+  Ta25  1  0.61542918  0.62952486  0.13239291  1
  Ta5+  Ta26  1  0.60918406  0.63061020  0.38731617  1
  Ta5+  Ta27  1  0.34135110  0.38277424  0.21537896  1
  Ta5+  Ta28  1  0.14401287  0.11375930  0.13183064  1
  Ta5+  Ta29  1  0.14795565  0.88285316  0.84969144  1
  Ta5+  Ta30  1  0.87698158  0.88048547  0.87361659  1
  Ta5+  Ta31  1  0.35578399  0.11106474  0.90064176  1
  Ta5+  Ta32  1  0.83731753  0.87321095  0.61933095  1
  Ta5+  Ta33  1  0.15540090  0.88394000  0.62242313  1
  Ta5+  Ta34  1  0.89923326  0.62918842  0.35307132  1
  Ta5+  Ta35  1  0.66198268  0.38396712  0.12700234  1
  Ta5+  Ta36  1  0.11898523  0.87392482  0.36971038  1
  Ta5+  Ta37  1  0.10870276  0.39921982  0.61957181  1
  Ta5+  Ta38  1  0.59172923  0.11282870  0.60405003  1
  Ta5+  Ta39  1  0.57886560  0.42184806  0.81940073  1
  Ta5+  Ta40  1  0.38785579  0.60636905  0.13701336  1
  Ta5+  Ta41  1  0.39092031  0.92648058  0.93170395  1
  Ta5+  Ta42  1  0.36578062  0.87602000  0.38750616  1
  Ta5+  Ta43  1  0.88075380  0.11558234  0.64050614  1
  Ta5+  Ta44  1  0.88604023  0.37867576  0.86578918  1
  Ta5+  Ta45  1  0.37494476  0.56537517  0.88315060  1
  Ta5+  Ta46  1  0.63659367  0.38629159  0.37173231  1
  Ta5+  Ta47  1  0.60039773  0.38080998  0.61901511  1
  Ta5+  Ta48  1  0.90737763  0.40828200  0.62142372  1
  Ta5+  Ta49  1  0.34268531  0.62834031  0.64611241  1
  Ta5+  Ta50  1  0.38091571  0.37245747  0.87934586  1
  Ta5+  Ta51  1  0.89214411  0.12409485  0.86830110  1
  Ta5+  Ta52  1  0.08619659  0.11375623  0.66616725  1
  Ta5+  Ta53  1  0.87698905  0.62556203  0.87373906  1
  Ta5+  Ta54  1  0.63606270  0.86578540  0.87461624  1
  Ta5+  Ta55  1  0.41187828  0.37517504  0.44178673  1
  Ta5+  Ta56  1  0.11913000  0.12356191  0.90322335  1
  Ta5+  Ta57  1  0.15860150  0.86602940  0.11330355  1
  Ta5+  Ta58  1  0.32712630  0.86129673  0.11286552  1
  Ta5+  Ta59  1  0.07153513  0.62343581  0.18061528  1
  Ta5+  Ta60  1  0.87798761  0.12613932  0.37071208  1
  Ta5+  Ta61  1  0.35238193  0.11327250  0.15207396  1
  Ta5+  Ta62  1  0.64176013  0.12943152  0.36791113  1
  Ta5+  Ta63  1  0.32012012  0.87763473  0.63234985  1
  Ta5+  Ta64  1  0.63924373  0.87623112  0.12466517  1
  Ta5+  Ta65  1  0.64610762  0.64084862  0.87795445  1
  Ta5+  Ta66  1  0.14312228  0.62519709  0.42494859  1
  Ta5+  Ta67  1  0.56571951  0.08331792  0.81264419  1
  Ta5+  Ta68  1  0.15744244  0.11797271  0.33404576  1
  Ta5+  Ta69  1  0.14537106  0.62841666  0.82250782  1
  Ta5+  Ta70  1  0.90939122  0.88505709  0.13520211  1
  Ta5+  Ta71  1  0.64005276  0.06560741  0.13383291  1
  Ta5+  Ta72  1  0.61215329  0.89345345  0.37045231  1
  Ta5+  Ta73  1  0.86371871  0.12941244  0.11693992  1
  Ta5+  Ta74  1  0.14922841  0.38578088  0.36415794  1
  W6+  W75  1  0.38704747  0.38093369  0.64223867  1
  W6+  W76  1  0.11322752  0.42401855  0.12535093  1
  W6+  W77  1  0.94717404  0.88816879  0.36228507  1
  W6+  W78  1  0.84811613  0.37984053  0.11511179  1
  W6+  W79  1  0.67473302  0.63118943  0.61133879  1
  W6+  W80  1  0.67422129  0.87198344  0.61071892  1
  W6+  W81  1  0.39893357  0.11125711  0.41007284  1
  W6+  W82  1  0.38397246  0.10502888  0.63879382  1
  O2-  O83  1  0.15539699  -0.00385012  0.12183201  1
  O2-  O84  1  0.14334130  -0.00001830  0.34732285  1
  O2-  O85  1  0.14591457  0.01676024  0.63635551  1
  O2-  O86  1  0.12397077  0.00536426  0.88781166  1
  O2-  O87  1  0.14658090  0.55490243  0.10197975  1
  O2-  O88  1  0.14637342  0.49742614  0.41117184  1
  O2-  O89  1  0.17295483  0.49958595  0.60920456  1
  O2-  O90  1  0.14495326  0.50140845  0.83362055  1
  O2-  O91  1  0.34511050  -0.00574850  0.13802136  1
  O2-  O92  1  0.35438466  -0.00622177  0.36569917  1
  O2-  O93  1  0.37874422  -0.02150080  0.66088609  1
  O2-  O94  1  0.29803502  0.01291420  0.94824025  1
  O2-  O95  1  0.39867645  0.48202174  0.16665827  1
  O2-  O96  1  0.40933957  0.50041039  0.41187546  1
  O2-  O97  1  0.37955669  0.51522791  0.65797498  1
  O2-  O98  1  0.30298950  0.46337117  0.91464132  1
  O2-  O99  1  0.55724721  -0.03248263  0.14629734  1
  O2-  O100  1  0.59301933  0.02065161  0.38614665  1
  O2-  O101  1  0.61952391  -0.00197433  0.59496991  1
  O2-  O102  1  0.62129641  -0.01204898  0.87111277  1
  O2-  O103  1  0.63716699  0.50845188  0.12969017  1
  O2-  O104  1  0.60761694  0.49994602  0.39928748  1
  O2-  O105  1  0.63751684  0.49363389  0.61510448  1
  O2-  O106  1  0.64136308  0.51633485  0.86937281  1
  O2-  O107  1  0.90508730  0.01604626  0.11661727  1
  O2-  O108  1  0.93768465  0.02778144  0.38003473  1
  O2-  O109  1  0.83847512  0.00470010  0.61789808  1
  O2-  O110  1  0.90991441  0.00000256  0.87640962  1
  O2-  O111  1  0.84754885  0.51481580  0.12419755  1
  O2-  O112  1  0.90066412  0.50208416  0.39007776  1
  O2-  O113  1  0.85264221  0.51683996  0.59899339  1
  O2-  O114  1  0.85795942  0.50225537  0.87030696  1
  O2-  O115  1  0.10770913  0.27572776  0.12665651  1
  O2-  O116  1  0.11497365  0.25821388  0.34236115  1
  O2-  O117  1  0.15013802  0.20825380  0.61937860  1
  O2-  O118  1  0.15660320  0.25817011  0.90566105  1
  O2-  O119  1  0.11421406  0.73089553  0.11071558  1
  O2-  O120  1  0.11135335  0.74763569  0.40204428  1
  O2-  O121  1  0.12649061  0.75889099  0.62613084  1
  O2-  O122  1  0.15799297  0.75754198  0.82112586  1
  O2-  O123  1  0.36802458  0.27161809  0.16944074  1
  O2-  O124  1  0.39331915  0.25069741  0.43167802  1
  O2-  O125  1  0.34813253  0.24087252  0.63627280  1
  O2-  O126  1  0.33233079  0.24131271  0.88952867  1
  O2-  O127  1  0.31727714  0.71534495  0.12357795  1
  O2-  O128  1  0.41340753  0.74717475  0.38493621  1
  O2-  O129  1  0.35768697  0.76169029  0.67132503  1
  O2-  O130  1  0.26699248  0.63903924  0.88904708  1
  O2-  O131  1  0.57099179  0.30013878  0.10857566  1
  O2-  O132  1  0.60203033  0.25135722  0.36344170  1
  O2-  O133  1  0.63138198  0.24587536  0.63246243  1
  O2-  O134  1  0.60120373  0.18492752  0.86605818  1
  O2-  O135  1  0.63886690  0.75530399  0.15857584  1
  O2-  O136  1  0.61075235  0.76039800  0.37536570  1
  O2-  O137  1  0.62287748  0.75225640  0.60371888  1
  O2-  O138  1  0.57588411  0.74819982  0.86912637  1
  O2-  O139  1  0.91849264  0.24378189  0.10516997  1
  O2-  O140  1  0.92937725  0.25311251  0.38099501  1
  O2-  O141  1  0.81712671  0.22320375  0.64824636  1
  O2-  O142  1  0.83989095  0.26159574  0.85918352  1
  O2-  O143  1  0.90786465  0.75317481  0.13384054  1
  O2-  O144  1  0.93523723  0.74814024  0.35526108  1
  O2-  O145  1  0.90090035  0.75506281  0.62595717  1
  O2-  O146  1  0.92937816  0.75755821  0.86795606  1
  O2-  O147  1  0.07292696  0.13086345  0.02969137  1
  O2-  O148  1  0.07056913  0.12676575  0.23608396  1
  O2-  O149  1  0.15149232  0.14596202  0.45600572  1
  O2-  O150  1  0.13924848  0.14303801  0.77696948  1
  O2-  O151  1  0.09413692  0.64873014  -0.06231110  1
  O2-  O152  1  0.14215283  0.62842344  0.28248218  1
  O2-  O153  1  0.06177176  0.62333623  0.52526885  1
  O2-  O154  1  0.07074675  0.62853639  0.72349332  1
  O2-  O155  1  0.40663484  0.14014616  0.03607145  1
  O2-  O156  1  0.42298615  0.12971064  0.25300919  1
  O2-  O157  1  0.32084065  0.10456454  0.52197971  1
  O2-  O158  1  0.33005295  0.10936606  0.77572963  1
  O2-  O159  1  0.38932561  0.59193347  0.00458686  1
  O2-  O160  1  0.38615602  0.63312601  0.26418040  1
  O2-  O161  1  0.38689411  0.64521534  0.52898113  1
  O2-  O162  1  0.41164605  0.64940385  0.78944136  1
  O2-  O163  1  0.59511099  0.12131900  0.04051381  1
  O2-  O164  1  0.60548049  0.12905605  0.24083091  1
  O2-  O165  1  0.66121297  0.14370582  0.49608782  1
  O2-  O166  1  0.65561400  0.10274714  0.72372199  1
  O2-  O167  1  0.62988514  0.64125152  0.00470242  1
  O2-  O168  1  0.58626428  0.62358530  0.26440453  1
  O2-  O169  1  0.70100127  0.63968937  0.46910986  1
  O2-  O170  1  0.63100864  0.64374513  0.74911759  1
  O2-  O171  1  0.84783279  0.12899544  -0.01544283  1
  O2-  O172  1  0.89595540  0.15167902  0.24515444  1
  O2-  O173  1  0.85323821  0.14730066  0.49796331  1
  O2-  O174  1  0.81670702  0.11209256  0.77035218  1
  O2-  O175  1  0.91191881  0.63446529  -0.00234195  1
  O2-  O176  1  0.82218506  0.63896103  0.25971742  1
  O2-  O177  1  0.87394787  0.66177722  0.48672227  1
  O2-  O178  1  0.87959946  0.63656365  0.74512940  1
  O2-  O179  1  0.12679214  0.39958862  -0.01334477  1
  O2-  O180  1  0.08521930  0.40933367  0.26348289  1
  O2-  O181  1  0.13352769  0.34653589  0.49839146  1
  O2-  O182  1  0.14444281  0.34951294  0.72970993  1
  O2-  O183  1  0.13393041  0.84959277  -0.02529318  1
  O2-  O184  1  0.14966479  0.84414224  0.24394023  1
  O2-  O185  1  0.12239402  0.89074894  0.50311488  1
  O2-  O186  1  0.07455616  0.89099314  0.74354506  1
  O2-  O187  1  0.40359062  0.33997099  -0.00019980  1
  O2-  O188  1  0.43089662  0.36244585  0.30896198  1
  O2-  O189  1  0.31400446  0.38059093  0.51725236  1
  O2-  O190  1  0.32299063  0.36713673  0.76554361  1
  O2-  O191  1  0.33924301  0.82473174  -0.01349365  1
  O2-  O192  1  0.36240918  0.83719119  0.24059774  1
  O2-  O193  1  0.36827407  0.87011294  0.51193584  1
  O2-  O194  1  0.43115830  0.85621503  0.83582138  1
  O2-  O195  1  0.57160675  0.34749400  -0.08910592  1
  O2-  O196  1  0.59538546  0.38563739  0.25533498  1
  O2-  O197  1  0.64732555  0.35415193  0.50011884  1
  O2-  O198  1  0.66836267  0.37231793  0.74382073  1
  O2-  O199  1  0.61744008  0.85620326  0.00185551  1
  O2-  O200  1  0.66449695  0.89615129  0.26160374  1
  O2-  O201  1  0.69326703  0.88430280  0.46493226  1
  O2-  O202  1  0.62579338  0.85751964  0.74767187  1
  O2-  O203  1  0.91583777  0.37816766  -0.01271965  1
  O2-  O204  1  0.90755742  0.37516437  0.25203038  1
  O2-  O205  1  0.86216744  0.35974273  0.50912082  1
  O2-  O206  1  0.86114648  0.38236632  0.73161634  1
  O2-  O207  1  0.89274773  0.86605828  0.00041911  1
  O2-  O208  1  0.86673845  0.89394187  0.24825943  1
  O2-  O209  1  0.87466250  0.85934407  0.49497599  1
  O2-  O210  1  0.88036071  0.87272479  0.74492216  1
  O2-  O211  1  0.00041024  0.18019164  -0.11159283  1
  O2-  O212  1  0.02578984  -0.12060189  0.12249949  1
  O2-  O213  1  -0.00610405  0.11952058  0.57390608  1
  O2-  O214  1  -0.02908682  0.11333709  0.73182850  1
  O2-  O215  1  0.00495583  0.36659615  -0.15962834  1
  O2-  O216  1  -0.02539638  0.58925040  0.25391967  1
  O2-  O217  1  -0.00036376  0.31577862  0.60323106  1
  O2-  O218  1  0.01096769  0.46787435  0.65198035  1
  O2-  O219  1  0.24924242  0.16243945  0.08108502  1
  O2-  O220  1  0.24283134  0.12505384  0.23885714  1
  O2-  O221  1  0.25025600  -0.15963760  0.38005390  1
  O2-  O222  1  0.24200273  -0.11306654  0.74805770  1
  O2-  O223  1  0.24931173  0.39562281  0.13351076  1
  O2-  O224  1  0.26177512  0.38011248  0.31628000  1
  O2-  O225  1  0.26644664  0.64044871  0.39548043  1
  O2-  O226  1  0.23880097  0.63457735  0.72507787  1
  O2-  O227  1  0.46348146  0.03893602  -0.11469631  1
  O2-  O228  1  0.49328176  -0.11598749  0.34609077  1
  O2-  O229  1  0.48725393  0.12074237  0.53895058  1
  O2-  O230  1  0.49744900  0.11332508  0.71058204  1
  O2-  O231  1  0.46582834  0.48028461  -0.14574292  1
  O2-  O232  1  0.49440684  0.66705928  0.12313921  1
  O2-  O233  1  0.49087425  0.37780448  0.53919368  1
  O2-  O234  1  0.50853617  0.37959155  0.71470285  1
  O2-  O235  1  0.72087990  -0.03138589  0.10307315  1
  O2-  O236  1  0.74818588  0.13357454  0.14223435  1
  O2-  O237  1  0.75850361  0.10581506  0.34607008  1
  O2-  O238  1  0.75714026  -0.13451404  0.87932264  1
  O2-  O239  1  0.73298859  0.37878546  0.02807693  1
  O2-  O240  1  0.74568422  0.33427499  0.19690874  1
  O2-  O241  1  0.75764664  0.37878411  0.36836491  1
  O2-  O242  1  0.76336191  0.66819103  0.88389002  1
