# generated using pymatgen
data_Gd19Ta56(WO20)8
_symmetry_space_group_name_H-M   'P 1'
_cell_length_a   15.63604705
_cell_length_b   15.51640061
_cell_length_c   15.09952065
_cell_angle_alpha   89.83649214
_cell_angle_beta   89.76935422
_cell_angle_gamma   90.23697763
_symmetry_Int_Tables_number   1
_chemical_formula_structural   Gd19Ta56(WO20)8
_chemical_formula_sum   'Gd19 Ta56 W8 O160'
_cell_volume   3663.29666204
_cell_formula_units_Z   1
loop_
 _symmetry_equiv_pos_site_id
 _symmetry_equiv_pos_as_xyz
  1  'x, y, z'
loop_
 _atom_type_symbol
 _atom_type_oxidation_number
  Gd3+  3.0
  Ta5+  5.0
  W6+  6.0
  O2-  -2.0
loop_
 _atom_site_type_symbol
 _atom_site_label
 _atom_site_symmetry_multiplicity
 _atom_site_fract_x
 _atom_site_fract_y
 _atom_site_fract_z
 _atom_site_occupancy
  Gd3+  Gd0  1  0.75013099  0.71813010  0.74958259  1
  Gd3+  Gd1  1  0.73540002  0.74488578  -0.00195899  1
  Gd3+  Gd2  1  0.74638482  0.25390122  0.52562247  1
  Gd3+  Gd3  1  0.73887520  0.24395168  0.24404344  1
  Gd3+  Gd4  1  0.27870143  0.76990018  0.23056043  1
  Gd3+  Gd5  1  0.25468444  0.24770015  0.01616253  1
  Gd3+  Gd6  1  0.26549388  0.26698168  0.75285378  1
  Gd3+  Gd7  1  0.24643654  0.71877917  0.51179714  1
  Gd3+  Gd8  1  0.00008645  0.74987416  0.49863491  1
  Gd3+  Gd9  1  0.49849145  0.25077082  0.22506752  1
  Gd3+  Gd10  1  0.76605811  0.75986861  0.48751189  1
  Gd3+  Gd11  1  0.75328859  0.26843561  -0.02162941  1
  Gd3+  Gd12  1  -0.00835774  0.74251604  0.75490637  1
  Gd3+  Gd13  1  0.48836315  0.73257958  0.76246229  1
  Gd3+  Gd14  1  0.24769742  0.24547762  0.50495266  1
  Gd3+  Gd15  1  0.25208518  0.24086797  0.25065687  1
  Gd3+  Gd16  1  0.52817913  0.22383235  0.74736340  1
  Gd3+  Gd17  1  -0.00961673  0.22950176  0.24928484  1
  Gd3+  Gd18  1  -0.01837369  0.74042767  0.23929088  1
  Ta5+  Ta19  1  0.39951660  0.61803729  0.61836316  1
  Ta5+  Ta20  1  0.38534145  0.37005498  0.38008604  1
  Ta5+  Ta21  1  0.59938545  0.38066707  0.37376293  1
  Ta5+  Ta22  1  0.33958475  0.87038424  0.63521158  1
  Ta5+  Ta23  1  0.60067087  0.85605497  0.12991809  1
  Ta5+  Ta24  1  0.89692695  0.36363575  0.64921322  1
  Ta5+  Ta25  1  0.65407620  0.62239636  0.35428558  1
  Ta5+  Ta26  1  0.59261548  0.11573105  0.37002795  1
  Ta5+  Ta27  1  0.33876681  0.62874415  0.92729318  1
  Ta5+  Ta28  1  0.85992243  0.88511876  0.88430311  1
  Ta5+  Ta29  1  0.13515539  0.09800639  0.39613745  1
  Ta5+  Ta30  1  0.38791110  0.10042941  0.13088381  1
  Ta5+  Ta31  1  0.10332025  0.09675229  0.08656386  1
  Ta5+  Ta32  1  0.43690380  0.64538426  0.13677373  1
  Ta5+  Ta33  1  0.62674910  0.60762302  0.87493977  1
  Ta5+  Ta34  1  0.91788017  0.12835489  0.89702267  1
  Ta5+  Ta35  1  0.13375786  0.88316610  0.63526811  1
  Ta5+  Ta36  1  0.12388806  0.38416274  0.37021669  1
  Ta5+  Ta37  1  0.88128616  0.36025143  0.38678639  1
  Ta5+  Ta38  1  0.56520896  0.37114434  0.59700103  1
  Ta5+  Ta39  1  0.13766321  0.62701269  0.35338021  1
  Ta5+  Ta40  1  0.95505436  0.37604837  0.89082058  1
  Ta5+  Ta41  1  0.15146269  0.62453567  0.10085771  1
  Ta5+  Ta42  1  0.86157252  0.60473099  0.61269666  1
  Ta5+  Ta43  1  0.38111846  0.11564944  0.62510614  1
  Ta5+  Ta44  1  0.85112346  0.88641111  0.63489350  1
  Ta5+  Ta45  1  0.40145133  0.37277022  0.61907651  1
  Ta5+  Ta46  1  0.84788717  0.86861065  0.13915714  1
  Ta5+  Ta47  1  0.82200736  0.61532421  0.16244621  1
  Ta5+  Ta48  1  0.08683214  0.39895099  0.11980272  1
  Ta5+  Ta49  1  0.12374379  0.61947704  0.87815585  1
  Ta5+  Ta50  1  0.88047842  0.13141757  0.64689039  1
  Ta5+  Ta51  1  0.15236927  0.11755686  0.85096631  1
  Ta5+  Ta52  1  0.63559511  0.10964278  0.87828744  1
  Ta5+  Ta53  1  0.88358464  0.38910792  0.12480060  1
  Ta5+  Ta54  1  0.89760839  0.09121610  0.11183762  1
  Ta5+  Ta55  1  0.62237299  0.61421701  0.60648555  1
  Ta5+  Ta56  1  0.43623544  0.86033883  0.12550308  1
  Ta5+  Ta57  1  0.09904700  0.87617453  0.36503943  1
  Ta5+  Ta58  1  0.64153327  0.87170723  0.62132279  1
  Ta5+  Ta59  1  0.38307118  0.11052979  0.37021604  1
  Ta5+  Ta60  1  0.36686443  0.87001764  0.88235046  1
  Ta5+  Ta61  1  0.12025791  0.86952031  0.11096445  1
  Ta5+  Ta62  1  0.38106535  0.86780238  0.38971564  1
  Ta5+  Ta63  1  0.12169510  0.37407460  0.88154186  1
  Ta5+  Ta64  1  0.64867050  0.87618700  0.37153934  1
  Ta5+  Ta65  1  0.11063483  0.12857772  0.65194783  1
  Ta5+  Ta66  1  0.13332397  0.87197780  0.87017690  1
  Ta5+  Ta67  1  0.38927964  0.40229549  0.13282823  1
  Ta5+  Ta68  1  0.37258901  0.11809715  0.88426488  1
  Ta5+  Ta69  1  0.62043514  0.10596254  0.12179757  1
  Ta5+  Ta70  1  0.90020838  0.89821632  0.38087305  1
  Ta5+  Ta71  1  0.63660944  0.38522094  0.12277163  1
  Ta5+  Ta72  1  0.13448633  0.38997125  0.62872275  1
  Ta5+  Ta73  1  0.59949698  0.63365916  0.13089160  1
  Ta5+  Ta74  1  0.34754384  0.60973462  0.36445998  1
  W6+  W75  1  0.61414958  0.87832735  0.87303720  1
  W6+  W76  1  0.87710555  0.60846434  0.38504905  1
  W6+  W77  1  0.36341366  0.38418561  0.88286008  1
  W6+  W78  1  0.63222403  0.11423540  0.61045514  1
  W6+  W79  1  0.87480313  0.61220604  0.89508486  1
  W6+  W80  1  0.86248303  0.12729745  0.38060642  1
  W6+  W81  1  0.59627152  0.37653126  0.86489935  1
  W6+  W82  1  0.10704247  0.61759722  0.62345313  1
  O2-  O83  1  0.15762779  -0.00588626  0.11494570  1
  O2-  O84  1  0.15212962  -0.00891708  0.34425474  1
  O2-  O85  1  0.11318834  0.00388892  0.63316112  1
  O2-  O86  1  0.15101866  -0.00652445  0.86131972  1
  O2-  O87  1  0.15968417  0.50036266  0.12178540  1
  O2-  O88  1  0.10795675  0.50116622  0.35346732  1
  O2-  O89  1  0.17346489  0.49953336  0.60822249  1
  O2-  O90  1  0.13514418  0.49916444  0.90044105  1
  O2-  O91  1  0.40884337  -0.01580312  0.13413974  1
  O2-  O92  1  0.36436542  -0.01019881  0.38164254  1
  O2-  O93  1  0.35615024  -0.00447419  0.63654916  1
  O2-  O94  1  0.36119453  -0.00585830  0.87046348  1
  O2-  O95  1  0.40421065  0.51802291  0.14846023  1
  O2-  O96  1  0.38139364  0.49467074  0.36322500  1
  O2-  O97  1  0.40517138  0.49866940  0.59587702  1
  O2-  O98  1  0.35508592  0.51872577  0.89185278  1
  O2-  O99  1  0.60998411  -0.01186112  0.12546472  1
  O2-  O100  1  0.62110087  -0.00308574  0.37224163  1
  O2-  O101  1  0.60547537  -0.01618674  0.61110372  1
  O2-  O102  1  0.57844149  0.00759655  0.89525313  1
  O2-  O103  1  0.62659820  0.50349298  0.13202287  1
  O2-  O104  1  0.62167627  0.49852040  0.36836726  1
  O2-  O105  1  0.59381912  0.49613760  0.60268132  1
  O2-  O106  1  0.56460512  0.50732849  0.87489188  1
  O2-  O107  1  0.82654192  -0.00303902  0.11982968  1
  O2-  O108  1  0.93290076  0.01189035  0.38726878  1
  O2-  O109  1  0.87663119  0.00550229  0.64708786  1
  O2-  O110  1  0.91073291  -0.00441307  0.89675805  1
  O2-  O111  1  0.81943179  0.48846306  0.15104563  1
  O2-  O112  1  0.85354786  0.47274459  0.38349277  1
  O2-  O113  1  0.87017169  0.48170354  0.62705691  1
  O2-  O114  1  0.93598565  0.49568421  0.90191181  1
  O2-  O115  1  0.16783157  0.19061854  0.13763504  1
  O2-  O116  1  0.24071901  0.33622965  0.37011660  1
  O2-  O117  1  0.16178052  0.25329848  0.63721756  1
  O2-  O118  1  0.16049171  0.24930925  0.86365894  1
  O2-  O119  1  0.17286783  0.75553900  0.11339636  1
  O2-  O120  1  0.08440585  0.74478706  0.35233569  1
  O2-  O121  1  0.07695048  0.76418088  0.63130179  1
  O2-  O122  1  0.08595131  0.74881676  0.86949171  1
  O2-  O123  1  0.36368990  0.24329697  0.13785839  1
  O2-  O124  1  0.38645693  0.24360518  0.35110095  1
  O2-  O125  1  0.34532296  0.24424865  0.62385889  1
  O2-  O126  1  0.34481484  0.24360432  0.89409922  1
  O2-  O127  1  0.36806891  0.75522390  0.11465360  1
  O2-  O128  1  0.30446800  0.76781927  0.38452756  1
  O2-  O129  1  0.33588586  0.73545441  0.62917334  1
  O2-  O130  1  0.38742465  0.73783940  0.87449404  1
  O2-  O131  1  0.62248756  0.24492237  0.14151926  1
  O2-  O132  1  0.59670758  0.24460553  0.34222468  1
  O2-  O133  1  0.62152825  0.25309024  0.61475698  1
  O2-  O134  1  0.61622339  0.23708575  0.87598044  1
  O2-  O135  1  0.66052270  0.74225354  0.13927055  1
  O2-  O136  1  0.67840909  0.74535311  0.36862127  1
  O2-  O137  1  0.67207103  0.74126933  0.60883044  1
  O2-  O138  1  0.65141230  0.74370231  0.86567789  1
  O2-  O139  1  0.76251026  0.32845786  0.11846367  1
  O2-  O140  1  0.79750765  0.26282502  0.38122842  1
  O2-  O141  1  0.82993838  0.25383190  0.65475706  1
  O2-  O142  1  0.96005632  0.24230502  0.89953582  1
  O2-  O143  1  0.83519160  0.74673465  0.16817749  1
  O2-  O144  1  0.89713563  0.75118408  0.38284615  1
  O2-  O145  1  0.86033349  0.74681789  0.61912081  1
  O2-  O146  1  0.83858667  0.74931570  0.87645234  1
  O2-  O147  1  0.16412948  0.12875472  -0.02092763  1
  O2-  O148  1  0.10735294  0.19657094  0.32629572  1
  O2-  O149  1  0.14041574  0.13070395  0.51843342  1
  O2-  O150  1  0.21505182  0.12256641  0.73076963  1
  O2-  O151  1  0.07632942  0.63140592  0.00561561  1
  O2-  O152  1  0.09186559  0.63923167  0.21645847  1
  O2-  O153  1  0.11432272  0.65671096  0.48337642  1
  O2-  O154  1  0.07365668  0.61252885  0.76516288  1
  O2-  O155  1  0.33644517  0.11144384  0.01718731  1
  O2-  O156  1  0.32293748  0.10822904  0.24019138  1
  O2-  O157  1  0.34373056  0.12737814  0.50357642  1
  O2-  O158  1  0.39091501  0.14100026  0.75700500  1
  O2-  O159  1  0.43260119  0.63350054  0.00856934  1
  O2-  O160  1  0.40036085  0.66756130  0.26610086  1
  O2-  O161  1  0.38623400  0.64512301  0.47906736  1
  O2-  O162  1  0.40331842  0.61478536  0.74051722  1
  O2-  O163  1  0.67328304  0.12954280  0.00837954  1
  O2-  O164  1  0.66132230  0.11529794  0.24510010  1
  O2-  O165  1  0.66119696  0.14118768  0.47012801  1
  O2-  O166  1  0.63231432  0.11270174  0.75259660  1
  O2-  O167  1  0.63065777  0.63332998  0.00060653  1
  O2-  O168  1  0.57607095  0.63711555  0.26489015  1
  O2-  O169  1  0.61806285  0.62838399  0.48049428  1
  O2-  O170  1  0.60342277  0.63499662  0.74551276  1
  O2-  O171  1  0.84646697  0.15414006  0.01224700  1
  O2-  O172  1  0.86043315  0.15228472  0.22121514  1
  O2-  O173  1  0.84228950  0.13572768  0.52543471  1
  O2-  O174  1  0.87453253  0.13138761  0.77898800  1
  O2-  O175  1  0.83100570  0.62879685  0.03595036  1
  O2-  O176  1  0.91766795  0.61129462  0.24474697  1
  O2-  O177  1  0.94842827  0.61161042  0.51939542  1
  O2-  O178  1  0.88668856  0.63128873  0.74212514  1
  O2-  O179  1  0.13738083  0.34695004  0.01829388  1
  O2-  O180  1  0.12563143  0.35570471  0.23574286  1
  O2-  O181  1  0.13146128  0.36174929  0.49400221  1
  O2-  O182  1  0.15394454  0.38691885  0.75444481  1
  O2-  O183  1  0.08398171  0.88148652  -0.01453533  1
  O2-  O184  1  0.08341980  0.86661677  0.22953327  1
  O2-  O185  1  0.08944438  0.87620367  0.49409698  1
  O2-  O186  1  0.07223502  0.87541621  0.75604651  1
  O2-  O187  1  0.32826366  0.38368948  0.02841708  1
  O2-  O188  1  0.33334280  0.37585161  0.24118843  1
  O2-  O189  1  0.33895899  0.36203654  0.49908728  1
  O2-  O190  1  0.37295266  0.37342541  0.74313265  1
  O2-  O191  1  0.42387203  0.87159105  -0.01036394  1
  O2-  O192  1  0.40514942  0.85473702  0.26407118  1
  O2-  O193  1  0.40021830  0.86269551  0.51833442  1
  O2-  O194  1  0.39925451  0.85667211  0.75062558  1
  O2-  O195  1  0.64998967  0.37168185  -0.00202196  1
  O2-  O196  1  0.66188113  0.37208919  0.25508205  1
  O2-  O197  1  0.66075972  0.36364056  0.48253519  1
  O2-  O198  1  0.56278233  0.36411044  0.72796781  1
  O2-  O199  1  0.63501225  0.85441600  0.00536481  1
  O2-  O200  1  0.59338658  0.85833147  0.26380202  1
  O2-  O201  1  0.60550315  0.85100633  0.48843684  1
  O2-  O202  1  0.57918381  0.84735020  0.73071286  1
  O2-  O203  1  0.87365206  0.35915860  0.00183874  1
  O2-  O204  1  0.87719211  0.33921546  0.24898927  1
  O2-  O205  1  0.87504790  0.34191597  0.51211941  1
  O2-  O206  1  0.91026680  0.36638604  0.77247707  1
  O2-  O207  1  0.86473304  0.85321173  0.01100484  1
  O2-  O208  1  0.90369473  0.88760051  0.25024754  1
  O2-  O209  1  0.90952716  0.87410245  0.51694064  1
  O2-  O210  1  0.89943381  0.86229251  0.75846315  1
  O2-  O211  1  -0.00525269  0.09862195  0.01604380  1
  O2-  O212  1  0.01152795  0.09889459  0.17984805  1
  O2-  O213  1  -0.00579614  0.15855287  0.61896674  1
  O2-  O214  1  0.05474316  0.12243922  0.77219409  1
  O2-  O215  1  -0.01383369  0.46720113  0.11555715  1
  O2-  O216  1  -0.00682375  0.30482178  0.12512082  1
  O2-  O217  1  0.00432960  0.34460829  0.36775483  1
  O2-  O218  1  0.01379024  0.36229420  0.62819418  1
  O2-  O219  1  0.24885206  -0.15393459  -0.09908260  1
  O2-  O220  1  0.25019631  0.14557868  0.37785264  1
  O2-  O221  1  0.23521756  -0.13951032  0.55703598  1
  O2-  O222  1  0.23053325  -0.12249126  0.71620439  1
  O2-  O223  1  0.25325167  0.62402413  0.02287709  1
  O2-  O224  1  0.24198853  0.63292512  0.27529031  1
  O2-  O225  1  0.23919312  0.58723523  0.42699934  1
  O2-  O226  1  0.23475802  0.65288888  0.84973035  1
  O2-  O227  1  0.50269569  0.13745804  0.09760662  1
  O2-  O228  1  0.48232489  0.11206998  0.27514409  1
  O2-  O229  1  0.49016430  0.11138324  0.43801688  1
  O2-  O230  1  0.49723367  0.13111553  0.62275084  1
  O2-  O231  1  0.50686650  0.36698266  0.12050039  1
  O2-  O232  1  0.48940831  0.37727185  0.30121560  1
  O2-  O233  1  0.49811323  0.36867301  0.46496917  1
  O2-  O234  1  0.50834909  0.67665412  0.61268509  1
  O2-  O235  1  0.74719997  -0.08800661  -0.11847902  1
  O2-  O236  1  0.77144328  -0.11339227  0.37498163  1
  O2-  O237  1  0.75324300  -0.10397149  0.55366082  1
  O2-  O238  1  0.74441863  -0.13671137  0.70760678  1
  O2-  O239  1  0.74629008  0.59537288  -0.14156598  1
  O2-  O240  1  0.76139363  0.60810645  0.29212105  1
  O2-  O241  1  0.79285627  0.62000607  0.49655254  1
  O2-  O242  1  0.73888729  0.59728401  0.65243213  1
