# generated using pymatgen
data_Gd19Ta56(WO20)8
_symmetry_space_group_name_H-M   'P 1'
_cell_length_a   15.53883732
_cell_length_b   15.41354494
_cell_length_c   15.28176191
_cell_angle_alpha   90.08927335
_cell_angle_beta   90.17068905
_cell_angle_gamma   89.88071438
_symmetry_Int_Tables_number   1
_chemical_formula_structural   Gd19Ta56(WO20)8
_chemical_formula_sum   'Gd19 Ta56 W8 O160'
_cell_volume   3660.08432079
_cell_formula_units_Z   1
loop_
 _symmetry_equiv_pos_site_id
 _symmetry_equiv_pos_as_xyz
  1  'x, y, z'
loop_
 _atom_type_symbol
 _atom_type_oxidation_number
  Gd3+  3.0
  Ta5+  5.0
  W6+  6.0
  O2-  -2.0
loop_
 _atom_site_type_symbol
 _atom_site_label
 _atom_site_symmetry_multiplicity
 _atom_site_fract_x
 _atom_site_fract_y
 _atom_site_fract_z
 _atom_site_occupancy
  Gd3+  Gd0  1  -0.00307635  0.25280928  0.00577346  1
  Gd3+  Gd1  1  0.27427666  0.26015645  0.76104223  1
  Gd3+  Gd2  1  -0.02464820  0.25797024  0.27265945  1
  Gd3+  Gd3  1  -0.02706945  0.75733345  0.22115510  1
  Gd3+  Gd4  1  0.77704178  0.24057320  0.74907872  1
  Gd3+  Gd5  1  0.47009386  0.23270562  0.24802852  1
  Gd3+  Gd6  1  0.48486392  0.72276902  0.22331648  1
  Gd3+  Gd7  1  0.75494992  0.25767323  -0.00533459  1
  Gd3+  Gd8  1  0.23818370  0.29719669  0.19047889  1
  Gd3+  Gd9  1  0.68990760  0.27940622  0.23261425  1
  Gd3+  Gd10  1  0.73622175  0.76508836  0.26709316  1
  Gd3+  Gd11  1  0.75244018  0.75572063  0.51345192  1
  Gd3+  Gd12  1  0.01835972  0.26022489  0.75878241  1
  Gd3+  Gd13  1  -0.02326035  0.27638839  0.52371027  1
  Gd3+  Gd14  1  0.49592205  0.73546900  0.76924144  1
  Gd3+  Gd15  1  0.24276040  0.75585538  0.26663417  1
  Gd3+  Gd16  1  0.23456548  0.73913524  0.51126097  1
  Gd3+  Gd17  1  0.50562251  0.24911260  0.75846800  1
  Gd3+  Gd18  1  0.79199160  0.75868167  0.76973936  1
  Ta5+  Ta19  1  0.64475215  0.37238025  0.64484099  1
  Ta5+  Ta20  1  0.63021848  0.07450286  0.11452397  1
  Ta5+  Ta21  1  0.38315295  0.43624100  0.86489539  1
  Ta5+  Ta22  1  0.83425759  0.63238214  0.09831491  1
  Ta5+  Ta23  1  0.61242350  0.87737832  0.12384486  1
  Ta5+  Ta24  1  0.65229418  0.66380846  0.08880115  1
  Ta5+  Ta25  1  0.37826041  0.10731278  0.62174135  1
  Ta5+  Ta26  1  0.64734372  0.07037744  0.87583191  1
  Ta5+  Ta27  1  0.85520340  0.39739619  0.14505078  1
  Ta5+  Ta28  1  0.11053460  0.86173129  0.87875775  1
  Ta5+  Ta29  1  0.38149373  0.86862359  0.39317094  1
  Ta5+  Ta30  1  0.15404471  0.62740507  0.12803862  1
  Ta5+  Ta31  1  0.66683600  0.43205890  0.06769572  1
  Ta5+  Ta32  1  0.32628722  0.12080455  0.05215492  1
  Ta5+  Ta33  1  0.11571405  0.12436239  0.39239306  1
  Ta5+  Ta34  1  0.58665838  0.87390634  0.39641212  1
  Ta5+  Ta35  1  0.35996254  0.10993815  0.38571063  1
  Ta5+  Ta36  1  0.60995208  0.46869609  0.83567953  1
  Ta5+  Ta37  1  0.40723006  0.61323056  0.62494914  1
  Ta5+  Ta38  1  0.10224621  0.61347764  0.37368727  1
  Ta5+  Ta39  1  0.82369387  0.89290309  0.09969423  1
  Ta5+  Ta40  1  0.86539384  0.12764185  0.13715515  1
  Ta5+  Ta41  1  0.41907005  0.06791967  0.84854046  1
  Ta5+  Ta42  1  0.09224537  0.61764037  0.63159045  1
  Ta5+  Ta43  1  0.90189346  0.88602812  0.42640371  1
  Ta5+  Ta44  1  0.89838771  0.62810568  0.63172326  1
  Ta5+  Ta45  1  0.89794343  0.10661852  0.63252752  1
  Ta5+  Ta46  1  0.94170330  0.84893820  0.89534595  1
  Ta5+  Ta47  1  0.34416908  0.85386450  0.86951926  1
  Ta5+  Ta48  1  0.63233304  0.11556381  0.40891837  1
  Ta5+  Ta49  1  0.15371833  0.87629443  0.12829529  1
  Ta5+  Ta50  1  0.13246350  0.11523514  0.64050608  1
  Ta5+  Ta51  1  0.82619145  0.38128364  0.38676636  1
  Ta5+  Ta52  1  0.64896338  0.87851332  0.87879187  1
  Ta5+  Ta53  1  0.32018235  0.66255011  0.87180773  1
  Ta5+  Ta54  1  0.06590662  0.40178986  0.13009203  1
  Ta5+  Ta55  1  0.14660782  0.39925721  0.89208834  1
  Ta5+  Ta56  1  0.83629619  0.12141333  0.39283120  1
  Ta5+  Ta57  1  0.34033693  0.36990434  0.36961768  1
  Ta5+  Ta58  1  0.62631938  0.86686405  0.64310637  1
  Ta5+  Ta59  1  0.15150504  0.38348113  0.62412922  1
  Ta5+  Ta60  1  0.09308012  0.86616961  0.62686772  1
  Ta5+  Ta61  1  0.64984247  0.11005892  0.63895498  1
  Ta5+  Ta62  1  0.32265360  0.62775220  0.11286906  1
  Ta5+  Ta63  1  0.13214702  0.11262515  0.89595489  1
  Ta5+  Ta64  1  0.39758990  0.36714977  0.61098705  1
  Ta5+  Ta65  1  0.10720278  0.87812049  0.39053270  1
  Ta5+  Ta66  1  0.09922795  0.63855283  0.88272019  1
  Ta5+  Ta67  1  0.10709682  0.11907634  0.14233312  1
  Ta5+  Ta68  1  0.88560733  0.09238199  0.88665257  1
  Ta5+  Ta69  1  0.67913013  0.62626328  0.89030048  1
  Ta5+  Ta70  1  0.32347242  0.87752508  0.12109200  1
  Ta5+  Ta71  1  0.13594496  0.37314970  0.38281877  1
  Ta5+  Ta72  1  0.92805479  0.86303323  0.63862714  1
  Ta5+  Ta73  1  0.84461136  0.43924784  0.82437579  1
  Ta5+  Ta74  1  0.93240717  0.64357910  0.89065195  1
  W6+  W75  1  0.58039670  0.36435166  0.40127138  1
  W6+  W76  1  0.39293515  0.38421902  0.10175475  1
  W6+  W77  1  0.60323918  0.61319713  0.41082560  1
  W6+  W78  1  0.87181792  0.46194921  0.66514423  1
  W6+  W79  1  0.42157377  0.86699133  0.61516670  1
  W6+  W80  1  0.36788421  0.61347219  0.37880433  1
  W6+  W81  1  0.65141468  0.60957603  0.65163188  1
  W6+  W82  1  0.85991935  0.63154413  0.37173569  1
  O2-  O83  1  0.11028221  0.00111568  0.14847177  1
  O2-  O84  1  0.08435496  0.00693174  0.39373147  1
  O2-  O85  1  0.12817529  -0.00343310  0.63193157  1
  O2-  O86  1  0.12521277  -0.00260141  0.87504518  1
  O2-  O87  1  0.11851554  0.50644114  0.15906878  1
  O2-  O88  1  0.08934044  0.48696573  0.37046028  1
  O2-  O89  1  0.16032946  0.50356263  0.63548754  1
  O2-  O90  1  0.11482029  0.51031501  0.85793115  1
  O2-  O91  1  0.32624475  0.01305567  0.10692559  1
  O2-  O92  1  0.33915625  -0.01543998  0.39770091  1
  O2-  O93  1  0.36171731  -0.00936388  0.61534763  1
  O2-  O94  1  0.33335684  -0.01459645  0.84198474  1
  O2-  O95  1  0.36050452  0.51322813  0.09898620  1
  O2-  O96  1  0.38829434  0.47930233  0.37469923  1
  O2-  O97  1  0.37856834  0.48585864  0.63463889  1
  O2-  O98  1  0.30906519  0.53462841  0.86512037  1
  O2-  O99  1  0.71297211  -0.02610295  0.12942021  1
  O2-  O100  1  0.59982748  0.00109602  0.37560740  1
  O2-  O101  1  0.62567587  -0.00811623  0.65692747  1
  O2-  O102  1  0.71720522  -0.02015331  0.83269656  1
  O2-  O103  1  0.61705191  0.54316629  0.09135863  1
  O2-  O104  1  0.59891160  0.49849629  0.38702383  1
  O2-  O105  1  0.63031808  0.48396876  0.70063523  1
  O2-  O106  1  0.73760626  0.51005864  0.84888868  1
  O2-  O107  1  0.88160008  0.00982573  0.11610624  1
  O2-  O108  1  0.87877990  -0.00040968  0.38101961  1
  O2-  O109  1  0.91323368  -0.01310936  0.64566315  1
  O2-  O110  1  0.91698208  -0.02126938  0.89631218  1
  O2-  O111  1  0.86863232  0.52014945  0.13343404  1
  O2-  O112  1  0.83359382  0.49584360  0.35871326  1
  O2-  O113  1  0.78525703  0.57591990  0.65754282  1
  O2-  O114  1  0.90967430  0.51361413  0.89184405  1
  O2-  O115  1  0.11011381  0.28187523  0.10749564  1
  O2-  O116  1  0.06790362  0.25301565  0.39979987  1
  O2-  O117  1  0.09446896  0.26041295  0.63035575  1
  O2-  O118  1  0.08910929  0.28361681  0.89461762  1
  O2-  O119  1  0.11427409  0.75225744  0.16174002  1
  O2-  O120  1  0.14002852  0.74808383  0.38799757  1
  O2-  O121  1  0.10907185  0.74029174  0.60002084  1
  O2-  O122  1  0.15651345  0.74837856  0.88690335  1
  O2-  O123  1  0.37580620  0.22435593  0.10519044  1
  O2-  O124  1  0.36423483  0.23950904  0.36035118  1
  O2-  O125  1  0.39526316  0.23941443  0.65162760  1
  O2-  O126  1  0.38294148  0.18802539  0.83113906  1
  O2-  O127  1  0.36868278  0.75567774  0.12407248  1
  O2-  O128  1  0.32699352  0.75026256  0.38311742  1
  O2-  O129  1  0.45142297  0.73547421  0.62270874  1
  O2-  O130  1  0.41482009  0.74508167  0.89473680  1
  O2-  O131  1  0.64838942  0.30686695  0.08542100  1
  O2-  O132  1  0.56390883  0.21427270  0.38536882  1
  O2-  O133  1  0.66332970  0.24300183  0.64571138  1
  O2-  O134  1  0.76000930  0.14269258  0.89105827  1
  O2-  O135  1  0.55958549  0.76644592  0.09693244  1
  O2-  O136  1  0.64535771  0.75790256  0.39241612  1
  O2-  O137  1  0.67722484  0.74977115  0.65171432  1
  O2-  O138  1  0.67609166  0.75799105  0.88673278  1
  O2-  O139  1  0.85359645  0.26829150  0.11243422  1
  O2-  O140  1  0.88352504  0.24035520  0.39962869  1
  O2-  O141  1  0.89598710  0.23815575  0.64866211  1
  O2-  O142  1  1.00152255  0.14405651  0.87225690  1
  O2-  O143  1  0.72532656  0.79986803  0.10476387  1
  O2-  O144  1  0.84013622  0.78164648  0.38635086  1
  O2-  O145  1  0.85245520  0.75372899  0.63171871  1
  O2-  O146  1  0.86269394  0.75118944  0.90091837  1
  O2-  O147  1  0.08591967  0.12795146  0.01560628  1
  O2-  O148  1  0.08336821  0.14243621  0.26905424  1
  O2-  O149  1  0.11287754  0.13538926  0.51885495  1
  O2-  O150  1  0.15662706  0.15993839  0.77809225  1
  O2-  O151  1  0.11846695  0.63105061  0.01252192  1
  O2-  O152  1  0.17535174  0.61975481  0.27449331  1
  O2-  O153  1  0.13107531  0.61075111  0.49528051  1
  O2-  O154  1  0.10122010  0.64362240  0.74812555  1
  O2-  O155  1  0.41744669  0.09491440  -0.02687943  1
  O2-  O156  1  0.43508302  0.09609043  0.29492189  1
  O2-  O157  1  0.40613668  0.12739344  0.50108151  1
  O2-  O158  1  0.46012988  0.09632419  0.71825951  1
  O2-  O159  1  0.29721643  0.65954694  -0.00815196  1
  O2-  O160  1  0.36125994  0.63837623  0.24223211  1
  O2-  O161  1  0.34107507  0.62673952  0.52019116  1
  O2-  O162  1  0.37561910  0.64209692  0.74506224  1
  O2-  O163  1  0.61562131  0.10741198  -0.00399977  1
  O2-  O164  1  0.58879386  0.15941605  0.19142130  1
  O2-  O165  1  0.59103732  0.11930371  0.53122304  1
  O2-  O166  1  0.62899745  0.13978995  0.76687197  1
  O2-  O167  1  0.74980883  0.63663362  0.00176493  1
  O2-  O168  1  0.63607192  0.67141153  0.21546197  1
  O2-  O169  1  0.67843404  0.62577111  0.51422847  1
  O2-  O170  1  0.60427030  0.62913268  0.78319760  1
  O2-  O171  1  0.88503047  0.15118265  0.00140650  1
  O2-  O172  1  0.87784344  0.13112419  0.26298685  1
  O2-  O173  1  0.91392165  0.12089731  0.50846097  1
  O2-  O174  1  0.86845998  0.12039716  0.76739703  1
  O2-  O175  1  0.92683258  0.65434429  0.02630964  1
  O2-  O176  1  0.84930720  0.66927308  0.22648710  1
  O2-  O177  1  0.87981428  0.63645182  0.50776511  1
  O2-  O178  1  0.90406715  0.65389275  0.76332038  1
  O2-  O179  1  0.12763624  0.41562495  0.01094846  1
  O2-  O180  1  0.10558009  0.33426531  0.25948915  1
  O2-  O181  1  0.08617969  0.38323097  0.51319496  1
  O2-  O182  1  0.13848917  0.36238257  0.75199373  1
  O2-  O183  1  0.13021749  0.87321762  0.00990129  1
  O2-  O184  1  0.16084626  0.88497913  0.27989361  1
  O2-  O185  1  0.16573039  0.87588115  0.50226697  1
  O2-  O186  1  0.11435585  0.85741732  0.74595257  1
  O2-  O187  1  0.41914482  0.38395207  -0.03466687  1
  O2-  O188  1  0.37387456  0.34984256  0.23927792  1
  O2-  O189  1  0.40468870  0.35421559  0.49119944  1
  O2-  O190  1  0.39212260  0.35829088  0.76624662  1
  O2-  O191  1  0.33064216  0.87086666  -0.01025157  1
  O2-  O192  1  0.34092822  0.87231281  0.25429027  1
  O2-  O193  1  0.34055025  0.84049047  0.51231570  1
  O2-  O194  1  0.40119523  0.84904102  0.75034253  1
  O2-  O195  1  0.61993011  0.42126823  -0.04940156  1
  O2-  O196  1  0.56637815  0.33932444  0.26752673  1
  O2-  O197  1  0.64590592  0.39000118  0.52763014  1
  O2-  O198  1  0.61650756  0.34444448  0.79022639  1
  O2-  O199  1  0.62252382  0.89925021  -0.00481407  1
  O2-  O200  1  0.63103724  0.86754501  0.25332376  1
  O2-  O201  1  0.64740424  0.87308575  0.51309314  1
  O2-  O202  1  0.58604383  0.85643837  0.76615629  1
  O2-  O203  1  0.82374294  0.31711844  -0.13303394  1
  O2-  O204  1  0.84073607  0.32848882  0.26710839  1
  O2-  O205  1  0.88222421  0.38174236  0.49787719  1
  O2-  O206  1  0.94493060  0.38779553  0.75414588  1
  O2-  O207  1  0.91033336  0.85239384  0.02807677  1
  O2-  O208  1  0.85592136  0.85067196  0.21156711  1
  O2-  O209  1  0.83560030  0.88525255  0.52970838  1
  O2-  O210  1  0.91514208  0.84880170  0.76457997  1
  O2-  O211  1  -0.01326603  0.17424442  0.14090586  1
  O2-  O212  1  -0.00608847  -0.15205789  0.33955267  1
  O2-  O213  1  0.00009202  -0.12374030  0.50609156  1
  O2-  O214  1  0.01570812  0.12247152  0.68336834  1
  O2-  O215  1  -0.03528881  0.38969625  0.05287391  1
  O2-  O216  1  -0.03209455  0.40038603  0.21355486  1
  O2-  O217  1  -0.00342291  0.65424781  0.32851326  1
  O2-  O218  1  -0.00914050  0.53658729  0.62939485  1
  O2-  O219  1  0.24323172  0.13259907  -0.04559686  1
  O2-  O220  1  0.22472178  0.15470746  0.14457448  1
  O2-  O221  1  0.23356177  0.12566049  0.37558894  1
  O2-  O222  1  0.25874749  0.14090946  0.64428364  1
  O2-  O223  1  0.26363726  0.36279621  -0.12322369  1
  O2-  O224  1  0.23593964  0.40430623  0.30506445  1
  O2-  O225  1  0.23772173  0.34237915  0.44991357  1
  O2-  O226  1  0.26744447  0.34480661  0.63119348  1
  O2-  O227  1  0.54522436  -0.01366235  0.13371702  1
  O2-  O228  1  0.48678097  -0.16437701  0.32518710  1
  O2-  O229  1  0.48454007  -0.10851419  0.47270954  1
  O2-  O230  1  0.53289257  0.01675186  0.85841407  1
  O2-  O231  1  0.48791355  0.49256705  -0.16739376  1
  O2-  O232  1  0.49568934  0.65444495  0.35718076  1
  O2-  O233  1  0.52221268  0.58670643  0.61683174  1
  O2-  O234  1  0.51763935  0.35035828  0.64456220  1
  O2-  O235  1  0.74398855  0.14535843  0.11653869  1
  O2-  O236  1  0.72636294  0.15653575  0.32780907  1
  O2-  O237  1  0.74413294  0.08827369  0.46940459  1
  O2-  O238  1  0.76995731  0.10408026  0.63763907  1
  O2-  O239  1  0.78583614  0.40389204  0.02779139  1
  O2-  O240  1  0.73456067  0.41902356  0.18384560  1
  O2-  O241  1  0.71357642  0.33978644  0.37788127  1
  O2-  O242  1  0.76682315  0.37733228  0.69271346  1
