# generated using pymatgen
data_Gd19Ta56(WO20)8
_symmetry_space_group_name_H-M   'P 1'
_cell_length_a   15.46047709
_cell_length_b   15.51330495
_cell_length_c   15.38613316
_cell_angle_alpha   90.10517525
_cell_angle_beta   90.44737103
_cell_angle_gamma   90.03116923
_symmetry_Int_Tables_number   1
_chemical_formula_structural   Gd19Ta56(WO20)8
_chemical_formula_sum   'Gd19 Ta56 W8 O160'
_cell_volume   3690.13852822
_cell_formula_units_Z   1
loop_
 _symmetry_equiv_pos_site_id
 _symmetry_equiv_pos_as_xyz
  1  'x, y, z'
loop_
 _atom_type_symbol
 _atom_type_oxidation_number
  Gd3+  3.0
  Ta5+  5.0
  W6+  6.0
  O2-  -2.0
loop_
 _atom_site_type_symbol
 _atom_site_label
 _atom_site_symmetry_multiplicity
 _atom_site_fract_x
 _atom_site_fract_y
 _atom_site_fract_z
 _atom_site_occupancy
  Gd3+  Gd0  1  -0.00439595  0.24698083  0.50085008  1
  Gd3+  Gd1  1  0.25332368  0.73356887  0.00865675  1
  Gd3+  Gd2  1  0.47736197  0.23480773  0.48701788  1
  Gd3+  Gd3  1  0.76042462  0.77044179  -0.00510578  1
  Gd3+  Gd4  1  0.76894509  0.73411246  0.50803688  1
  Gd3+  Gd5  1  0.74789386  0.26014867  0.73494448  1
  Gd3+  Gd6  1  0.23290622  0.23687340  0.51038123  1
  Gd3+  Gd7  1  0.25358455  0.26148705  0.74896658  1
  Gd3+  Gd8  1  -0.03047419  0.24045385  0.25392382  1
  Gd3+  Gd9  1  0.01816818  0.73934254  0.01547494  1
  Gd3+  Gd10  1  -0.00292982  0.25822663  0.75874191  1
  Gd3+  Gd11  1  0.75141975  0.77141893  0.74878295  1
  Gd3+  Gd12  1  0.74593790  0.75383448  0.25449092  1
  Gd3+  Gd13  1  0.49394437  0.77336073  0.48251914  1
  Gd3+  Gd14  1  0.49393768  0.25515822  0.73327137  1
  Gd3+  Gd15  1  0.74549542  0.26133865  0.48965198  1
  Gd3+  Gd16  1  0.28803660  0.23611535  0.00778192  1
  Gd3+  Gd17  1  0.75968868  0.25468764  -0.01582151  1
  Gd3+  Gd18  1  0.51701245  0.23461117  0.00867035  1
  Ta5+  Ta19  1  0.87525702  0.12181937  0.87117789  1
  Ta5+  Ta20  1  0.61304956  0.38919685  0.86867936  1
  Ta5+  Ta21  1  0.38176330  0.85695463  0.13399995  1
  Ta5+  Ta22  1  0.57386113  0.62706081  0.35720719  1
  Ta5+  Ta23  1  0.10445733  0.86631371  0.87748746  1
  Ta5+  Ta24  1  0.36975843  0.39141800  0.57434929  1
  Ta5+  Ta25  1  0.92039481  0.86248443  0.62967896  1
  Ta5+  Ta26  1  0.86716435  0.39975703  0.37370945  1
  Ta5+  Ta27  1  0.60675181  0.88567273  0.63151684  1
  Ta5+  Ta28  1  0.88533226  0.88070572  0.13264462  1
  Ta5+  Ta29  1  0.84312992  0.12214952  0.12539395  1
  Ta5+  Ta30  1  0.92634968  0.63721896  0.62552372  1
  Ta5+  Ta31  1  0.63532008  0.62858584  0.11407952  1
  Ta5+  Ta32  1  0.67142232  0.12381032  0.12716164  1
  Ta5+  Ta33  1  0.39885757  0.37389787  0.13790147  1
  Ta5+  Ta34  1  0.34257394  0.10310744  0.37493752  1
  Ta5+  Ta35  1  0.52342964  0.87647027  0.29870686  1
  Ta5+  Ta36  1  0.12246169  0.60970054  0.87829803  1
  Ta5+  Ta37  1  0.38399785  0.63010984  0.86038214  1
  Ta5+  Ta38  1  0.85085252  0.10978248  0.37878968  1
  Ta5+  Ta39  1  0.87957411  0.38571782  0.12570434  1
  Ta5+  Ta40  1  0.34320743  0.85571049  0.61565879  1
  Ta5+  Ta41  1  0.64317340  0.38399305  0.12355558  1
  Ta5+  Ta42  1  0.37989653  0.08733707  0.63133056  1
  Ta5+  Ta43  1  0.12444710  0.11037127  0.63737470  1
  Ta5+  Ta44  1  0.62460496  0.12148623  0.86549715  1
  Ta5+  Ta45  1  0.09350825  0.63480975  0.62713466  1
  Ta5+  Ta46  1  0.61799722  0.39472027  0.61314445  1
  Ta5+  Ta47  1  0.62647009  0.63030769  0.87072424  1
  Ta5+  Ta48  1  0.58905931  0.87725329  0.87927319  1
  Ta5+  Ta49  1  0.91641682  0.64150540  0.37424149  1
  Ta5+  Ta50  1  0.41290248  0.10388950  0.15060302  1
  Ta5+  Ta51  1  0.40211493  0.61644571  0.35932883  1
  Ta5+  Ta52  1  0.11605551  0.06931130  0.88604332  1
  Ta5+  Ta53  1  0.17262365  0.11348808  0.13568315  1
  Ta5+  Ta54  1  0.43886988  0.62784918  0.61443718  1
  Ta5+  Ta55  1  0.87235385  0.39348943  0.61811735  1
  Ta5+  Ta56  1  0.35743656  0.85373282  0.35366543  1
  Ta5+  Ta57  1  0.12780099  0.11066297  0.33622312  1
  Ta5+  Ta58  1  0.08083948  0.62652039  0.38058043  1
  Ta5+  Ta59  1  0.61615872  0.37729638  0.35808427  1
  Ta5+  Ta60  1  0.87289065  0.39256607  0.87517292  1
  Ta5+  Ta61  1  0.13277517  0.62236625  0.15614786  1
  Ta5+  Ta62  1  0.15573750  0.37307245  0.14726424  1
  Ta5+  Ta63  1  0.33897333  0.37962232  0.36707411  1
  Ta5+  Ta64  1  0.36943588  0.39942118  0.87918544  1
  Ta5+  Ta65  1  0.12654437  0.86932966  0.14607259  1
  Ta5+  Ta66  1  0.89160912  0.86965608  0.38174391  1
  Ta5+  Ta67  1  0.12791396  0.38507098  0.63037093  1
  Ta5+  Ta68  1  0.88557593  0.62591201  0.87340810  1
  Ta5+  Ta69  1  0.05678508  0.87223895  0.37830031  1
  Ta5+  Ta70  1  0.62486755  0.12054733  0.60873192  1
  Ta5+  Ta71  1  0.87586159  0.10893516  0.62003237  1
  Ta5+  Ta72  1  0.40689873  0.61063171  0.11028498  1
  Ta5+  Ta73  1  0.93522657  0.88880957  0.87242411  1
  Ta5+  Ta74  1  0.88534162  0.62738369  0.13485105  1
  W6+  W75  1  0.60732788  0.64559504  0.61395408  1
  W6+  W76  1  0.11978854  0.37302382  0.89900274  1
  W6+  W77  1  0.60440730  0.10357923  0.35508893  1
  W6+  W78  1  0.10768772  0.37612135  0.36770792  1
  W6+  W79  1  0.33477538  0.87790871  0.87324486  1
  W6+  W80  1  0.40271201  0.08123610  0.84127728  1
  W6+  W81  1  0.08436227  0.85991573  0.62606484  1
  W6+  W82  1  0.63040969  0.88359193  0.12775803  1
  O2-  O83  1  0.16088164  -0.01132320  0.13371428  1
  O2-  O84  1  0.07974156  0.00662690  0.36647737  1
  O2-  O85  1  0.10178215  -0.00541953  0.63428617  1
  O2-  O86  1  0.19096276  -0.02748856  0.87638757  1
  O2-  O87  1  0.14727081  0.50141746  0.16249797  1
  O2-  O88  1  0.09421230  0.50768364  0.37102806  1
  O2-  O89  1  0.10684450  0.50148879  0.61906531  1
  O2-  O90  1  0.16546747  0.50020484  0.89323837  1
  O2-  O91  1  0.40966241  -0.01527928  0.14020173  1
  O2-  O92  1  0.33950336  -0.01513965  0.36387790  1
  O2-  O93  1  0.35338513  -0.02505332  0.58874700  1
  O2-  O94  1  0.37636889  -0.00451232  0.91833377  1
  O2-  O95  1  0.43919447  0.48308999  0.10044946  1
  O2-  O96  1  0.35060428  0.50057256  0.37371852  1
  O2-  O97  1  0.39919862  0.50290528  0.61281195  1
  O2-  O98  1  0.33661246  0.51333889  0.85566642  1
  O2-  O99  1  0.66675227  0.00445169  0.12287982  1
  O2-  O100  1  0.54456374  -0.01230791  0.34294163  1
  O2-  O101  1  0.62791943  0.00623120  0.64791452  1
  O2-  O102  1  0.59635852  0.00429678  0.86104614  1
  O2-  O103  1  0.62636105  0.50455136  0.10853676  1
  O2-  O104  1  0.58101533  0.49348339  0.36082510  1
  O2-  O105  1  0.59527211  0.50879742  0.62214196  1
  O2-  O106  1  0.64574266  0.50593621  0.86141185  1
  O2-  O107  1  0.86585761  -0.00227982  0.11839579  1
  O2-  O108  1  0.85799858  -0.01063100  0.38680599  1
  O2-  O109  1  0.89355013  -0.00902931  0.63120591  1
  O2-  O110  1  0.86271393  0.00245374  0.86639959  1
  O2-  O111  1  0.91340285  0.50235129  0.12260079  1
  O2-  O112  1  0.87430393  0.51755613  0.37583101  1
  O2-  O113  1  0.90257479  0.50890842  0.61647221  1
  O2-  O114  1  0.83422889  0.51222866  0.86779557  1
  O2-  O115  1  0.18655647  0.24194585  0.12626372  1
  O2-  O116  1  0.07604831  0.22168134  0.36582650  1
  O2-  O117  1  0.15075569  0.24663353  0.64384934  1
  O2-  O118  1  0.25615369  0.32880092  0.88923043  1
  O2-  O119  1  0.17313581  0.75115720  0.13569851  1
  O2-  O120  1  0.00289566  0.74741293  0.36509849  1
  O2-  O121  1  0.13839015  0.74616743  0.63750792  1
  O2-  O122  1  0.12675158  0.73888629  0.89473442  1
  O2-  O123  1  0.40517583  0.24685534  0.11911790  1
  O2-  O124  1  0.34897473  0.24401637  0.39534443  1
  O2-  O125  1  0.35588898  0.26236922  0.59221156  1
  O2-  O126  1  0.40230381  0.17844149  0.93526517  1
  O2-  O127  1  0.35941631  0.72814710  0.12104673  1
  O2-  O128  1  0.35721222  0.72761763  0.34144741  1
  O2-  O129  1  0.42002796  0.75410436  0.61969234  1
  O2-  O130  1  0.31832348  0.73111653  0.87099307  1
  O2-  O131  1  0.66312006  0.25841621  0.10205574  1
  O2-  O132  1  0.58130750  0.25811428  0.38057012  1
  O2-  O133  1  0.65148857  0.25194032  0.60478565  1
  O2-  O134  1  0.57294519  0.25097408  0.86996344  1
  O2-  O135  1  0.66832460  0.75128387  0.11522842  1
  O2-  O136  1  0.54685253  0.75155715  0.33887297  1
  O2-  O137  1  0.67020630  0.77844248  0.60897266  1
  O2-  O138  1  0.65191028  0.75751618  0.88165884  1
  O2-  O139  1  0.87960440  0.25475166  0.12706400  1
  O2-  O140  1  0.87875092  0.24393483  0.38505008  1
  O2-  O141  1  0.85093746  0.25352559  0.59960527  1
  O2-  O142  1  0.73730564  0.34673286  0.86339319  1
  O2-  O143  1  0.84360575  0.75453860  0.13032969  1
  O2-  O144  1  0.82813376  0.75166789  0.37685418  1
  O2-  O145  1  0.85068139  0.74718056  0.63877036  1
  O2-  O146  1  0.83257090  0.73972067  0.86760879  1
  O2-  O147  1  0.14466692  0.11421431  -0.00208166  1
  O2-  O148  1  0.07293028  0.13149597  0.21574505  1
  O2-  O149  1  0.10226250  0.14313659  0.51930430  1
  O2-  O150  1  0.14795893  0.12758567  0.77544482  1
  O2-  O151  1  0.14249896  0.63008766  0.02280812  1
  O2-  O152  1  0.14863999  0.65380058  0.27297769  1
  O2-  O153  1  0.10281775  0.64253215  0.49941062  1
  O2-  O154  1  0.10866680  0.61407127  0.75887503  1
  O2-  O155  1  0.52547955  0.12670800  0.11147880  1
  O2-  O156  1  0.41027871  0.12892892  0.27050066  1
  O2-  O157  1  0.39344650  0.10881227  0.49011737  1
  O2-  O158  1  0.36545650  0.16735522  0.74267321  1
  O2-  O159  1  0.34724852  0.61128671  -0.00312494  1
  O2-  O160  1  0.39526708  0.59121273  0.22993480  1
  O2-  O161  1  0.41660624  0.63419042  0.48947207  1
  O2-  O162  1  0.40869462  0.63092547  0.74282274  1
  O2-  O163  1  0.64133112  0.13860474  -0.01076380  1
  O2-  O164  1  0.65758563  0.14580468  0.24638006  1
  O2-  O165  1  0.58837701  0.11519211  0.49097317  1
  O2-  O166  1  0.62710546  0.15690666  0.73856941  1
  O2-  O167  1  0.68051993  0.63140453  -0.01370713  1
  O2-  O168  1  0.63367664  0.63075245  0.23955452  1
  O2-  O169  1  0.60622242  0.65216389  0.47448731  1
  O2-  O170  1  0.66057355  0.64971196  0.75361730  1
  O2-  O171  1  0.85382524  0.13537259  -0.00634441  1
  O2-  O172  1  0.87267621  0.12124312  0.25714928  1
  O2-  O173  1  0.91125212  0.11932551  0.49664954  1
  O2-  O174  1  0.88842070  0.26137226  0.87295602  1
  O2-  O175  1  0.86808472  0.64647391  0.00723019  1
  O2-  O176  1  0.85481986  0.63759140  0.25420944  1
  O2-  O177  1  0.89854307  0.65620095  0.49980636  1
  O2-  O178  1  0.91196937  0.63120640  0.75406272  1
  O2-  O179  1  0.10968670  0.37588688  0.03772950  1
  O2-  O180  1  0.07099304  0.34740003  0.23169631  1
  O2-  O181  1  0.12207949  0.34197914  0.50869536  1
  O2-  O182  1  0.11176811  0.35818169  0.75736131  1
  O2-  O183  1  0.11715147  0.85535235  0.01364437  1
  O2-  O184  1  0.11875760  0.86124551  0.26806977  1
  O2-  O185  1  0.08854421  0.85915479  0.49274530  1
  O2-  O186  1  0.09180992  0.86257265  0.75862512  1
  O2-  O187  1  0.39285190  0.35054894  -0.00611789  1
  O2-  O188  1  0.40976067  0.37133034  0.25952360  1
  O2-  O189  1  0.43896611  0.37696314  0.46440576  1
  O2-  O190  1  0.37955690  0.34003529  0.77198366  1
  O2-  O191  1  0.32633281  0.86239183  0.02123845  1
  O2-  O192  1  0.30750994  0.86682535  0.22801974  1
  O2-  O193  1  0.35479794  0.83662753  0.47964259  1
  O2-  O194  1  0.32743773  0.86451098  0.73390492  1
  O2-  O195  1  0.60774885  0.36788645  -0.00393863  1
  O2-  O196  1  0.59024379  0.36616417  0.23192165  1
  O2-  O197  1  0.63896934  0.37961172  0.49102147  1
  O2-  O198  1  0.61049345  0.35702285  0.74343544  1
  O2-  O199  1  0.64662252  0.88285716  -0.01120894  1
  O2-  O200  1  0.64872206  0.86076406  0.25945088  1
  O2-  O201  1  0.52327096  0.89755284  0.54704148  1
  O2-  O202  1  0.62909628  0.86124476  0.75838794  1
  O2-  O203  1  0.84742714  0.37870183  -0.00080814  1
  O2-  O204  1  0.89642634  0.37373109  0.25397552  1
  O2-  O205  1  0.98026794  0.37246187  0.41648734  1
  O2-  O206  1  0.87618903  0.36240346  0.74544227  1
  O2-  O207  1  0.89896389  0.85520240  -0.00460724  1
  O2-  O208  1  0.85357415  0.86836579  0.25393454  1
  O2-  O209  1  0.88120818  0.84902441  0.50858646  1
  O2-  O210  1  0.89654442  0.85883354  0.75864325  1
  O2-  O211  1  0.02932108  -0.02049590  -0.09045637  1
  O2-  O212  1  0.00432906  -0.16238047  0.13819288  1
  O2-  O213  1  -0.00186106  0.15286523  0.65509022  1
  O2-  O214  1  -0.00119001  0.13556160  0.85794901  1
  O2-  O215  1  0.00194614  0.60988194  -0.08406656  1
  O2-  O216  1  0.01089353  0.64994525  0.13998595  1
  O2-  O217  1  -0.00619827  0.34569890  0.62267656  1
  O2-  O218  1  -0.01037361  0.41032313  0.88395958  1
  O2-  O219  1  0.29860976  0.11334400  0.09391237  1
  O2-  O220  1  0.22940366  0.10678509  0.25828662  1
  O2-  O221  1  0.22608385  0.11887529  0.41912161  1
  O2-  O222  1  0.25413132  0.11513767  0.61923603  1
  O2-  O223  1  0.28009871  0.38829487  0.12623546  1
  O2-  O224  1  0.23268062  0.36494840  0.30434625  1
  O2-  O225  1  0.27986327  0.38360984  0.48439303  1
  O2-  O226  1  0.25270876  0.38738409  0.64868477  1
  O2-  O227  1  0.47619458  -0.15424298  -0.11792701  1
  O2-  O228  1  0.50062144  -0.16972411  0.16855445  1
  O2-  O229  1  0.49439678  0.15599303  0.62152663  1
  O2-  O230  1  0.43709980  0.02772425  0.72510083  1
  O2-  O231  1  0.50570189  0.63183421  -0.10610278  1
  O2-  O232  1  0.51780505  0.65170704  0.08520395  1
  O2-  O233  1  0.49790564  0.34712754  0.61490361  1
  O2-  O234  1  0.49200410  0.42106557  0.86918110  1
  O2-  O235  1  0.74646521  0.16642591  -0.13968151  1
  O2-  O236  1  0.73600382  0.14168507  0.40248727  1
  O2-  O237  1  0.75199175  0.11467126  0.59211709  1
  O2-  O238  1  0.85421953  0.14866297  0.74060624  1
  O2-  O239  1  0.75916485  0.39983596  0.15103924  1
  O2-  O240  1  0.73848492  0.36980312  0.34921718  1
  O2-  O241  1  0.82947213  0.38536377  0.49780680  1
  O2-  O242  1  0.74439597  0.39240245  0.64604955  1
