# generated using pymatgen
data_Gd19Ta56(WO20)8
_symmetry_space_group_name_H-M   'P 1'
_cell_length_a   15.53710287
_cell_length_b   15.51757296
_cell_length_c   15.29431340
_cell_angle_alpha   90.05506416
_cell_angle_beta   89.90721166
_cell_angle_gamma   89.88017907
_symmetry_Int_Tables_number   1
_chemical_formula_structural   Gd19Ta56(WO20)8
_chemical_formula_sum   'Gd19 Ta56 W8 O160'
_cell_volume   3687.41570718
_cell_formula_units_Z   1
loop_
 _symmetry_equiv_pos_site_id
 _symmetry_equiv_pos_as_xyz
  1  'x, y, z'
loop_
 _atom_type_symbol
 _atom_type_oxidation_number
  Gd3+  3.0
  Ta5+  5.0
  W6+  6.0
  O2-  -2.0
loop_
 _atom_site_type_symbol
 _atom_site_label
 _atom_site_symmetry_multiplicity
 _atom_site_fract_x
 _atom_site_fract_y
 _atom_site_fract_z
 _atom_site_occupancy
  Gd3+  Gd0  1  0.27476145  0.74700236  0.23658132  1
  Gd3+  Gd1  1  0.53344014  0.22739079  0.74814376  1
  Gd3+  Gd2  1  0.00154561  0.75019228  -0.01992413  1
  Gd3+  Gd3  1  0.47747861  0.26491696  0.23820244  1
  Gd3+  Gd4  1  0.48458465  0.75162313  -0.00791302  1
  Gd3+  Gd5  1  0.74436861  0.25884775  0.25031165  1
  Gd3+  Gd6  1  0.74691429  0.25381990  0.50250387  1
  Gd3+  Gd7  1  -0.01417545  0.24707211  0.23353673  1
  Gd3+  Gd8  1  0.24497103  0.24925223  0.74752288  1
  Gd3+  Gd9  1  0.25671758  0.24632528  0.49676563  1
  Gd3+  Gd10  1  0.01963139  0.75837020  0.51702260  1
  Gd3+  Gd11  1  0.01145064  0.75124614  0.26581273  1
  Gd3+  Gd12  1  0.72964066  0.72410952  0.25553137  1
  Gd3+  Gd13  1  0.50617127  0.74698196  0.76284940  1
  Gd3+  Gd14  1  0.51248288  0.25438117  -0.00559042  1
  Gd3+  Gd15  1  0.77187924  0.76263567  0.73705105  1
  Gd3+  Gd16  1  0.24493438  0.25415412  0.22567677  1
  Gd3+  Gd17  1  0.24553368  0.25492176  -0.01051094  1
  Gd3+  Gd18  1  0.71821242  0.75309219  0.01006350  1
  Ta5+  Ta19  1  0.42892517  0.37663098  0.64122466  1
  Ta5+  Ta20  1  0.12190180  0.37458462  0.61709436  1
  Ta5+  Ta21  1  0.13478337  0.61738397  0.38321280  1
  Ta5+  Ta22  1  0.42539530  0.86947837  0.61473789  1
  Ta5+  Ta23  1  0.63252867  0.38284630  0.12171485  1
  Ta5+  Ta24  1  0.36485492  0.61522311  0.87825395  1
  Ta5+  Ta25  1  0.39200622  0.37238376  0.84890028  1
  Ta5+  Ta26  1  0.41087947  0.62427035  0.13769852  1
  Ta5+  Ta27  1  0.87233068  0.61722639  0.11987450  1
  Ta5+  Ta28  1  0.61226751  0.11498653  0.13956758  1
  Ta5+  Ta29  1  0.88369261  0.11693510  0.38712485  1
  Ta5+  Ta30  1  0.13424787  0.11616873  0.86617781  1
  Ta5+  Ta31  1  0.34743096  0.61856248  0.39115807  1
  Ta5+  Ta32  1  0.12781680  0.12305071  0.36527672  1
  Ta5+  Ta33  1  0.40718171  0.38169628  0.43601644  1
  Ta5+  Ta34  1  0.61351580  0.12047270  0.38053306  1
  Ta5+  Ta35  1  0.84520524  0.87507066  0.37797770  1
  Ta5+  Ta36  1  0.36288446  0.87752497  0.86717479  1
  Ta5+  Ta37  1  0.39221959  0.62119577  0.62306400  1
  Ta5+  Ta38  1  0.88613086  0.42521533  0.37374154  1
  Ta5+  Ta39  1  0.60214503  0.37413109  0.62055763  1
  Ta5+  Ta40  1  0.59469849  0.87610845  0.62774256  1
  Ta5+  Ta41  1  0.14500304  0.87919945  0.38046947  1
  Ta5+  Ta42  1  0.84488633  0.89157441  0.88020127  1
  Ta5+  Ta43  1  0.11693888  0.37244189  0.36684963  1
  Ta5+  Ta44  1  0.89946057  0.13414660  0.64672468  1
  Ta5+  Ta45  1  0.82665605  0.38415221  0.87674542  1
  Ta5+  Ta46  1  0.10956430  0.38324477  0.10776753  1
  Ta5+  Ta47  1  0.87848845  0.37630091  0.62954153  1
  Ta5+  Ta48  1  0.56834069  0.86867096  0.14740530  1
  Ta5+  Ta49  1  0.64255247  0.11063310  0.62547221  1
  Ta5+  Ta50  1  0.13338033  0.87217278  0.11447508  1
  Ta5+  Ta51  1  0.36656227  0.38539735  0.10864716  1
  Ta5+  Ta52  1  0.13281948  0.62481398  0.11703567  1
  Ta5+  Ta53  1  0.63535770  0.61826339  0.63769389  1
  Ta5+  Ta54  1  0.84453725  0.61775169  0.87292654  1
  Ta5+  Ta55  1  0.39709989  0.11339230  0.61743487  1
  Ta5+  Ta56  1  0.57815185  0.62571096  0.13380906  1
  Ta5+  Ta57  1  0.66106167  0.37070609  0.86504435  1
  Ta5+  Ta58  1  0.12638193  0.87401374  0.84207231  1
  Ta5+  Ta59  1  0.36517539  0.11585931  0.12031458  1
  Ta5+  Ta60  1  0.40759493  0.11998369  0.37988171  1
  Ta5+  Ta61  1  0.12924764  0.62841064  0.84462263  1
  Ta5+  Ta62  1  0.61676214  0.39350498  0.38224907  1
  Ta5+  Ta63  1  0.88184310  0.07504681  0.12969041  1
  Ta5+  Ta64  1  0.11855548  0.11574379  0.11243532  1
  Ta5+  Ta65  1  0.86834370  0.88145502  0.12740717  1
  Ta5+  Ta66  1  0.87009597  0.42232154  0.12301061  1
  Ta5+  Ta67  1  0.35391330  0.87383065  0.38770809  1
  Ta5+  Ta68  1  0.63791581  0.61280762  0.87671136  1
  Ta5+  Ta69  1  0.67468045  0.13155887  0.88649438  1
  Ta5+  Ta70  1  0.64077199  0.87469516  0.38458852  1
  Ta5+  Ta71  1  0.40171624  0.87622154  0.13063018  1
  Ta5+  Ta72  1  0.88108079  0.62332043  0.62847773  1
  Ta5+  Ta73  1  0.36799457  0.12185815  0.86348066  1
  Ta5+  Ta74  1  0.87711864  0.62048983  0.37658550  1
  W6+  W75  1  0.19274517  0.87733150  0.59193304  1
  W6+  W76  1  0.58475068  0.63616435  0.39207161  1
  W6+  W77  1  0.63448297  0.88734676  0.88098568  1
  W6+  W78  1  0.83474421  0.13669196  0.89299252  1
  W6+  W79  1  0.13311234  0.10443427  0.61856034  1
  W6+  W80  1  0.09989137  0.38215139  0.85945488  1
  W6+  W81  1  0.17687495  0.62180747  0.59274518  1
  W6+  W82  1  0.90226202  0.88451812  0.63003814  1
  O2-  O83  1  0.12417028  -0.00614367  0.12584543  1
  O2-  O84  1  0.14712855  0.00714928  0.34958743  1
  O2-  O85  1  0.20326062  0.00437898  0.59813718  1
  O2-  O86  1  0.10126421  -0.00872654  0.86481669  1
  O2-  O87  1  0.12529783  0.50367416  0.12949139  1
  O2-  O88  1  0.14493398  0.48776554  0.36176131  1
  O2-  O89  1  0.15352978  0.48634614  0.60563163  1
  O2-  O90  1  0.08557225  0.51913464  0.85337103  1
  O2-  O91  1  0.38959356  0.00245950  0.14919515  1
  O2-  O92  1  0.38062476  0.00379706  0.37567905  1
  O2-  O93  1  0.39440898  -0.00752132  0.61257390  1
  O2-  O94  1  0.36549395  -0.00173096  0.86379097  1
  O2-  O95  1  0.37730345  0.50197744  0.11996928  1
  O2-  O96  1  0.36551055  0.48502479  0.39156603  1
  O2-  O97  1  0.41713903  0.50352426  0.62976970  1
  O2-  O98  1  0.37869737  0.49491769  0.87274168  1
  O2-  O99  1  0.59335910  -0.00233272  0.13859970  1
  O2-  O100  1  0.62688390  0.00110858  0.37075209  1
  O2-  O101  1  0.64495380  -0.01028992  0.62434321  1
  O2-  O102  1  0.64151606  0.01940968  0.89233546  1
  O2-  O103  1  0.60839085  0.50014739  0.12166389  1
  O2-  O104  1  0.58454904  0.50582824  0.39579281  1
  O2-  O105  1  0.62309858  0.49667152  0.62902948  1
  O2-  O106  1  0.63075129  0.49008403  0.87216740  1
  O2-  O107  1  0.79528993  -0.02113343  0.14093033  1
  O2-  O108  1  0.86241044  0.00199899  0.35447075  1
  O2-  O109  1  0.89905428  0.01469538  0.64155377  1
  O2-  O110  1  0.86854294  0.00699536  0.89262689  1
  O2-  O111  1  0.79323400  0.52630600  0.14138582  1
  O2-  O112  1  0.80113703  0.51539676  0.36627377  1
  O2-  O113  1  0.88341910  0.50038382  0.62405295  1
  O2-  O114  1  0.87876996  0.50376586  0.86492754  1
  O2-  O115  1  0.14060394  0.25125220  0.09892546  1
  O2-  O116  1  0.18563784  0.25237854  0.36373963  1
  O2-  O117  1  0.17515677  0.25027632  0.61970342  1
  O2-  O118  1  0.14260921  0.24653114  0.87486972  1
  O2-  O119  1  0.06698412  0.74974930  0.12304921  1
  O2-  O120  1  0.11800267  0.74996772  0.38514447  1
  O2-  O121  1  0.15153674  0.75232394  0.57789800  1
  O2-  O122  1  0.07805317  0.74936746  0.85384191  1
  O2-  O123  1  0.34773193  0.24700197  0.10720647  1
  O2-  O124  1  0.38072505  0.26078570  0.39947047  1
  O2-  O125  1  0.41598681  0.24584654  0.63501806  1
  O2-  O126  1  0.43070434  0.23857152  0.86066395  1
  O2-  O127  1  0.38550580  0.74780018  0.13039776  1
  O2-  O128  1  0.32308584  0.74552453  0.38204364  1
  O2-  O129  1  0.44328480  0.73702325  0.62748886  1
  O2-  O130  1  0.39778263  0.74611152  0.87361017  1
  O2-  O131  1  0.61613655  0.25590656  0.16743886  1
  O2-  O132  1  0.64440235  0.24798004  0.37201864  1
  O2-  O133  1  0.62615039  0.24372763  0.60341715  1
  O2-  O134  1  0.60721753  0.24617199  0.87761917  1
  O2-  O135  1  0.63730058  0.74968225  0.13990897  1
  O2-  O136  1  0.65112742  0.74745368  0.37907532  1
  O2-  O137  1  0.63809098  0.75292596  0.66533836  1
  O2-  O138  1  0.63439930  0.74630517  0.86704008  1
  O2-  O139  1  0.98564059  0.35541354  0.13654298  1
  O2-  O140  1  0.81889117  0.22162475  0.37570656  1
  O2-  O141  1  0.84530133  0.25276671  0.61012842  1
  O2-  O142  1  0.82685040  0.26646113  0.89997890  1
  O2-  O143  1  0.82442546  0.75170703  0.12204197  1
  O2-  O144  1  0.84708473  0.74312503  0.36809808  1
  O2-  O145  1  0.89536435  0.75210139  0.62294402  1
  O2-  O146  1  0.83699974  0.75118850  0.88400603  1
  O2-  O147  1  0.15544455  0.11556052  -0.00627378  1
  O2-  O148  1  0.11161589  0.16252044  0.24053441  1
  O2-  O149  1  0.13930195  0.14005707  0.48548953  1
  O2-  O150  1  0.16537722  0.11919113  0.74740899  1
  O2-  O151  1  0.10325724  0.63808436  -0.00375343  1
  O2-  O152  1  0.11031523  0.63843985  0.24994261  1
  O2-  O153  1  0.07299871  0.61806379  0.48991410  1
  O2-  O154  1  0.15100052  0.63383990  0.72770631  1
  O2-  O155  1  0.35484048  0.12296819  -0.00516830  1
  O2-  O156  1  0.36145497  0.15811610  0.26138710  1
  O2-  O157  1  0.34600598  0.12731801  0.49921503  1
  O2-  O158  1  0.34853500  0.12526030  0.73322817  1
  O2-  O159  1  0.39899045  0.62720754  -0.00007986  1
  O2-  O160  1  0.37416584  0.62620893  0.26663929  1
  O2-  O161  1  0.41226709  0.62913420  0.49301650  1
  O2-  O162  1  0.37589317  0.63053214  0.75088019  1
  O2-  O163  1  0.64431155  0.14729467  0.02306918  1
  O2-  O164  1  0.68001444  0.12239182  0.24732196  1
  O2-  O165  1  0.68134321  0.12003938  0.49694133  1
  O2-  O166  1  0.65966731  0.13548315  0.75026600  1
  O2-  O167  1  0.58788454  0.63889953  -0.00238757  1
  O2-  O168  1  0.61029485  0.62906698  0.25699132  1
  O2-  O169  1  0.59248764  0.64239383  0.52946126  1
  O2-  O170  1  0.57512840  0.61623291  0.75517472  1
  O2-  O171  1  0.83601239  0.12648332  0.03405943  1
  O2-  O172  1  0.87019842  0.14761034  0.23444247  1
  O2-  O173  1  0.88045508  0.12108888  0.50656769  1
  O2-  O174  1  0.85832308  0.14777068  0.75869262  1
  O2-  O175  1  0.90739003  0.63725143  -0.00304960  1
  O2-  O176  1  0.89906188  0.64702900  0.24236387  1
  O2-  O177  1  0.89758648  0.63133746  0.49863836  1
  O2-  O178  1  0.90039071  0.64014939  0.75311053  1
  O2-  O179  1  0.08657412  0.38783859  -0.00963898  1
  O2-  O180  1  0.12838301  0.35132570  0.23952413  1
  O2-  O181  1  0.13910022  0.35101228  0.48864873  1
  O2-  O182  1  0.14720903  0.36279528  0.73845142  1
  O2-  O183  1  0.10328191  0.86141871  -0.00668811  1
  O2-  O184  1  0.11714725  0.85619425  0.24789116  1
  O2-  O185  1  0.08886368  0.88953939  0.49085815  1
  O2-  O186  1  0.14136132  0.87368619  0.72376449  1
  O2-  O187  1  0.38035247  0.34842783  -0.01943808  1
  O2-  O188  1  0.35446310  0.35576972  0.23180291  1
  O2-  O189  1  0.33168058  0.36912806  0.53488475  1
  O2-  O190  1  0.32721794  0.37032719  0.73971578  1
  O2-  O191  1  0.39305140  0.87437255  -0.00533052  1
  O2-  O192  1  0.36826005  0.85994964  0.26187179  1
  O2-  O193  1  0.42106884  0.85610325  0.48607246  1
  O2-  O194  1  0.38742790  0.86121478  0.74497779  1
  O2-  O195  1  0.62643873  0.35549582  -0.00001796  1
  O2-  O196  1  0.66452420  0.39045378  0.26752152  1
  O2-  O197  1  0.67079869  0.37727063  0.49520218  1
  O2-  O198  1  0.64839025  0.35169486  0.73691969  1
  O2-  O199  1  0.59026830  0.85037359  0.01504192  1
  O2-  O200  1  0.57283415  0.86440593  0.27261782  1
  O2-  O201  1  0.59048367  0.86571200  0.49871565  1
  O2-  O202  1  0.56815655  0.88094785  0.75702543  1
  O2-  O203  1  0.86267792  0.40751163  0.00533645  1
  O2-  O204  1  0.86412404  0.36975457  0.25992465  1
  O2-  O205  1  0.86151820  0.37758030  0.48632226  1
  O2-  O206  1  0.84965067  0.37184001  0.74632000  1
  O2-  O207  1  0.90772463  0.86078838  0.00608449  1
  O2-  O208  1  0.91088326  0.85734544  0.24437229  1
  O2-  O209  1  0.91536704  0.86673958  0.48101597  1
  O2-  O210  1  0.90461834  0.86591941  0.77132732  1
  O2-  O211  1  -0.04342476  -0.02511381  0.12241852  1
  O2-  O212  1  -0.00387466  0.14428140  0.11838914  1
  O2-  O213  1  -0.00007585  0.14800163  0.36315684  1
  O2-  O214  1  0.01369395  0.16519823  0.64619621  1
  O2-  O215  1  -0.04725741  0.52188670  0.12658836  1
  O2-  O216  1  -0.03520271  0.51739013  0.36567292  1
  O2-  O217  1  -0.00087323  0.34269702  0.36209990  1
  O2-  O218  1  0.00127970  0.36342730  0.61924119  1
  O2-  O219  1  0.24962103  -0.14921029  0.12059316  1
  O2-  O220  1  0.24277131  0.11833006  0.14580985  1
  O2-  O221  1  0.24722806  -0.11256009  0.45745990  1
  O2-  O222  1  0.24154333  -0.14512135  0.87692618  1
  O2-  O223  1  0.24911007  0.64452007  0.12415889  1
  O2-  O224  1  0.24053188  0.38010970  0.08972014  1
  O2-  O225  1  0.23571603  0.60869842  0.45775841  1
  O2-  O226  1  0.24364690  0.63220697  0.88871032  1
  O2-  O227  1  0.49243073  0.15521599  0.11641656  1
  O2-  O228  1  0.51602981  0.13212442  0.29434758  1
  O2-  O229  1  0.51114707  0.12927289  0.45417456  1
  O2-  O230  1  0.51872036  0.11008363  0.64308855  1
  O2-  O231  1  0.49548484  0.35482068  0.11616852  1
  O2-  O232  1  0.50413930  0.35742396  0.34666173  1
  O2-  O233  1  0.50318797  0.37418337  0.51962921  1
  O2-  O234  1  0.48460054  0.37116015  0.76158690  1
  O2-  O235  1  0.74703629  -0.11466093  -0.03394525  1
  O2-  O236  1  0.74400785  -0.13583148  0.29025770  1
  O2-  O237  1  0.75014992  -0.10540482  0.45087726  1
  O2-  O238  1  0.74423555  -0.10961015  0.79944216  1
  O2-  O239  1  0.74419753  0.61268796  -0.04448581  1
  O2-  O240  1  0.75574051  0.35526380  0.12892776  1
  O2-  O241  1  0.75789346  0.63096615  0.62139098  1
  O2-  O242  1  0.74008242  0.62386145  0.79265842  1
