# generated using pymatgen
data_Gd19Ta56(WO20)8
_symmetry_space_group_name_H-M   'P 1'
_cell_length_a   15.49251329
_cell_length_b   15.51234291
_cell_length_c   15.31832397
_cell_angle_alpha   89.97888402
_cell_angle_beta   89.98625912
_cell_angle_gamma   89.98808697
_symmetry_Int_Tables_number   1
_chemical_formula_structural   Gd19Ta56(WO20)8
_chemical_formula_sum   'Gd19 Ta56 W8 O160'
_cell_volume   3681.37851244
_cell_formula_units_Z   1
loop_
 _symmetry_equiv_pos_site_id
 _symmetry_equiv_pos_as_xyz
  1  'x, y, z'
loop_
 _atom_type_symbol
 _atom_type_oxidation_number
  Gd3+  3.0
  Ta5+  5.0
  W6+  6.0
  O2-  -2.0
loop_
 _atom_site_type_symbol
 _atom_site_label
 _atom_site_symmetry_multiplicity
 _atom_site_fract_x
 _atom_site_fract_y
 _atom_site_fract_z
 _atom_site_occupancy
  Gd3+  Gd0  1  0.24155350  0.25008741  0.23729024  1
  Gd3+  Gd1  1  0.01913314  0.75874661  0.00488207  1
  Gd3+  Gd2  1  0.74746392  0.26077218  0.26501884  1
  Gd3+  Gd3  1  0.74044862  0.26480898  -0.02700695  1
  Gd3+  Gd4  1  -0.00266267  0.74052761  0.74480305  1
  Gd3+  Gd5  1  0.24515786  0.24200495  -0.00763723  1
  Gd3+  Gd6  1  0.75227003  0.74709089  0.74502613  1
  Gd3+  Gd7  1  0.73338419  0.75598812  0.49611551  1
  Gd3+  Gd8  1  0.49355419  0.75130771  -0.01068114  1
  Gd3+  Gd9  1  0.71945580  0.74696143  0.25600497  1
  Gd3+  Gd10  1  -0.02538500  0.23325754  0.01975423  1
  Gd3+  Gd11  1  0.00420376  0.22230688  0.24650468  1
  Gd3+  Gd12  1  0.76017188  0.76227593  -0.00493787  1
  Gd3+  Gd13  1  -0.00729868  0.75525115  0.25951033  1
  Gd3+  Gd14  1  0.50233291  0.75171713  0.48120831  1
  Gd3+  Gd15  1  0.27776414  0.75474950  0.50556790  1
  Gd3+  Gd16  1  0.25064039  0.24210851  0.74375215  1
  Gd3+  Gd17  1  0.24269279  0.24846036  0.50090032  1
  Gd3+  Gd18  1  0.28072277  0.75714443  0.74953458  1
  Ta5+  Ta19  1  0.11308790  0.11314088  0.37621120  1
  Ta5+  Ta20  1  0.59814080  0.36347762  0.38021117  1
  Ta5+  Ta21  1  0.56230524  0.12447662  0.62633385  1
  Ta5+  Ta22  1  0.09693615  0.12048833  0.62241614  1
  Ta5+  Ta23  1  0.59908981  0.88999453  0.62512515  1
  Ta5+  Ta24  1  0.63852995  0.61559344  0.86134017  1
  Ta5+  Ta25  1  0.59366881  0.36693323  0.86080293  1
  Ta5+  Ta26  1  0.40466147  0.61458766  0.63217601  1
  Ta5+  Ta27  1  0.85817501  0.61737103  0.13855022  1
  Ta5+  Ta28  1  0.35859073  0.62580140  0.36117073  1
  Ta5+  Ta29  1  0.36132182  0.37978912  0.36728800  1
  Ta5+  Ta30  1  0.08442470  0.37540367  0.36809806  1
  Ta5+  Ta31  1  0.59846997  0.57979711  0.62856574  1
  Ta5+  Ta32  1  0.11197835  0.11410652  0.86363247  1
  Ta5+  Ta33  1  0.38556755  0.89216019  0.87382407  1
  Ta5+  Ta34  1  0.62453315  0.89202950  0.87181504  1
  Ta5+  Ta35  1  0.64899208  0.60712632  0.11427261  1
  Ta5+  Ta36  1  0.62416261  0.14225711  0.12265671  1
  Ta5+  Ta37  1  0.93041784  0.61593619  0.58219816  1
  Ta5+  Ta38  1  0.91779049  0.36923999  0.87539834  1
  Ta5+  Ta39  1  0.65072734  0.89468518  0.11991491  1
  Ta5+  Ta40  1  0.89274185  0.38063683  0.14277780  1
  Ta5+  Ta41  1  0.86170126  0.89301196  0.13312685  1
  Ta5+  Ta42  1  0.36445039  0.38110783  0.87102019  1
  Ta5+  Ta43  1  0.13648025  0.86604193  0.38605402  1
  Ta5+  Ta44  1  0.36177425  0.61553141  0.88628253  1
  Ta5+  Ta45  1  0.09998532  0.36071637  0.62289734  1
  Ta5+  Ta46  1  0.87534876  0.11989791  0.38559368  1
  Ta5+  Ta47  1  0.13146427  0.87985216  0.87025012  1
  Ta5+  Ta48  1  0.38259352  0.12029958  0.11570096  1
  Ta5+  Ta49  1  0.36598606  0.11978226  0.36442090  1
  Ta5+  Ta50  1  0.10926622  0.91662331  0.61505342  1
  Ta5+  Ta51  1  0.41266243  0.13683299  0.86907064  1
  Ta5+  Ta52  1  0.35751448  0.62345936  0.12941910  1
  Ta5+  Ta53  1  0.86739295  0.61962417  0.38135609  1
  Ta5+  Ta54  1  0.61852227  0.89454631  0.36561230  1
  Ta5+  Ta55  1  0.15592953  0.87503842  0.13976804  1
  Ta5+  Ta56  1  0.91122538  0.37759926  0.37749517  1
  Ta5+  Ta57  1  0.35373241  0.87220207  0.12110011  1
  Ta5+  Ta58  1  0.88626296  0.61039115  0.90008016  1
  Ta5+  Ta59  1  0.38017738  0.88060381  0.35382963  1
  Ta5+  Ta60  1  0.10663930  0.62166173  0.39391565  1
  Ta5+  Ta61  1  0.62137005  0.35164920  0.62849183  1
  Ta5+  Ta62  1  0.15610637  0.62548419  0.14350043  1
  Ta5+  Ta63  1  0.42804361  0.88643256  0.62392241  1
  Ta5+  Ta64  1  0.11777274  0.60293835  0.88036823  1
  Ta5+  Ta65  1  0.39681288  0.37826896  0.11666720  1
  Ta5+  Ta66  1  0.08777576  0.35909873  0.87096897  1
  Ta5+  Ta67  1  0.90272304  0.92419988  0.61054412  1
  Ta5+  Ta68  1  0.16605998  0.59943659  0.63435429  1
  Ta5+  Ta69  1  0.60387640  0.13573104  0.37951974  1
  Ta5+  Ta70  1  0.87327973  0.12534704  0.86694814  1
  Ta5+  Ta71  1  0.57982611  0.13381914  0.87566715  1
  Ta5+  Ta72  1  0.93283176  0.36971683  0.62845945  1
  Ta5+  Ta73  1  0.13247401  0.38748720  0.11543677  1
  Ta5+  Ta74  1  0.93007009  0.13913561  0.62610146  1
  W6+  W75  1  0.31449390  0.40542743  0.62096960  1
  W6+  W76  1  0.87379918  0.88233813  0.38765963  1
  W6+  W77  1  0.56532519  0.36615658  0.11577209  1
  W6+  W78  1  0.13354509  0.11307796  0.11390544  1
  W6+  W79  1  0.60740212  0.61414218  0.36459180  1
  W6+  W80  1  0.82740244  0.12198352  0.13109504  1
  W6+  W81  1  0.39848201  0.13784718  0.61794972  1
  W6+  W82  1  0.88117226  0.88458283  0.87231084  1
  O2-  O83  1  0.10806968  -0.01959528  0.12387810  1
  O2-  O84  1  0.11903431  -0.01468192  0.39501645  1
  O2-  O85  1  0.18029380  0.01154111  0.60874311  1
  O2-  O86  1  0.08448193  -0.01246539  0.84487283  1
  O2-  O87  1  0.11666523  0.51263855  0.11907218  1
  O2-  O88  1  0.10077193  0.50294561  0.37114556  1
  O2-  O89  1  0.12426842  0.48607426  0.63630195  1
  O2-  O90  1  0.10279831  0.48637273  0.87423373  1
  O2-  O91  1  0.37797351  -0.00205146  0.11514840  1
  O2-  O92  1  0.34160833  -0.00072930  0.36337615  1
  O2-  O93  1  0.41980104  0.00457011  0.62146774  1
  O2-  O94  1  0.39607404  0.01094458  0.86648468  1
  O2-  O95  1  0.39050261  0.50274664  0.12244030  1
  O2-  O96  1  0.36781638  0.50371702  0.36185197  1
  O2-  O97  1  0.28996384  0.55302268  0.62229729  1
  O2-  O98  1  0.40259841  0.50165149  0.86952374  1
  O2-  O99  1  0.63000212  0.01526517  0.11986724  1
  O2-  O100  1  0.64118875  0.01648885  0.37473955  1
  O2-  O101  1  0.60601206  0.01269507  0.60796183  1
  O2-  O102  1  0.61260646  0.00923102  0.89425874  1
  O2-  O103  1  0.61610646  0.49533377  0.11138380  1
  O2-  O104  1  0.62078706  0.47892173  0.37843219  1
  O2-  O105  1  0.66257020  0.47483190  0.62848455  1
  O2-  O106  1  0.60407999  0.49885981  0.85578704  1
  O2-  O107  1  0.89492400  0.00546334  0.11839816  1
  O2-  O108  1  0.83942845  0.00925912  0.41036477  1
  O2-  O109  1  0.85117580  0.03031858  0.60542759  1
  O2-  O110  1  0.84169081  0.01123232  0.88667802  1
  O2-  O111  1  0.90093297  0.50347991  0.12195882  1
  O2-  O112  1  0.86892570  0.49843046  0.37960531  1
  O2-  O113  1  0.92255852  0.50399017  0.61361083  1
  O2-  O114  1  0.88785303  0.49284480  0.91144698  1
  O2-  O115  1  0.14895450  0.25217347  0.11642910  1
  O2-  O116  1  0.10770573  0.24639886  0.35455869  1
  O2-  O117  1  0.15008281  0.23849238  0.62333835  1
  O2-  O118  1  0.14553686  0.23942188  0.87384256  1
  O2-  O119  1  0.09660983  0.75261988  0.13045761  1
  O2-  O120  1  0.07984017  0.75320365  0.39676444  1
  O2-  O121  1  0.21831926  0.71905035  0.62925853  1
  O2-  O122  1  0.08654317  0.75869624  0.86776498  1
  O2-  O123  1  0.34155482  0.25046390  0.11758467  1
  O2-  O124  1  0.31980423  0.24825556  0.36587888  1
  O2-  O125  1  0.33204430  0.26692345  0.61766196  1
  O2-  O126  1  0.33456919  0.25239168  0.87269811  1
  O2-  O127  1  0.40496887  0.75163911  0.11128163  1
  O2-  O128  1  0.39826663  0.75168668  0.37611543  1
  O2-  O129  1  0.39459038  0.74295185  0.61974619  1
  O2-  O130  1  0.37801624  0.74375766  0.88404531  1
  O2-  O131  1  0.72682389  0.22205403  0.12105595  1
  O2-  O132  1  0.66758653  0.24683663  0.39271236  1
  O2-  O133  1  0.63498462  0.23063855  0.63811581  1
  O2-  O134  1  0.64107147  0.25163626  0.84795807  1
  O2-  O135  1  0.66981599  0.75576950  0.11357508  1
  O2-  O136  1  0.59982143  0.75338686  0.37044778  1
  O2-  O137  1  0.67829126  0.78178321  0.62967120  1
  O2-  O138  1  0.62428156  0.73963155  0.85411334  1
  O2-  O139  1  0.89732003  0.24629681  0.15226257  1
  O2-  O140  1  0.88964317  0.25260958  0.34765221  1
  O2-  O141  1  0.89824745  0.25343989  0.64659790  1
  O2-  O142  1  0.85185991  0.25562749  0.86107440  1
  O2-  O143  1  0.85593947  0.74727162  0.14880959  1
  O2-  O144  1  0.89095155  0.74782844  0.37113767  1
  O2-  O145  1  0.87463552  0.68154046  0.67614887  1
  O2-  O146  1  0.88671616  0.74294101  0.85909340  1
  O2-  O147  1  0.16804237  0.10601357  -0.02532142  1
  O2-  O148  1  0.14965690  0.11942012  0.25482839  1
  O2-  O149  1  0.13330859  0.13867752  0.49605050  1
  O2-  O150  1  0.15461997  0.12084929  0.74528942  1
  O2-  O151  1  0.09856559  0.63415312  -0.00037775  1
  O2-  O152  1  0.10150416  0.64541721  0.26146289  1
  O2-  O153  1  0.15702034  0.61492908  0.50777502  1
  O2-  O154  1  0.15221390  0.63735094  0.75955832  1
  O2-  O155  1  0.36111367  0.13479609  -0.00738912  1
  O2-  O156  1  0.33574273  0.12909753  0.23793976  1
  O2-  O157  1  0.34927819  0.13423596  0.48562991  1
  O2-  O158  1  0.37694670  0.15132284  0.75101833  1
  O2-  O159  1  0.41191963  0.62299966  0.00358779  1
  O2-  O160  1  0.40463213  0.64065286  0.24679066  1
  O2-  O161  1  0.39046850  0.63441253  0.49166874  1
  O2-  O162  1  0.35425636  0.63174185  0.75581891  1
  O2-  O163  1  0.62644631  0.16073676  -0.00267234  1
  O2-  O164  1  0.63046927  0.15408589  0.25156026  1
  O2-  O165  1  0.56342470  0.14496719  0.49546832  1
  O2-  O166  1  0.55859468  0.11774116  0.75228987  1
  O2-  O167  1  0.60359216  0.63672550  -0.01043902  1
  O2-  O168  1  0.59897346  0.64194327  0.22317921  1
  O2-  O169  1  0.61227330  0.63686395  0.51812559  1
  O2-  O170  1  0.67242445  0.62008303  0.73040112  1
  O2-  O171  1  0.84862284  0.15685661  -0.00114282  1
  O2-  O172  1  0.81295712  0.12479970  0.27031536  1
  O2-  O173  1  0.91578067  0.15248851  0.49710425  1
  O2-  O174  1  0.91298690  0.11399514  0.75279437  1
  O2-  O175  1  0.91795599  0.64754386  0.01431729  1
  O2-  O176  1  0.91342904  0.62356698  0.25818915  1
  O2-  O177  1  0.82995893  0.64034623  0.51029534  1
  O2-  O178  1  0.99251417  0.61669672  0.83293684  1
  O2-  O179  1  0.15951200  0.37140018  -0.00806100  1
  O2-  O180  1  0.15926047  0.37757780  0.24221818  1
  O2-  O181  1  0.11743760  0.35694021  0.48828845  1
  O2-  O182  1  0.11746751  0.34573185  0.75057378  1
  O2-  O183  1  0.10458716  0.87749730  -0.01097273  1
  O2-  O184  1  0.10621048  0.85664261  0.26334156  1
  O2-  O185  1  0.16699672  0.85446968  0.51921046  1
  O2-  O186  1  0.11374852  0.85508806  0.72562246  1
  O2-  O187  1  0.34562374  0.37654735  -0.00009477  1
  O2-  O188  1  0.35124780  0.36626051  0.24064532  1
  O2-  O189  1  0.30773774  0.38380367  0.47931135  1
  O2-  O190  1  0.30870686  0.38755965  0.76028916  1
  O2-  O191  1  0.40375311  0.87829443  -0.00171734  1
  O2-  O192  1  0.41096145  0.86891955  0.23737791  1
  O2-  O193  1  0.38453183  0.86197406  0.50185494  1
  O2-  O194  1  0.37812005  0.86817596  0.74381493  1
  O2-  O195  1  0.63167286  0.36649899  -0.01899431  1
  O2-  O196  1  0.61269698  0.34283220  0.25736992  1
  O2-  O197  1  0.58549473  0.35443896  0.51180185  1
  O2-  O198  1  0.55813694  0.36926070  0.73175028  1
  O2-  O199  1  0.59863402  0.86061305  0.00568267  1
  O2-  O200  1  0.60299286  0.87419293  0.24130822  1
  O2-  O201  1  0.61361923  0.86271703  0.49644677  1
  O2-  O202  1  0.63109830  0.89975456  0.74883336  1
  O2-  O203  1  0.86127883  0.34969720  0.01769745  1
  O2-  O204  1  0.82141179  0.38608289  0.24414150  1
  O2-  O205  1  0.91286345  0.36309788  0.49759442  1
  O2-  O206  1  0.92207879  0.39324603  0.75724940  1
  O2-  O207  1  0.90039773  0.84611053  0.01282347  1
  O2-  O208  1  0.91673534  0.88153375  0.24885711  1
  O2-  O209  1  0.83516759  0.85898061  0.52933344  1
  O2-  O210  1  0.89595805  0.87107013  0.72344785  1
  O2-  O211  1  -0.00360444  0.13695838  -0.09280957  1
  O2-  O212  1  -0.00832094  0.10116425  0.33531564  1
  O2-  O213  1  0.00497259  -0.11743826  0.54708903  1
  O2-  O214  1  0.01593974  0.00656518  0.64959122  1
  O2-  O215  1  0.01400149  0.36241799  0.09879462  1
  O2-  O216  1  -0.01152426  0.37301931  0.26502884  1
  O2-  O217  1  -0.01449764  0.61681316  0.45217918  1
  O2-  O218  1  0.04055934  0.65746361  0.62854937  1
  O2-  O219  1  0.24918079  -0.15979762  0.06057262  1
  O2-  O220  1  0.25670736  -0.09584465  0.20509052  1
  O2-  O221  1  0.25536259  -0.15706649  0.37514601  1
  O2-  O222  1  0.25329926  -0.12557998  0.86249814  1
  O2-  O223  1  0.25278902  0.66503404  0.07211827  1
  O2-  O224  1  0.25588659  0.58448577  0.20569168  1
  O2-  O225  1  0.24166738  0.65254513  0.37469767  1
  O2-  O226  1  0.24363224  0.60430203  0.90105395  1
  O2-  O227  1  0.49929291  0.14325157  0.12645317  1
  O2-  O228  1  0.48433002  0.12954267  0.34364666  1
  O2-  O229  1  0.49654826  -0.09298544  0.38563202  1
  O2-  O230  1  0.50459180  -0.14218416  0.86421080  1
  O2-  O231  1  0.47982106  0.34291543  -0.11206694  1
  O2-  O232  1  0.47588942  0.34598792  0.38057993  1
  O2-  O233  1  0.48607471  0.52357001  0.59696001  1
  O2-  O234  1  0.51232924  0.64057455  0.69873233  1
  O2-  O235  1  0.75510502  -0.10008544  0.04736304  1
  O2-  O236  1  0.75526273  -0.11261910  0.20243172  1
  O2-  O237  1  0.73818787  -0.15247303  0.37484332  1
  O2-  O238  1  0.74585301  -0.15277989  0.87036082  1
  O2-  O239  1  0.76306842  0.61933735  0.04459170  1
  O2-  O240  1  0.75351301  0.59799728  0.20044418  1
  O2-  O241  1  0.74644110  0.64897519  0.36897483  1
  O2-  O242  1  0.76317361  0.62292131  0.87238295  1
