# generated using pymatgen
data_Gd19Ta56(WO20)8
_symmetry_space_group_name_H-M   'P 1'
_cell_length_a   15.50969448
_cell_length_b   15.48115570
_cell_length_c   15.36779682
_cell_angle_alpha   90.03567375
_cell_angle_beta   90.00050831
_cell_angle_gamma   90.08763876
_symmetry_Int_Tables_number   1
_chemical_formula_structural   Gd19Ta56(WO20)8
_chemical_formula_sum   'Gd19 Ta56 W8 O160'
_cell_volume   3689.92585208
_cell_formula_units_Z   1
loop_
 _symmetry_equiv_pos_site_id
 _symmetry_equiv_pos_as_xyz
  1  'x, y, z'
loop_
 _atom_type_symbol
 _atom_type_oxidation_number
  Gd3+  3.0
  Ta5+  5.0
  W6+  6.0
  O2-  -2.0
loop_
 _atom_site_type_symbol
 _atom_site_label
 _atom_site_symmetry_multiplicity
 _atom_site_fract_x
 _atom_site_fract_y
 _atom_site_fract_z
 _atom_site_occupancy
  Gd3+  Gd0  1  0.74664097  0.23352921  0.02591764  1
  Gd3+  Gd1  1  -0.01386239  0.75451559  0.73168510  1
  Gd3+  Gd2  1  0.21092319  0.74866482  0.24803325  1
  Gd3+  Gd3  1  -0.04080855  0.24502792  -0.01327166  1
  Gd3+  Gd4  1  0.75959701  0.74608714  0.50350567  1
  Gd3+  Gd5  1  0.25199412  0.26422987  0.50306504  1
  Gd3+  Gd6  1  -0.02280058  0.75719744  0.24813286  1
  Gd3+  Gd7  1  0.26581897  0.75738004  0.50519059  1
  Gd3+  Gd8  1  0.27704341  0.76576246  -0.01176339  1
  Gd3+  Gd9  1  0.51370227  0.75311862  0.49921409  1
  Gd3+  Gd10  1  0.01022341  0.26317464  0.49806982  1
  Gd3+  Gd11  1  -0.01960267  0.24116165  0.21671036  1
  Gd3+  Gd12  1  0.50810587  0.73814084  0.03054682  1
  Gd3+  Gd13  1  0.24786600  0.26599185  0.24264778  1
  Gd3+  Gd14  1  0.28396574  0.26196154  -0.03724169  1
  Gd3+  Gd15  1  0.48076207  0.75231168  0.75633868  1
  Gd3+  Gd16  1  0.52441547  0.26344978  0.75459231  1
  Gd3+  Gd17  1  0.50495951  0.24779904  0.49547240  1
  Gd3+  Gd18  1  -0.03693295  0.76355022  0.00245234  1
  Ta5+  Ta19  1  0.13854955  0.39638582  0.37465739  1
  Ta5+  Ta20  1  0.39442374  0.42335546  0.12005076  1
  Ta5+  Ta21  1  0.10635162  0.90074466  0.11998333  1
  Ta5+  Ta22  1  0.09958689  0.13026611  0.87271363  1
  Ta5+  Ta23  1  0.60618033  0.60582667  0.88321510  1
  Ta5+  Ta24  1  0.82619192  0.38081828  0.86456368  1
  Ta5+  Ta25  1  0.14878356  0.38152848  0.65468813  1
  Ta5+  Ta26  1  0.39362758  0.87912337  0.35336889  1
  Ta5+  Ta27  1  0.14663942  0.13766354  0.11057505  1
  Ta5+  Ta28  1  0.63545270  0.11972123  0.38176484  1
  Ta5+  Ta29  1  0.34147557  0.60901877  0.13319883  1
  Ta5+  Ta30  1  0.12375457  0.39040653  0.10895082  1
  Ta5+  Ta31  1  0.84046779  0.63163241  0.86831985  1
  Ta5+  Ta32  1  0.13507325  0.88459340  0.87124148  1
  Ta5+  Ta33  1  0.88218588  0.61364695  0.37999461  1
  Ta5+  Ta34  1  0.16341473  0.88447228  0.65193394  1
  Ta5+  Ta35  1  0.85328826  0.88962447  0.62606496  1
  Ta5+  Ta36  1  0.62515825  0.86467447  0.88395413  1
  Ta5+  Ta37  1  0.63785641  0.61994227  0.37122692  1
  Ta5+  Ta38  1  0.38402873  0.89105189  0.60370530  1
  Ta5+  Ta39  1  0.86193036  0.13519501  0.60921847  1
  Ta5+  Ta40  1  0.37123179  0.12632335  0.37115628  1
  Ta5+  Ta41  1  0.19431809  0.63073995  0.66513294  1
  Ta5+  Ta42  1  0.67901662  0.62184264  0.12707266  1
  Ta5+  Ta43  1  0.13152942  0.13201585  0.62993578  1
  Ta5+  Ta44  1  0.62857490  0.87801208  0.63604693  1
  Ta5+  Ta45  1  0.39329103  0.61338508  0.37535399  1
  Ta5+  Ta46  1  0.86917593  0.88139858  0.37595243  1
  Ta5+  Ta47  1  0.43477446  0.12422350  0.87716287  1
  Ta5+  Ta48  1  0.13387385  0.62757838  0.86768551  1
  Ta5+  Ta49  1  0.86712569  0.61412476  0.62654145  1
  Ta5+  Ta50  1  0.63382818  0.38205311  0.61627983  1
  Ta5+  Ta51  1  0.66017082  0.36965747  0.87415518  1
  Ta5+  Ta52  1  0.35560562  0.62076613  0.62626035  1
  Ta5+  Ta53  1  0.88209657  0.39676880  0.11270901  1
  Ta5+  Ta54  1  0.64091552  0.87712286  0.37623588  1
  Ta5+  Ta55  1  0.35987591  0.87125914  0.15126933  1
  Ta5+  Ta56  1  0.84860107  0.11896406  0.85920092  1
  Ta5+  Ta57  1  0.37195719  0.11457137  0.12036965  1
  Ta5+  Ta58  1  0.87145937  0.37768965  0.62073038  1
  Ta5+  Ta59  1  0.11011764  0.38139156  0.85038288  1
  Ta5+  Ta60  1  0.36560133  0.58823082  0.87167116  1
  Ta5+  Ta61  1  0.11396153  0.62768727  0.07445482  1
  Ta5+  Ta62  1  0.90927023  0.05474061  0.11211449  1
  Ta5+  Ta63  1  0.90002988  0.11769384  0.36408852  1
  Ta5+  Ta64  1  0.62672862  0.37810531  0.12845977  1
  Ta5+  Ta65  1  0.64372886  0.37056700  0.37127490  1
  Ta5+  Ta66  1  0.61366431  0.11001624  0.13553314  1
  Ta5+  Ta67  1  0.33770574  0.90573547  0.83884478  1
  Ta5+  Ta68  1  0.11626866  0.88230741  0.39853356  1
  Ta5+  Ta69  1  0.11151542  0.63111581  0.41394466  1
  Ta5+  Ta70  1  0.37418268  0.12955577  0.63401198  1
  Ta5+  Ta71  1  0.65521741  0.86684094  0.13002479  1
  Ta5+  Ta72  1  0.14274085  0.12258236  0.36894807  1
  Ta5+  Ta73  1  0.62344763  0.61739911  0.63778320  1
  Ta5+  Ta74  1  0.82132492  0.87409492  0.12701861  1
  W6+  W75  1  0.59808355  0.11701965  0.88434566  1
  W6+  W76  1  0.84032427  0.63200643  0.12656842  1
  W6+  W77  1  0.37856503  0.36972634  0.36746706  1
  W6+  W78  1  0.39300860  0.37916653  0.63422293  1
  W6+  W79  1  0.86672878  0.88525945  0.87156214  1
  W6+  W80  1  0.43589641  0.39963015  0.88563537  1
  W6+  W81  1  0.88843869  0.37802055  0.36342255  1
  W6+  W82  1  0.63486950  0.12270613  0.62997254  1
  O2-  O83  1  0.15583377  0.01071434  0.10522968  1
  O2-  O84  1  0.15528911  -0.00652419  0.37704986  1
  O2-  O85  1  0.13036134  0.01071386  0.64081286  1
  O2-  O86  1  0.11340496  0.01003294  0.88048477  1
  O2-  O87  1  0.08968008  0.51388331  0.10793031  1
  O2-  O88  1  0.16197328  0.52414735  0.38779984  1
  O2-  O89  1  0.16457388  0.50187392  0.65525508  1
  O2-  O90  1  0.11592048  0.50288908  0.87987030  1
  O2-  O91  1  0.34858079  -0.00455075  0.13091838  1
  O2-  O92  1  0.39255284  0.00192191  0.35990596  1
  O2-  O93  1  0.35837946  0.00886104  0.61418014  1
  O2-  O94  1  0.40445944  -0.00407766  0.88380850  1
  O2-  O95  1  0.28875603  0.49637368  0.10741331  1
  O2-  O96  1  0.42241243  0.49927892  0.37278156  1
  O2-  O97  1  0.36694806  0.50293186  0.62268025  1
  O2-  O98  1  0.32018600  0.48175854  0.88965065  1
  O2-  O99  1  0.61422657  -0.01111612  0.12301977  1
  O2-  O100  1  0.66126380  -0.00539809  0.39642615  1
  O2-  O101  1  0.66511300  -0.01031551  0.63540583  1
  O2-  O102  1  0.60738163  -0.01946745  0.88671658  1
  O2-  O103  1  0.64962717  0.49948027  0.11865466  1
  O2-  O104  1  0.64750440  0.50134940  0.39130704  1
  O2-  O105  1  0.59060820  0.50176651  0.61631082  1
  O2-  O106  1  0.65125643  0.49628231  0.88273667  1
  O2-  O107  1  0.98840364  -0.04062607  0.12725963  1
  O2-  O108  1  0.85462347  0.00499159  0.37730340  1
  O2-  O109  1  0.86849429  0.00844739  0.61447085  1
  O2-  O110  1  0.81050793  0.00772936  0.86940735  1
  O2-  O111  1  0.82291445  0.49791604  0.12680626  1
  O2-  O112  1  0.84075180  0.50427417  0.36565585  1
  O2-  O113  1  0.90878185  0.49858767  0.62549942  1
  O2-  O114  1  0.84156905  0.51148836  0.86764460  1
  O2-  O115  1  0.11727826  0.26439715  0.14405067  1
  O2-  O116  1  0.14124751  0.26057513  0.36686031  1
  O2-  O117  1  0.09901320  0.25994880  0.62367446  1
  O2-  O118  1  0.06821346  0.26863565  0.89041597  1
  O2-  O119  1  0.06822800  0.73727946  0.12124440  1
  O2-  O120  1  0.17078140  0.75963703  0.39471838  1
  O2-  O121  1  0.19983980  0.76238905  0.66252273  1
  O2-  O122  1  0.15695721  0.75872014  0.88421289  1
  O2-  O123  1  0.27034995  0.19944186  0.10559317  1
  O2-  O124  1  0.31836934  0.24497803  0.37095036  1
  O2-  O125  1  0.42898328  0.24524052  0.63728272  1
  O2-  O126  1  0.41233739  0.25486017  0.87354791  1
  O2-  O127  1  0.35084428  0.73591151  0.14443390  1
  O2-  O128  1  0.37505479  0.75114299  0.38548324  1
  O2-  O129  1  0.39643377  0.75092714  0.60130577  1
  O2-  O130  1  0.36633833  0.78815842  0.86970841  1
  O2-  O131  1  0.65152206  0.24845284  0.13787710  1
  O2-  O132  1  0.60672636  0.24671065  0.37562258  1
  O2-  O133  1  0.60168192  0.25922878  0.61831213  1
  O2-  O134  1  0.61922388  0.25144698  0.87500271  1
  O2-  O135  1  0.61813807  0.73909376  0.13349476  1
  O2-  O136  1  0.67539051  0.74599726  0.37813037  1
  O2-  O137  1  0.57559176  0.73753913  0.63597409  1
  O2-  O138  1  0.55215957  0.74437738  0.88593628  1
  O2-  O139  1  0.86991192  0.26191651  0.11347401  1
  O2-  O140  1  0.92640116  0.24540334  0.35505280  1
  O2-  O141  1  0.91559522  0.25498640  0.61986747  1
  O2-  O142  1  0.83854982  0.24491162  0.89091442  1
  O2-  O143  1  0.89128674  0.76107442  0.13065344  1
  O2-  O144  1  0.86823514  0.74631404  0.38757739  1
  O2-  O145  1  0.89075110  0.74304967  0.61408686  1
  O2-  O146  1  0.91383684  0.75071443  0.86295924  1
  O2-  O147  1  0.16646549  0.15724484  -0.02137727  1
  O2-  O148  1  0.16363084  0.13031544  0.23837405  1
  O2-  O149  1  0.12316883  0.13897600  0.49789381  1
  O2-  O150  1  0.13949411  0.14973617  0.76110978  1
  O2-  O151  1  0.04305440  0.64229503  -0.03330119  1
  O2-  O152  1  0.08869763  0.66584814  0.29396593  1
  O2-  O153  1  0.15476793  0.65022808  0.53189664  1
  O2-  O154  1  0.08597907  0.64649356  0.75516003  1
  O2-  O155  1  0.37381989  0.13691096  -0.00627737  1
  O2-  O156  1  0.35581524  0.14272382  0.24102808  1
  O2-  O157  1  0.38548406  0.14406180  0.49821808  1
  O2-  O158  1  0.39336831  0.12163809  0.75777319  1
  O2-  O159  1  0.37459477  0.64358696  -0.00512436  1
  O2-  O160  1  0.33462655  0.61727215  0.26556002  1
  O2-  O161  1  0.33967502  0.62115670  0.48766831  1
  O2-  O162  1  0.39976412  0.62867670  0.75536101  1
  O2-  O163  1  0.65470175  0.12443156  0.01691719  1
  O2-  O164  1  0.64364041  0.11185784  0.25563403  1
  O2-  O165  1  0.58622906  0.12294565  0.49929490  1
  O2-  O166  1  0.57793673  0.12255447  0.74594333  1
  O2-  O167  1  0.61106574  0.62997676  0.00602996  1
  O2-  O168  1  0.66336775  0.61733494  0.25178776  1
  O2-  O169  1  0.63126180  0.64711281  0.50941050  1
  O2-  O170  1  0.58148750  0.62308120  0.75678628  1
  O2-  O171  1  0.86767279  0.11673596  0.00659320  1
  O2-  O172  1  0.90101201  0.11046771  0.22557909  1
  O2-  O173  1  0.92076360  0.13690580  0.49306097  1
  O2-  O174  1  0.84491667  0.13604424  0.73769260  1
  O2-  O175  1  0.85383752  0.65068164  -0.01116405  1
  O2-  O176  1  0.89647080  0.63380354  0.25838913  1
  O2-  O177  1  0.82907206  0.61543012  0.50265516  1
  O2-  O178  1  0.89711796  0.63139549  0.75039080  1
  O2-  O179  1  0.17459682  0.36702769  -0.00213854  1
  O2-  O180  1  0.16107512  0.39639566  0.23851858  1
  O2-  O181  1  0.14082112  0.37531628  0.50467699  1
  O2-  O182  1  0.20410995  0.35334776  0.78290761  1
  O2-  O183  1  0.08255752  0.86940518  -0.00011370  1
  O2-  O184  1  0.10189312  0.85983816  0.24775545  1
  O2-  O185  1  0.14694909  0.87083253  0.52431384  1
  O2-  O186  1  0.08193619  0.86567096  0.75730915  1
  O2-  O187  1  0.36916992  0.36276468  0.01639850  1
  O2-  O188  1  0.36139050  0.36148198  0.21855561  1
  O2-  O189  1  0.38132862  0.34301133  0.50430645  1
  O2-  O190  1  0.45055723  0.39386067  0.74831623  1
  O2-  O191  1  0.40381394  0.84842057  0.03793542  1
  O2-  O192  1  0.29304447  0.86854166  0.27404318  1
  O2-  O193  1  0.34905644  0.88437510  0.48003573  1
  O2-  O194  1  0.40258066  0.87977251  0.73239538  1
  O2-  O195  1  0.66900449  0.36025986  0.00745692  1
  O2-  O196  1  0.60653154  0.38581130  0.25559553  1
  O2-  O197  1  0.59022104  0.37288533  0.49098787  1
  O2-  O198  1  0.64067276  0.37614832  0.74059185  1
  O2-  O199  1  0.60119080  0.84923774  0.00778772  1
  O2-  O200  1  0.65181528  0.87488632  0.25568611  1
  O2-  O201  1  0.64431679  0.84382225  0.50975894  1
  O2-  O202  1  0.58982178  0.85801167  0.75638438  1
  O2-  O203  1  0.85849964  0.37562858  -0.01063780  1
  O2-  O204  1  0.92380022  0.37647399  0.22973115  1
  O2-  O205  1  0.90987411  0.36905493  0.49995523  1
  O2-  O206  1  0.85515366  0.36575589  0.74364488  1
  O2-  O207  1  0.85952385  0.87402995  0.00718800  1
  O2-  O208  1  0.87284633  0.87224025  0.25165760  1
  O2-  O209  1  0.83401955  0.87432503  0.50012679  1
  O2-  O210  1  0.90220918  0.87786915  0.73848360  1
  O2-  O211  1  0.01991191  0.13992687  0.09211023  1
  O2-  O212  1  0.02313694  0.10447273  0.34657640  1
  O2-  O213  1  -0.00357038  -0.12888040  0.39393729  1
  O2-  O214  1  -0.02323339  0.12719685  0.87107438  1
  O2-  O215  1  0.00798647  0.36862156  0.06966642  1
  O2-  O216  1  0.02238852  0.40221293  0.36974191  1
  O2-  O217  1  -0.00417344  0.60525795  0.43768828  1
  O2-  O218  1  0.04932758  0.38900499  0.74394667  1
  O2-  O219  1  0.24926077  -0.09851866  -0.06527014  1
  O2-  O220  1  0.22451085  -0.15675726  0.11646890  1
  O2-  O221  1  0.25391253  0.15696065  0.61951465  1
  O2-  O222  1  0.23120256  -0.08601245  0.77069126  1
  O2-  O223  1  0.20462272  0.62948091  -0.01294607  1
  O2-  O224  1  0.21238928  0.63898471  0.15185315  1
  O2-  O225  1  0.26202757  0.34255981  0.62567955  1
  O2-  O226  1  0.24529966  0.62147303  0.80942821  1
  O2-  O227  1  0.49268315  0.12849610  0.12977975  1
  O2-  O228  1  0.45102853  -0.13459239  0.23165348  1
  O2-  O229  1  0.51601701  -0.13900180  0.39397573  1
  O2-  O230  1  0.50792386  -0.11119016  0.58782480  1
  O2-  O231  1  0.50978720  0.37657327  0.10440610  1
  O2-  O232  1  0.44619859  0.54237681  0.13811200  1
  O2-  O233  1  0.51441139  0.65158156  0.37335316  1
  O2-  O234  1  0.48388224  0.54830634  0.89011299  1
  O2-  O235  1  0.73844574  -0.16002273  -0.13050155  1
  O2-  O236  1  0.80140426  0.00106896  0.13132476  1
  O2-  O237  1  0.75323566  0.15391159  0.56898269  1
  O2-  O238  1  0.74274686  -0.17648306  0.64933516  1
  O2-  O239  1  0.72335424  0.65465623  -0.14587518  1
  O2-  O240  1  0.75705488  0.34429031  0.36509669  1
  O2-  O241  1  0.75299143  0.39047372  0.59036253  1
  O2-  O242  1  0.74360652  0.61722259  0.65578886  1
