# generated using pymatgen
data_Gd19Ta56(WO20)8
_symmetry_space_group_name_H-M   'P 1'
_cell_length_a   15.55529256
_cell_length_b   15.63990576
_cell_length_c   14.98614097
_cell_angle_alpha   89.62922018
_cell_angle_beta   90.05718307
_cell_angle_gamma   89.87615953
_symmetry_Int_Tables_number   1
_chemical_formula_structural   Gd19Ta56(WO20)8
_chemical_formula_sum   'Gd19 Ta56 W8 O160'
_cell_volume   3645.79125178
_cell_formula_units_Z   1
loop_
 _symmetry_equiv_pos_site_id
 _symmetry_equiv_pos_as_xyz
  1  'x, y, z'
loop_
 _atom_type_symbol
 _atom_type_oxidation_number
  Gd3+  3.0
  Ta5+  5.0
  W6+  6.0
  O2-  -2.0
loop_
 _atom_site_type_symbol
 _atom_site_label
 _atom_site_symmetry_multiplicity
 _atom_site_fract_x
 _atom_site_fract_y
 _atom_site_fract_z
 _atom_site_occupancy
  Gd3+  Gd0  1  0.47350233  0.28499289  0.01169508  1
  Gd3+  Gd1  1  0.40695405  0.76658385  0.50717922  1
  Gd3+  Gd2  1  0.49577008  0.24685800  0.50588975  1
  Gd3+  Gd3  1  0.71320703  0.77025375  0.79163815  1
  Gd3+  Gd4  1  0.27199705  0.74764794  0.00904198  1
  Gd3+  Gd5  1  0.23198422  0.74272755  0.27603177  1
  Gd3+  Gd6  1  0.02305553  0.25915530  0.23979603  1
  Gd3+  Gd7  1  0.01688542  0.75712750  0.50282621  1
  Gd3+  Gd8  1  0.00827381  0.74956549  0.25851048  1
  Gd3+  Gd9  1  0.48312436  0.26337078  0.24458835  1
  Gd3+  Gd10  1  0.72623695  0.74091915  0.54449618  1
  Gd3+  Gd11  1  0.76183575  0.20827758  0.25060807  1
  Gd3+  Gd12  1  0.02770385  0.25095572  0.51579388  1
  Gd3+  Gd13  1  -0.02437164  0.74322909  0.01837236  1
  Gd3+  Gd14  1  -0.00422358  0.72180737  0.75235586  1
  Gd3+  Gd15  1  0.27165589  0.76885650  0.75786148  1
  Gd3+  Gd16  1  0.01883124  0.24175338  0.78018666  1
  Gd3+  Gd17  1  0.50139604  0.77119339  -0.02344092  1
  Gd3+  Gd18  1  0.48713285  0.23947409  0.77073072  1
  Ta5+  Ta19  1  0.85353475  0.86877180  0.13112115  1
  Ta5+  Ta20  1  0.32788692  0.60950269  0.61814688  1
  Ta5+  Ta21  1  0.16017507  0.11264404  0.63246703  1
  Ta5+  Ta22  1  0.40465963  0.60362334  0.85033937  1
  Ta5+  Ta23  1  0.34500131  0.36549328  0.63792551  1
  Ta5+  Ta24  1  0.87506019  0.87619595  0.37133057  1
  Ta5+  Ta25  1  0.33137858  0.37355319  0.86233912  1
  Ta5+  Ta26  1  0.32053975  0.37696535  0.12521769  1
  Ta5+  Ta27  1  0.64112672  0.13570457  0.64262242  1
  Ta5+  Ta28  1  0.39214402  0.91920578  0.11184000  1
  Ta5+  Ta29  1  0.85267722  0.12254436  0.88387715  1
  Ta5+  Ta30  1  0.86777419  0.36434851  0.36967060  1
  Ta5+  Ta31  1  0.87454887  0.36738245  0.12504319  1
  Ta5+  Ta32  1  0.17668245  0.13540944  0.89089062  1
  Ta5+  Ta33  1  0.07931538  0.90034187  0.64075528  1
  Ta5+  Ta34  1  0.38283096  0.61135544  0.15653741  1
  Ta5+  Ta35  1  0.86819061  0.14543182  0.63664992  1
  Ta5+  Ta36  1  0.87395463  0.61323152  0.14194426  1
  Ta5+  Ta37  1  0.17740668  0.34765713  0.64272590  1
  Ta5+  Ta38  1  0.61798894  0.11925620  0.09103053  1
  Ta5+  Ta39  1  0.90359298  0.10649842  0.13043568  1
  Ta5+  Ta40  1  0.62689834  0.37573094  0.37686017  1
  Ta5+  Ta41  1  0.89156221  0.61009766  0.61155807  1
  Ta5+  Ta42  1  0.16455282  0.37998757  0.86159697  1
  Ta5+  Ta43  1  0.40259678  0.86946775  0.30557229  1
  Ta5+  Ta44  1  0.62815971  0.38045443  0.63934350  1
  Ta5+  Ta45  1  0.61691413  0.89334159  0.65095185  1
  Ta5+  Ta46  1  0.88302411  0.60858372  0.38697163  1
  Ta5+  Ta47  1  0.60788705  0.60831503  0.88410812  1
  Ta5+  Ta48  1  0.62231193  0.11337390  0.37886430  1
  Ta5+  Ta49  1  0.57833222  0.62154277  0.65705508  1
  Ta5+  Ta50  1  0.67251257  0.39583030  0.13345238  1
  Ta5+  Ta51  1  0.61306280  0.63364792  0.12946989  1
  Ta5+  Ta52  1  0.14762139  0.14090016  0.10438474  1
  Ta5+  Ta53  1  0.86550108  0.37419516  0.63216827  1
  Ta5+  Ta54  1  0.91776388  0.88559527  0.87846562  1
  Ta5+  Ta55  1  0.34631931  0.35430701  0.38350601  1
  Ta5+  Ta56  1  0.84087683  0.92201272  0.57193389  1
  Ta5+  Ta57  1  0.09500320  0.56111325  0.57645976  1
  Ta5+  Ta58  1  0.13959121  0.61194598  0.10916358  1
  Ta5+  Ta59  1  0.33764354  0.55030097  0.37785738  1
  Ta5+  Ta60  1  0.34866487  0.12829801  0.90695348  1
  Ta5+  Ta61  1  0.37889515  0.10736930  0.34738860  1
  Ta5+  Ta62  1  0.34532934  0.13462022  0.64830725  1
  Ta5+  Ta63  1  0.61404074  0.89166511  0.12983369  1
  Ta5+  Ta64  1  0.14107339  0.12598178  0.36809985  1
  Ta5+  Ta65  1  0.11310460  0.56096434  0.34034924  1
  Ta5+  Ta66  1  0.64809689  0.97520728  0.90439502  1
  Ta5+  Ta67  1  0.64624876  0.36568615  0.89609168  1
  Ta5+  Ta68  1  0.31551564  0.14295690  0.11723317  1
  Ta5+  Ta69  1  0.12534038  0.61264970  0.89961357  1
  Ta5+  Ta70  1  0.62126742  0.86861139  0.38411217  1
  Ta5+  Ta71  1  0.37709355  0.94915346  0.63934147  1
  Ta5+  Ta72  1  0.18041096  0.35087156  0.38076990  1
  Ta5+  Ta73  1  0.12508158  0.90010994  0.85509644  1
  Ta5+  Ta74  1  0.15527294  0.37062522  0.11558327  1
  W6+  W75  1  0.88252540  0.37293874  0.89709150  1
  W6+  W76  1  0.04924834  0.94832445  0.19985945  1
  W6+  W77  1  0.51566411  1.05792742  0.96483934  1
  W6+  W78  1  0.63044506  0.62592038  0.38543577  1
  W6+  W79  1  0.88110963  0.10987500  0.38821118  1
  W6+  W80  1  0.12814318  0.89274966  0.37911240  1
  W6+  W81  1  0.65593846  0.15747681  0.90340869  1
  W6+  W82  1  0.85680260  0.61989738  0.87760568  1
  O2-  O83  1  0.12391584  0.02267729  0.12318029  1
  O2-  O84  1  0.10317915  0.01807493  0.32849130  1
  O2-  O85  1  0.07299260  0.02308685  0.65010071  1
  O2-  O86  1  0.16291268  0.00350614  0.89306448  1
  O2-  O87  1  0.12379293  0.49656884  0.13506534  1
  O2-  O88  1  0.08465565  0.44979291  0.36642996  1
  O2-  O89  1  0.09604494  0.44624361  0.59308780  1
  O2-  O90  1  0.14017894  0.51052441  0.84251700  1
  O2-  O91  1  0.32369336  0.01564366  0.12080207  1
  O2-  O92  1  0.37052847  -0.02107194  0.33342305  1
  O2-  O93  1  0.44001023  0.05919892  0.61867432  1
  O2-  O94  1  0.39395191  0.01841114  0.91357733  1
  O2-  O95  1  0.33669763  0.50526237  0.13074783  1
  O2-  O96  1  0.42531368  0.47146990  0.37255188  1
  O2-  O97  1  0.34823565  0.48925797  0.62473517  1
  O2-  O98  1  0.35637024  0.49933104  0.87571363  1
  O2-  O99  1  0.64982233  0.00498849  0.14159502  1
  O2-  O100  1  0.64240540  -0.00767674  0.39064623  1
  O2-  O101  1  0.64619138  0.01474758  0.64065029  1
  O2-  O102  1  0.74571118  0.05120201  0.88326422  1
  O2-  O103  1  0.66806906  0.51170127  0.13816514  1
  O2-  O104  1  0.62471820  0.49213361  0.37246914  1
  O2-  O105  1  0.58974303  0.49513607  0.64909608  1
  O2-  O106  1  0.62683132  0.48535740  0.88836734  1
  O2-  O107  1  0.91828361  -0.01794691  0.13314994  1
  O2-  O108  1  0.87573732  -0.02009001  0.44747220  1
  O2-  O109  1  0.82703117  0.02938260  0.62564702  1
  O2-  O110  1  0.90095695  0.00063989  0.86323630  1
  O2-  O111  1  0.86928529  0.49444743  0.13504514  1
  O2-  O112  1  0.86933306  0.48843709  0.38840868  1
  O2-  O113  1  0.90244331  0.48370540  0.60171111  1
  O2-  O114  1  0.86740073  0.49386322  0.90129418  1
  O2-  O115  1  0.09419171  0.26197571  0.10482928  1
  O2-  O116  1  0.08351482  0.24699455  0.37646698  1
  O2-  O117  1  0.09889545  0.22561228  0.64720771  1
  O2-  O118  1  0.14392579  0.25409852  0.86839107  1
  O2-  O119  1  -0.00658161  0.83905963  0.13532325  1
  O2-  O120  1  0.10962162  0.75686316  0.38512007  1
  O2-  O121  1  0.07619006  0.77173370  0.63819391  1
  O2-  O122  1  0.14624852  0.69232304  0.80660447  1
  O2-  O123  1  0.36669520  0.25837467  0.12709248  1
  O2-  O124  1  0.39018315  0.23227552  0.37941773  1
  O2-  O125  1  0.40939245  0.24351663  0.63739896  1
  O2-  O126  1  0.38623190  0.25667098  0.88617887  1
  O2-  O127  1  0.25513798  0.66733126  0.14382035  1
  O2-  O128  1  0.33741333  0.78780463  0.37537047  1
  O2-  O129  1  0.30888652  0.73612718  0.61004544  1
  O2-  O130  1  0.35589657  0.71389571  0.88709725  1
  O2-  O131  1  0.54860381  0.21903919  0.12373587  1
  O2-  O132  1  0.57646581  0.25215599  0.37235302  1
  O2-  O133  1  0.58214930  0.26204101  0.63871921  1
  O2-  O134  1  0.56833553  0.27007370  0.89406999  1
  O2-  O135  1  0.58051746  0.75375048  0.10350712  1
  O2-  O136  1  0.66793353  0.75686921  0.40461319  1
  O2-  O137  1  0.62254039  0.75772507  0.66768030  1
  O2-  O138  1  0.59835651  0.73572183  0.87208554  1
  O2-  O139  1  0.88700429  0.23706852  0.14707203  1
  O2-  O140  1  0.88461901  0.24062807  0.34244945  1
  O2-  O141  1  0.92979089  0.26468142  0.64532576  1
  O2-  O142  1  0.89359359  0.24044657  0.87731442  1
  O2-  O143  1  0.99533699  0.63062255  0.12719158  1
  O2-  O144  1  0.90822903  0.74889791  0.38384047  1
  O2-  O145  1  0.89784261  0.73378996  0.60149796  1
  O2-  O146  1  0.86605936  0.77977035  0.82890508  1
  O2-  O147  1  0.09218465  0.13434966  -0.01484655  1
  O2-  O148  1  0.13868375  0.16060909  0.24064557  1
  O2-  O149  1  0.11131684  0.12134910  0.49698444  1
  O2-  O150  1  0.17204878  0.12218769  0.75884615  1
  O2-  O151  1  0.11459297  0.70800093  0.02079439  1
  O2-  O152  1  0.11775734  0.65506464  0.23267850  1
  O2-  O153  1  0.13897594  0.59458361  0.45784583  1
  O2-  O154  1  0.20268327  0.59486870  0.62244665  1
  O2-  O155  1  0.41801920  0.14761159  0.02301513  1
  O2-  O156  1  0.40806949  0.13023289  0.22881136  1
  O2-  O157  1  0.49380732  0.09806501  0.39723135  1
  O2-  O158  1  0.36460348  0.13746953  0.77357119  1
  O2-  O159  1  0.40024488  0.69875856  0.07062125  1
  O2-  O160  1  0.38356488  0.63450010  0.28171711  1
  O2-  O161  1  0.34490383  0.61965083  0.48164706  1
  O2-  O162  1  0.33157048  0.62842718  0.74541717  1
  O2-  O163  1  0.70477604  0.17988790  0.03604447  1
  O2-  O164  1  0.62903171  0.13351980  0.25225233  1
  O2-  O165  1  0.60768233  0.14307819  0.51716234  1
  O2-  O166  1  0.60671248  0.14535003  0.76297728  1
  O2-  O167  1  0.65475032  0.62393970  0.00305861  1
  O2-  O168  1  0.64656720  0.65008492  0.24561309  1
  O2-  O169  1  0.62844655  0.63007419  0.54107464  1
  O2-  O170  1  0.66587016  0.62419519  0.76234253  1
  O2-  O171  1  0.87787728  0.11223747  0.00723600  1
  O2-  O172  1  0.85078712  0.09476959  0.24998727  1
  O2-  O173  1  0.92038589  0.14462103  0.52175399  1
  O2-  O174  1  0.91027360  0.12749652  0.75416824  1
  O2-  O175  1  0.85315230  0.64608206  0.02130265  1
  O2-  O176  1  0.83443498  0.61941954  0.27041950  1
  O2-  O177  1  0.81389648  0.62400128  0.49843517  1
  O2-  O178  1  0.86370577  0.62010035  0.73390167  1
  O2-  O179  1  0.14973546  0.39032748  -0.01514011  1
  O2-  O180  1  0.15436328  0.34592309  0.24972204  1
  O2-  O181  1  0.16445162  0.32144709  0.51045790  1
  O2-  O182  1  0.08814496  0.36503090  0.74698017  1
  O2-  O183  1  0.21228459  0.82872252  -0.10279467  1
  O2-  O184  1  0.14164758  0.85321839  0.24357134  1
  O2-  O185  1  0.11472081  0.89593704  0.52184537  1
  O2-  O186  1  0.17118635  0.88619082  0.73109272  1
  O2-  O187  1  0.34724496  0.37550551  -0.00343571  1
  O2-  O188  1  0.36339862  0.36360035  0.25346620  1
  O2-  O189  1  0.38091763  0.34987005  0.51356839  1
  O2-  O190  1  0.41843995  0.37184314  0.75261155  1
  O2-  O191  1  0.37552622  0.85427081  0.00896948  1
  O2-  O192  1  0.32555153  0.84338999  0.20188513  1
  O2-  O193  1  0.36062481  0.89558338  0.53152671  1
  O2-  O194  1  0.35145934  0.88232906  0.73879200  1
  O2-  O195  1  0.60361274  0.37003751  0.02927802  1
  O2-  O196  1  0.59986778  0.36490838  0.24223276  1
  O2-  O197  1  0.59018849  0.36639391  0.50305785  1
  O2-  O198  1  0.65444357  0.36103633  0.76329596  1
  O2-  O199  1  0.61111066  0.88472184  -0.01163343  1
  O2-  O200  1  0.63588209  0.86532711  0.25994741  1
  O2-  O201  1  0.62930057  0.87085540  0.52584459  1
  O2-  O202  1  0.64371901  0.90398683  0.78793656  1
  O2-  O203  1  0.94160758  0.36068249  0.02344779  1
  O2-  O204  1  0.93207344  0.37780259  0.25563964  1
  O2-  O205  1  0.90735564  0.34508730  0.48942523  1
  O2-  O206  1  0.86365725  0.38046735  0.75338590  1
  O2-  O207  1  0.87298585  0.86159168  -0.00259907  1
  O2-  O208  1  0.86717731  0.74792153  0.16111535  1
  O2-  O209  1  0.79699158  0.84863763  0.47339509  1
  O2-  O210  1  0.76223131  0.86033816  0.64964187  1
  O2-  O211  1  0.03224697  -0.13706857  -0.06184320  1
  O2-  O212  1  -0.00924509  -0.11343862  0.32581838  1
  O2-  O213  1  -0.04601632  -0.10220122  0.60019085  1
  O2-  O214  1  0.01229544  -0.12534966  0.77404985  1
  O2-  O215  1  0.00223529  0.64600791  -0.10566900  1
  O2-  O216  1  -0.00337649  0.60869013  0.32991938  1
  O2-  O217  1  -0.01869046  0.61122602  0.50389129  1
  O2-  O218  1  0.01836745  0.60259204  0.66825263  1
  O2-  O219  1  0.25451774  0.17480844  -0.00001280  1
  O2-  O220  1  0.26021388  0.11216277  0.38475323  1
  O2-  O221  1  0.25475336  0.17832476  0.57531580  1
  O2-  O222  1  0.26864019  0.02366305  0.63627463  1
  O2-  O223  1  0.21382641  0.59551200  -0.00767192  1
  O2-  O224  1  0.23411779  0.57910482  0.30686899  1
  O2-  O225  1  0.26055595  0.45536150  0.41514777  1
  O2-  O226  1  0.26114132  0.32660086  0.74720505  1
  O2-  O227  1  0.50000761  -0.03211618  0.07890563  1
  O2-  O228  1  0.48303949  -0.12592753  0.20390817  1
  O2-  O229  1  0.49984591  -0.15034900  0.39247683  1
  O2-  O230  1  0.49903609  -0.10067381  0.64950468  1
  O2-  O231  1  0.49365607  0.61861480  -0.05504337  1
  O2-  O232  1  0.50380882  0.58345439  0.14692626  1
  O2-  O233  1  0.46369890  0.64564881  0.61670720  1
  O2-  O234  1  0.50754557  0.59469773  0.77929217  1
  O2-  O235  1  0.73318215  -0.13996637  0.11002742  1
  O2-  O236  1  0.82500963  -0.10872499  0.26145554  1
  O2-  O237  1  0.74036087  0.14782842  0.39122918  1
  O2-  O238  1  0.75359797  0.18882869  0.64260861  1
  O2-  O239  1  0.77010284  0.36894093  0.05160486  1
  O2-  O240  1  0.76689962  0.35310930  0.21689557  1
  O2-  O241  1  0.74521720  0.34916328  0.39128403  1
  O2-  O242  1  0.74560010  0.37746656  0.60119255  1
