# generated using pymatgen
data_Gd19Ta56(WO20)8
_symmetry_space_group_name_H-M   'P 1'
_cell_length_a   15.48057767
_cell_length_b   15.39283360
_cell_length_c   15.38946843
_cell_angle_alpha   89.83415376
_cell_angle_beta   90.13609953
_cell_angle_gamma   89.63485005
_symmetry_Int_Tables_number   1
_chemical_formula_structural   Gd19Ta56(WO20)8
_chemical_formula_sum   'Gd19 Ta56 W8 O160'
_cell_volume   3667.05541316
_cell_formula_units_Z   1
loop_
 _symmetry_equiv_pos_site_id
 _symmetry_equiv_pos_as_xyz
  1  'x, y, z'
loop_
 _atom_type_symbol
 _atom_type_oxidation_number
  Gd3+  3.0
  Ta5+  5.0
  W6+  6.0
  O2-  -2.0
loop_
 _atom_site_type_symbol
 _atom_site_label
 _atom_site_symmetry_multiplicity
 _atom_site_fract_x
 _atom_site_fract_y
 _atom_site_fract_z
 _atom_site_occupancy
  Gd3+  Gd0  1  0.00832235  0.75183768  -0.04285448  1
  Gd3+  Gd1  1  0.49881637  0.25393215  0.51598283  1
  Gd3+  Gd2  1  0.76753713  0.74190338  0.00413663  1
  Gd3+  Gd3  1  0.24976513  0.73988247  0.24231255  1
  Gd3+  Gd4  1  0.75512207  0.76648561  0.49173009  1
  Gd3+  Gd5  1  0.26164604  0.23683413  0.23908752  1
  Gd3+  Gd6  1  0.72766890  0.27032509  0.75438387  1
  Gd3+  Gd7  1  0.52345743  0.75167027  0.50604521  1
  Gd3+  Gd8  1  0.01046372  0.22940811  0.74037919  1
  Gd3+  Gd9  1  0.49704642  0.73899568  0.24395542  1
  Gd3+  Gd10  1  0.52529685  0.72154786  0.74381649  1
  Gd3+  Gd11  1  0.71049501  0.29032185  0.23249843  1
  Gd3+  Gd12  1  -0.00100627  0.25287179  0.24144810  1
  Gd3+  Gd13  1  0.00515970  0.74968439  0.49004610  1
  Gd3+  Gd14  1  0.26224131  0.73348262  0.48247292  1
  Gd3+  Gd15  1  0.77269701  0.75525085  0.23794813  1
  Gd3+  Gd16  1  0.26203748  0.23863715  0.48877333  1
  Gd3+  Gd17  1  0.49490859  0.23511388  0.75728283  1
  Gd3+  Gd18  1  0.75129473  0.27718776  -0.00403250  1
  Ta5+  Ta19  1  0.39580421  0.59337090  0.11597153  1
  Ta5+  Ta20  1  0.39901704  0.59947130  0.37233599  1
  Ta5+  Ta21  1  0.88111858  0.61165065  0.86611556  1
  Ta5+  Ta22  1  0.37741435  0.87715089  0.36499094  1
  Ta5+  Ta23  1  0.37275094  0.87611595  0.62644496  1
  Ta5+  Ta24  1  0.65226478  0.62217010  0.88095721  1
  Ta5+  Ta25  1  0.37560586  0.87506624  0.11551972  1
  Ta5+  Ta26  1  0.14619448  0.61502804  0.86587033  1
  Ta5+  Ta27  1  0.55866831  0.44852360  0.86716888  1
  Ta5+  Ta28  1  0.39376946  0.12422092  0.11072500  1
  Ta5+  Ta29  1  0.87369721  0.12824230  0.87386481  1
  Ta5+  Ta30  1  0.92841049  0.87889316  0.10834163  1
  Ta5+  Ta31  1  0.09756153  0.86061830  0.12006304  1
  Ta5+  Ta32  1  0.86312139  0.13183252  0.61051874  1
  Ta5+  Ta33  1  0.41960579  0.12451364  0.36183897  1
  Ta5+  Ta34  1  0.55510233  0.39386399  0.36932326  1
  Ta5+  Ta35  1  0.07650883  0.37632441  0.87340307  1
  Ta5+  Ta36  1  0.93069547  0.62703558  0.11694495  1
  Ta5+  Ta37  1  0.09732550  0.11397569  0.12567821  1
  Ta5+  Ta38  1  0.87399529  0.61859591  0.36545389  1
  Ta5+  Ta39  1  0.85756284  0.88482766  0.86398802  1
  Ta5+  Ta40  1  0.10908888  0.11267903  0.38151934  1
  Ta5+  Ta41  1  0.88324981  0.38849694  0.12246925  1
  Ta5+  Ta42  1  0.09853754  0.62009412  0.11448269  1
  Ta5+  Ta43  1  0.62652920  0.59667249  0.37379084  1
  Ta5+  Ta44  1  0.63953343  0.88245847  0.89024241  1
  Ta5+  Ta45  1  0.13751868  0.37500304  0.11180801  1
  Ta5+  Ta46  1  0.12402051  0.61444294  0.36697375  1
  Ta5+  Ta47  1  0.12493446  0.87913890  0.35976022  1
  Ta5+  Ta48  1  0.62525270  0.90375579  0.34295010  1
  Ta5+  Ta49  1  0.35717293  0.57676066  0.61739395  1
  Ta5+  Ta50  1  0.63347868  0.58403618  0.12599843  1
  Ta5+  Ta51  1  0.88406448  0.88742622  0.35906402  1
  Ta5+  Ta52  1  0.37210897  0.11106274  0.62516314  1
  Ta5+  Ta53  1  0.66606415  0.88372107  0.67951739  1
  Ta5+  Ta54  1  0.36015837  0.10434139  0.87965013  1
  Ta5+  Ta55  1  0.61121632  0.91555454  0.12720820  1
  Ta5+  Ta56  1  0.12485113  0.12039845  0.88544324  1
  Ta5+  Ta57  1  0.13907728  0.10509585  0.62885261  1
  Ta5+  Ta58  1  0.87800423  0.12264492  0.37872242  1
  Ta5+  Ta59  1  0.92341150  0.37172435  0.61148142  1
  Ta5+  Ta60  1  0.87864120  0.61763775  0.61472900  1
  Ta5+  Ta61  1  0.34655961  0.35984567  0.86969800  1
  Ta5+  Ta62  1  0.59396635  0.39320697  0.63162910  1
  Ta5+  Ta63  1  0.62211532  0.12192089  0.62962599  1
  Ta5+  Ta64  1  0.38531233  0.37168075  0.36085315  1
  Ta5+  Ta65  1  0.56476861  0.39724285  0.11540476  1
  Ta5+  Ta66  1  0.90810471  0.37395553  0.86456362  1
  Ta5+  Ta67  1  0.86077624  0.12096175  0.12320705  1
  Ta5+  Ta68  1  0.13085029  0.37267828  0.37337488  1
  Ta5+  Ta69  1  0.12564734  0.61341392  0.61973815  1
  Ta5+  Ta70  1  0.13684691  0.87696273  0.62009978  1
  Ta5+  Ta71  1  0.58898328  0.13878841  0.36905267  1
  Ta5+  Ta72  1  0.09211020  0.36978686  0.61387254  1
  Ta5+  Ta73  1  0.88250866  0.37331903  0.37974492  1
  Ta5+  Ta74  1  0.60769556  0.07870502  0.15085111  1
  W6+  W75  1  0.34808245  0.37846118  0.62744632  1
  W6+  W76  1  0.39753547  0.60664699  0.86337604  1
  W6+  W77  1  0.15182644  0.87129856  0.86976492  1
  W6+  W78  1  0.89431977  0.88382762  0.62339620  1
  W6+  W79  1  0.71952722  0.53237915  0.71072584  1
  W6+  W80  1  0.30966575  0.37604076  0.10577443  1
  W6+  W81  1  0.61809561  0.12787812  0.90354726  1
  W6+  W82  1  0.35825559  0.85329564  0.87752952  1
  O2-  O83  1  0.09987891  -0.00696230  0.12517279  1
  O2-  O84  1  0.16019762  0.00416980  0.36522481  1
  O2-  O85  1  0.08786853  -0.00491979  0.60356022  1
  O2-  O86  1  0.14142236  0.00103819  0.88765675  1
  O2-  O87  1  0.11976688  0.49590602  0.10957323  1
  O2-  O88  1  0.14297200  0.49508246  0.39018523  1
  O2-  O89  1  0.10809673  0.49732821  0.59209484  1
  O2-  O90  1  0.11214134  0.49662118  0.87730445  1
  O2-  O91  1  0.37443550  -0.00388385  0.10884704  1
  O2-  O92  1  0.38766517  -0.00204137  0.36940253  1
  O2-  O93  1  0.41520351  -0.01152874  0.60524323  1
  O2-  O94  1  0.34352369  -0.01265125  0.88981194  1
  O2-  O95  1  0.30965016  0.51497011  0.12091861  1
  O2-  O96  1  0.34308131  0.49055865  0.38412602  1
  O2-  O97  1  0.42806513  0.48643643  0.58305022  1
  O2-  O98  1  0.42425313  0.45769464  0.86489181  1
  O2-  O99  1  0.71026127  -0.00104192  0.13865725  1
  O2-  O100  1  0.64178466  0.01711820  0.37981778  1
  O2-  O101  1  0.61898902  -0.00531028  0.64432177  1
  O2-  O102  1  0.62608713  0.00142079  0.87557243  1
  O2-  O103  1  0.67764518  0.47114616  0.13318831  1
  O2-  O104  1  0.66366398  0.48079902  0.37008898  1
  O2-  O105  1  0.59034719  0.50953401  0.66358511  1
  O2-  O106  1  0.53393426  0.57860238  0.85229924  1
  O2-  O107  1  0.89583916  0.00520456  0.11640538  1
  O2-  O108  1  0.84480100  0.00391859  0.35988910  1
  O2-  O109  1  0.90613736  0.02204887  0.61105543  1
  O2-  O110  1  0.84054858  0.01140197  0.86392897  1
  O2-  O111  1  0.87831234  0.50843011  0.12722680  1
  O2-  O112  1  0.86182688  0.49777975  0.36584097  1
  O2-  O113  1  0.88971995  0.49343628  0.61583566  1
  O2-  O114  1  0.92107009  0.49801331  0.84685753  1
  O2-  O115  1  0.13449458  0.24036257  0.15244541  1
  O2-  O116  1  0.15765883  0.23355893  0.36038260  1
  O2-  O117  1  0.11332962  0.23210151  0.62793259  1
  O2-  O118  1  0.10024041  0.24912643  0.85675515  1
  O2-  O119  1  0.15102903  0.73914705  0.12617812  1
  O2-  O120  1  0.10853071  0.75104159  0.35852754  1
  O2-  O121  1  0.08960622  0.76436854  0.62324298  1
  O2-  O122  1  0.11157343  0.74192178  0.85317465  1
  O2-  O123  1  0.33073530  0.22923998  0.10489738  1
  O2-  O124  1  0.34937330  0.23874308  0.36155783  1
  O2-  O125  1  0.32560431  0.23024425  0.62694003  1
  O2-  O126  1  0.40244118  0.24944991  0.87282777  1
  O2-  O127  1  0.36832681  0.71956651  0.14596206  1
  O2-  O128  1  0.37482770  0.73937893  0.34072856  1
  O2-  O129  1  0.44491535  0.77537985  0.63174795  1
  O2-  O130  1  0.42548885  0.74163724  0.84924449  1
  O2-  O131  1  0.64687075  0.30421643  0.10174115  1
  O2-  O132  1  0.58300799  0.26732206  0.37951832  1
  O2-  O133  1  0.62864501  0.25747699  0.63732053  1
  O2-  O134  1  0.66055471  0.25094397  0.88640752  1
  O2-  O135  1  0.71810640  0.67689804  0.12740402  1
  O2-  O136  1  0.61983383  0.84471583  0.45353737  1
  O2-  O137  1  0.61730726  0.78380102  0.62719249  1
  O2-  O138  1  0.64718976  0.74637610  0.90755279  1
  O2-  O139  1  0.82244658  0.26181064  0.12775317  1
  O2-  O140  1  0.91248169  0.24446857  0.36613543  1
  O2-  O141  1  0.93260789  0.23310172  0.59976362  1
  O2-  O142  1  0.83911405  0.25639078  0.87039529  1
  O2-  O143  1  0.89350985  0.75216920  0.08856969  1
  O2-  O144  1  0.88060851  0.75246956  0.38410617  1
  O2-  O145  1  0.86777522  0.74907909  0.60088676  1
  O2-  O146  1  0.86890807  0.74940456  0.87947041  1
  O2-  O147  1  0.13072206  0.13388257  0.00869220  1
  O2-  O148  1  0.06910976  0.12076852  0.25910443  1
  O2-  O149  1  0.15903825  0.12578770  0.49897946  1
  O2-  O150  1  0.10226263  0.10882493  0.74831794  1
  O2-  O151  1  0.11185196  0.63700986  -0.01347038  1
  O2-  O152  1  0.11923599  0.61620432  0.24502973  1
  O2-  O153  1  0.13304287  0.65819381  0.49250061  1
  O2-  O154  1  0.11624480  0.60921519  0.74014185  1
  O2-  O155  1  0.42363761  0.12058634  -0.01555978  1
  O2-  O156  1  0.40311248  0.12705208  0.23532901  1
  O2-  O157  1  0.38501964  0.13459204  0.49633744  1
  O2-  O158  1  0.39585651  0.11239260  0.75839106  1
  O2-  O159  1  0.40833462  0.61009020  -0.00111638  1
  O2-  O160  1  0.41535672  0.59896408  0.25059937  1
  O2-  O161  1  0.38303439  0.64341072  0.50093197  1
  O2-  O162  1  0.40874617  0.61440543  0.72062821  1
  O2-  O163  1  0.61222444  0.12121841  0.03752403  1
  O2-  O164  1  0.65131060  0.15594237  0.25481859  1
  O2-  O165  1  0.60783635  0.13588141  0.50534418  1
  O2-  O166  1  0.61284219  0.14534156  0.76176248  1
  O2-  O167  1  0.61492336  0.60338578  0.00665498  1
  O2-  O168  1  0.59979911  0.62396124  0.24531117  1
  O2-  O169  1  0.64580691  0.65619815  0.48263145  1
  O2-  O170  1  0.66374481  0.65474312  0.76060261  1
  O2-  O171  1  0.82971548  0.14042778  -0.00233328  1
  O2-  O172  1  0.86110755  0.13714022  0.24944924  1
  O2-  O173  1  0.82232872  0.13866537  0.48672296  1
  O2-  O174  1  0.88308552  0.14798273  0.74514867  1
  O2-  O175  1  0.93175924  0.61829554  -0.01581409  1
  O2-  O176  1  0.88872515  0.64671095  0.24298252  1
  O2-  O177  1  0.83392143  0.62433333  0.49435273  1
  O2-  O178  1  0.84340030  0.61687787  0.73684860  1
  O2-  O179  1  0.09732336  0.35441671  -0.00196961  1
  O2-  O180  1  0.14549232  0.37233194  0.24976531  1
  O2-  O181  1  0.15526257  0.34504199  0.49650850  1
  O2-  O182  1  0.08706144  0.37596921  0.73765774  1
  O2-  O183  1  0.11353721  0.85203450  -0.00165749  1
  O2-  O184  1  0.15568003  0.86466220  0.23818888  1
  O2-  O185  1  0.10360123  0.86511950  0.48657890  1
  O2-  O186  1  0.16033034  0.89039042  0.73568397  1
  O2-  O187  1  0.28299810  0.37487346  -0.03254639  1
  O2-  O188  1  0.34497259  0.36275463  0.24260222  1
  O2-  O189  1  0.37522541  0.33981898  0.49128492  1
  O2-  O190  1  0.30025745  0.36337779  0.76056273  1
  O2-  O191  1  0.33235428  0.83888813  0.00994670  1
  O2-  O192  1  0.33467316  0.86718941  0.23596948  1
  O2-  O193  1  0.39936597  0.84413907  0.48592899  1
  O2-  O194  1  0.35597565  0.88049963  0.74288382  1
  O2-  O195  1  0.55992288  0.41370901  -0.01771486  1
  O2-  O196  1  0.56941441  0.38195747  0.24230156  1
  O2-  O197  1  0.58225880  0.38792465  0.50893532  1
  O2-  O198  1  0.57115551  0.36365899  0.77858232  1
  O2-  O199  1  0.59338269  0.89040302  0.00566393  1
  O2-  O200  1  0.63758141  0.82565319  0.23510177  1
  O2-  O201  1  0.75597333  0.88148926  0.59568143  1
  O2-  O202  1  0.57514427  0.85689371  0.77960503  1
  O2-  O203  1  0.86824973  0.37870506  -0.00303178  1
  O2-  O204  1  0.84311525  0.36695079  0.25211394  1
  O2-  O205  1  0.85575974  0.36091289  0.49648189  1
  O2-  O206  1  0.89883628  0.34760105  0.73513838  1
  O2-  O207  1  0.92931750  0.88617672  -0.02912918  1
  O2-  O208  1  0.87905800  0.85960127  0.23127190  1
  O2-  O209  1  0.90208215  0.87848307  0.48352512  1
  O2-  O210  1  0.91662543  0.88016444  0.75877569  1
  O2-  O211  1  -0.02139062  0.16760282  0.11515686  1
  O2-  O212  1  0.00534629  -0.09198165  0.34025891  1
  O2-  O213  1  -0.00599515  0.09213353  0.41991101  1
  O2-  O214  1  -0.00850065  0.12046208  0.89139207  1
  O2-  O215  1  0.00048074  0.36265062  0.14316731  1
  O2-  O216  1  -0.00350533  0.61842525  0.39438632  1
  O2-  O217  1  0.00766623  0.37842308  0.36577213  1
  O2-  O218  1  -0.00175822  0.63201153  0.59351701  1
  O2-  O219  1  0.24802709  0.15021979  -0.12654560  1
  O2-  O220  1  0.25257313  -0.14790294  0.38726039  1
  O2-  O221  1  0.25574916  -0.14456701  0.58259636  1
  O2-  O222  1  0.25408516  0.06731109  0.64447756  1
  O2-  O223  1  0.26303837  0.61210125  -0.13464637  1
  O2-  O224  1  0.25265605  0.63830925  0.36363863  1
  O2-  O225  1  0.24657858  0.65880775  0.61299935  1
  O2-  O226  1  0.27336297  0.49310707  0.64166604  1
  O2-  O227  1  0.49246405  -0.15103147  0.13758181  1
  O2-  O228  1  0.56430087  -0.01965430  0.23380824  1
  O2-  O229  1  0.50058880  -0.13974990  0.33540051  1
  O2-  O230  1  0.49461709  0.14985277  0.63073737  1
  O2-  O231  1  0.50859309  0.52167320  0.12626483  1
  O2-  O232  1  0.50692495  0.52120431  0.38793237  1
  O2-  O233  1  0.51687814  0.67592647  0.38013629  1
  O2-  O234  1  0.47906817  0.32947395  0.64347630  1
  O2-  O235  1  0.75497240  -0.12371904  -0.05271820  1
  O2-  O236  1  0.75091127  -0.14281832  0.35778715  1
  O2-  O237  1  0.74549590  0.13151156  0.64762352  1
  O2-  O238  1  0.73870109  -0.12471996  0.78278267  1
  O2-  O239  1  0.77076561  0.61071593  -0.07256253  1
  O2-  O240  1  0.74225365  0.64985795  0.34107273  1
  O2-  O241  1  0.71555358  0.39513571  0.67438094  1
  O2-  O242  1  0.67440544  0.49040930  0.85039077  1
