# generated using pymatgen
data_Gd19Ta56(WO20)8
_symmetry_space_group_name_H-M   'P 1'
_cell_length_a   15.57410964
_cell_length_b   15.40252870
_cell_length_c   15.14943430
_cell_angle_alpha   89.91452078
_cell_angle_beta   90.12522742
_cell_angle_gamma   89.88023763
_symmetry_Int_Tables_number   1
_chemical_formula_structural   Gd19Ta56(WO20)8
_chemical_formula_sum   'Gd19 Ta56 W8 O160'
_cell_volume   3634.03577290
_cell_formula_units_Z   1
loop_
 _symmetry_equiv_pos_site_id
 _symmetry_equiv_pos_as_xyz
  1  'x, y, z'
loop_
 _atom_type_symbol
 _atom_type_oxidation_number
  Gd3+  3.0
  Ta5+  5.0
  W6+  6.0
  O2-  -2.0
loop_
 _atom_site_type_symbol
 _atom_site_label
 _atom_site_symmetry_multiplicity
 _atom_site_fract_x
 _atom_site_fract_y
 _atom_site_fract_z
 _atom_site_occupancy
  Gd3+  Gd0  1  0.77463744  0.76252071  0.74325663  1
  Gd3+  Gd1  1  0.51657426  0.25758901  0.50609248  1
  Gd3+  Gd2  1  0.52370631  0.24918323  0.75066131  1
  Gd3+  Gd3  1  -0.00537878  0.73642269  -0.01031371  1
  Gd3+  Gd4  1  0.27950266  0.72541201  0.01520482  1
  Gd3+  Gd5  1  0.22058735  0.22567830  0.74824155  1
  Gd3+  Gd6  1  -0.01272447  0.23833831  0.70535369  1
  Gd3+  Gd7  1  0.00111994  0.74155345  0.24567194  1
  Gd3+  Gd8  1  0.25422581  0.75091803  0.75700265  1
  Gd3+  Gd9  1  -0.04617804  0.25378328  0.47162889  1
  Gd3+  Gd10  1  0.25919534  0.22284637  0.01039069  1
  Gd3+  Gd11  1  -0.04118416  0.74124589  0.47354519  1
  Gd3+  Gd12  1  0.53983442  0.76071478  0.03462142  1
  Gd3+  Gd13  1  -0.05198086  0.26700392  0.00454844  1
  Gd3+  Gd14  1  -0.05320172  0.24291113  0.24244498  1
  Gd3+  Gd15  1  0.25862161  0.74501652  0.49651678  1
  Gd3+  Gd16  1  0.68825186  0.27156743  0.26440386  1
  Gd3+  Gd17  1  0.71167658  0.25851189  0.02408323  1
  Gd3+  Gd18  1  0.26880049  0.74813698  0.24560028  1
  Ta5+  Ta19  1  0.67899118  0.89703240  0.13156613  1
  Ta5+  Ta20  1  0.65086397  0.38695032  0.86436051  1
  Ta5+  Ta21  1  0.90735955  0.88228923  0.85892764  1
  Ta5+  Ta22  1  0.66537841  0.63923881  0.37139054  1
  Ta5+  Ta23  1  0.14484960  0.87013852  0.11607883  1
  Ta5+  Ta24  1  0.36058347  0.12330964  0.38881836  1
  Ta5+  Ta25  1  0.62200949  0.88888809  0.87813932  1
  Ta5+  Ta26  1  0.12700725  0.87945262  0.37310947  1
  Ta5+  Ta27  1  0.69662938  0.64544530  0.12841486  1
  Ta5+  Ta28  1  0.13954130  0.37722455  0.61718023  1
  Ta5+  Ta29  1  0.34693880  0.36918967  0.62398415  1
  Ta5+  Ta30  1  0.82061138  0.12211925  0.59071307  1
  Ta5+  Ta31  1  0.80946111  0.06929162  0.12338280  1
  Ta5+  Ta32  1  0.35969968  0.11627618  0.61553342  1
  Ta5+  Ta33  1  0.63737627  0.12281717  0.87951305  1
  Ta5+  Ta34  1  0.10391161  0.36781860  0.88083319  1
  Ta5+  Ta35  1  0.10983730  0.62265464  0.62962228  1
  Ta5+  Ta36  1  0.42521912  0.58875769  0.12942323  1
  Ta5+  Ta37  1  0.12182362  0.88192036  0.62715334  1
  Ta5+  Ta38  1  0.61175904  0.42305136  0.12468445  1
  Ta5+  Ta39  1  0.65774992  0.39082258  0.63393702  1
  Ta5+  Ta40  1  0.86114043  0.63069747  0.11804123  1
  Ta5+  Ta41  1  0.62510706  0.62777407  0.87780693  1
  Ta5+  Ta42  1  0.87652370  0.88508268  0.59581755  1
  Ta5+  Ta43  1  0.13718236  0.60729544  0.87688240  1
  Ta5+  Ta44  1  0.82095046  0.37316822  0.61530080  1
  Ta5+  Ta45  1  0.88357771  0.88379508  0.12249907  1
  Ta5+  Ta46  1  0.83091790  0.61743272  0.33949845  1
  Ta5+  Ta47  1  0.84001146  0.43018724  0.16905420  1
  Ta5+  Ta48  1  0.87198448  0.11832754  0.84357237  1
  Ta5+  Ta49  1  0.64541542  0.11473827  0.39647621  1
  Ta5+  Ta50  1  0.40301076  0.93988879  0.12538565  1
  Ta5+  Ta51  1  0.37568929  0.37079713  0.36899702  1
  Ta5+  Ta52  1  0.86071215  0.61802982  0.60084414  1
  Ta5+  Ta53  1  0.64285075  0.88069215  0.61594748  1
  Ta5+  Ta54  1  0.86178950  0.37447113  0.83496889  1
  Ta5+  Ta55  1  0.89125311  0.61501727  0.85469564  1
  Ta5+  Ta56  1  0.12559209  0.61373236  0.38217919  1
  Ta5+  Ta57  1  0.39438991  0.87439019  0.36857758  1
  Ta5+  Ta58  1  0.40004722  0.86832393  0.62100591  1
  Ta5+  Ta59  1  0.60184911  0.41049483  0.38649471  1
  Ta5+  Ta60  1  0.39304889  0.88256756  0.87656869  1
  Ta5+  Ta61  1  0.09623825  0.11841335  0.89933838  1
  Ta5+  Ta62  1  0.10763173  0.38873666  0.14010892  1
  Ta5+  Ta63  1  0.16168389  0.11416089  0.56394440  1
  Ta5+  Ta64  1  0.11607673  0.58860164  0.12718167  1
  Ta5+  Ta65  1  0.82991010  0.86959636  0.33387924  1
  Ta5+  Ta66  1  0.10485610  0.07192371  0.34093952  1
  Ta5+  Ta67  1  0.38984206  0.11104527  0.87093355  1
  Ta5+  Ta68  1  0.66354417  0.87454792  0.36494052  1
  Ta5+  Ta69  1  0.39146082  0.60773360  0.87858205  1
  Ta5+  Ta70  1  0.37890928  0.60910292  0.36887390  1
  Ta5+  Ta71  1  0.84495290  0.41500427  0.37255809  1
  Ta5+  Ta72  1  0.14126095  0.87782565  0.89831597  1
  Ta5+  Ta73  1  0.63621171  0.63147986  0.62538541  1
  Ta5+  Ta74  1  0.39118515  0.61737226  0.62752181  1
  W6+  W75  1  0.09994230  0.12064848  0.15240995  1
  W6+  W76  1  0.11852068  0.36670396  0.38469736  1
  W6+  W77  1  0.58048314  0.12710837  0.14311856  1
  W6+  W78  1  0.36873908  0.37269548  0.10508158  1
  W6+  W79  1  0.66072977  0.13356437  0.61859840  1
  W6+  W80  1  0.80962732  0.12169878  0.37014924  1
  W6+  W81  1  0.40081540  0.12815852  0.13862747  1
  W6+  W82  1  0.37925994  0.35625679  0.88500204  1
  O2-  O83  1  0.12456968  -0.01581101  0.13703523  1
  O2-  O84  1  0.03885266  -0.04036770  0.38714860  1
  O2-  O85  1  0.11548373  0.00774974  0.60835545  1
  O2-  O86  1  0.14190132  0.00621322  0.89101720  1
  O2-  O87  1  0.18737028  0.49283343  0.11335263  1
  O2-  O88  1  0.10905105  0.49655236  0.39252523  1
  O2-  O89  1  0.11242435  0.49621185  0.63538957  1
  O2-  O90  1  0.14716493  0.48077992  0.86262269  1
  O2-  O91  1  0.31278699  0.01369877  0.12175829  1
  O2-  O92  1  0.37708589  -0.00805422  0.39242408  1
  O2-  O93  1  0.37837741  -0.01396847  0.61082825  1
  O2-  O94  1  0.34012204  -0.00573891  0.86810016  1
  O2-  O95  1  0.34787130  0.50742879  0.09765936  1
  O2-  O96  1  0.34091791  0.49083860  0.39176967  1
  O2-  O97  1  0.36636010  0.49977569  0.63017965  1
  O2-  O98  1  0.39311913  0.49189826  0.88346006  1
  O2-  O99  1  0.69065532  0.03578913  0.15284299  1
  O2-  O100  1  0.62878159  -0.00193529  0.38169190  1
  O2-  O101  1  0.65274889  -0.00233882  0.63433465  1
  O2-  O102  1  0.67040862  0.00259089  0.87822629  1
  O2-  O103  1  0.68961410  0.51458168  0.12780980  1
  O2-  O104  1  0.59970575  0.53037544  0.37094686  1
  O2-  O105  1  0.66385967  0.51753657  0.66036773  1
  O2-  O106  1  0.66573639  0.51264889  0.87039034  1
  O2-  O107  1  0.91710225  0.00851585  0.11867409  1
  O2-  O108  1  0.81758877  -0.01142458  0.34809685  1
  O2-  O109  1  0.82909044  -0.00415978  0.58866195  1
  O2-  O110  1  0.86664468  -0.00082218  0.87720485  1
  O2-  O111  1  0.86196394  0.50525013  0.07662738  1
  O2-  O112  1  0.89742751  0.51960817  0.40217598  1
  O2-  O113  1  0.84265498  0.49970607  0.60821520  1
  O2-  O114  1  0.85806654  0.49547747  0.85939893  1
  O2-  O115  1  0.05963093  0.26128141  0.14061481  1
  O2-  O116  1  0.03597298  0.27171487  0.35438437  1
  O2-  O117  1  0.13674600  0.22643824  0.61579133  1
  O2-  O118  1  0.15370588  0.24549098  0.88601948  1
  O2-  O119  1  0.16531917  0.72293497  0.11229798  1
  O2-  O120  1  0.08616134  0.74700437  0.39068413  1
  O2-  O121  1  0.14978561  0.75111829  0.63210657  1
  O2-  O122  1  0.14482078  0.74578753  0.88378538  1
  O2-  O123  1  0.33501069  0.24732163  0.12985672  1
  O2-  O124  1  0.33850578  0.25100105  0.38914537  1
  O2-  O125  1  0.33045489  0.23989965  0.61998057  1
  O2-  O126  1  0.33006004  0.22105512  0.85536443  1
  O2-  O127  1  0.35387590  0.69985598  0.14029087  1
  O2-  O128  1  0.38315345  0.74255311  0.34738325  1
  O2-  O129  1  0.33437013  0.74606251  0.62849239  1
  O2-  O130  1  0.35110154  0.76249786  0.88309932  1
  O2-  O131  1  0.61353192  0.26093368  0.13452233  1
  O2-  O132  1  0.60412657  0.27045841  0.39269252  1
  O2-  O133  1  0.60634448  0.26634382  0.62724317  1
  O2-  O134  1  0.62895036  0.26090267  0.87972158  1
  O2-  O135  1  0.66906278  0.77174998  0.10651029  1
  O2-  O136  1  0.62957205  0.75788440  0.37934924  1
  O2-  O137  1  0.67832251  0.75300093  0.62739158  1
  O2-  O138  1  0.59712293  0.76430421  0.89708613  1
  O2-  O139  1  0.89719582  0.32606669  0.12073374  1
  O2-  O140  1  0.84729091  0.25971134  0.35854485  1
  O2-  O141  1  0.86627586  0.24337943  0.61239255  1
  O2-  O142  1  0.91365979  0.24154278  0.83450415  1
  O2-  O143  1  0.91788036  0.75262295  0.11750596  1
  O2-  O144  1  0.88687370  0.74232835  0.34153842  1
  O2-  O145  1  0.86034919  0.75781916  0.61536374  1
  O2-  O146  1  0.89698779  0.75225410  0.84697694  1
  O2-  O147  1  0.13915507  0.13742867  0.01767550  1
  O2-  O148  1  0.17805280  0.13615807  0.26833125  1
  O2-  O149  1  0.09218548  0.12473356  0.45871340  1
  O2-  O150  1  0.08340270  0.14235530  0.77477854  1
  O2-  O151  1  0.09392159  0.60969614  -0.00329596  1
  O2-  O152  1  0.11314096  0.62663017  0.25219502  1
  O2-  O153  1  0.16232573  0.62648606  0.51518503  1
  O2-  O154  1  0.16715878  0.62677272  0.74658429  1
  O2-  O155  1  0.37348441  0.12531009  -0.00667965  1
  O2-  O156  1  0.40587727  0.12458580  0.27793984  1
  O2-  O157  1  0.42175611  0.13955143  0.50455260  1
  O2-  O158  1  0.41462862  0.12413616  0.73066278  1
  O2-  O159  1  0.42943304  0.64684735  -0.00128618  1
  O2-  O160  1  0.42849361  0.58770298  0.25758115  1
  O2-  O161  1  0.36733384  0.63761784  0.50355190  1
  O2-  O162  1  0.35701879  0.63550121  0.75332393  1
  O2-  O163  1  0.63100361  0.13394341  0.00602824  1
  O2-  O164  1  0.61178856  0.14447475  0.27788360  1
  O2-  O165  1  0.58200323  0.12504855  0.50886057  1
  O2-  O166  1  0.62740011  0.14036770  0.75305368  1
  O2-  O167  1  0.63019219  0.63883912  0.00507098  1
  O2-  O168  1  0.65354707  0.64882538  0.24419203  1
  O2-  O169  1  0.65611990  0.62358898  0.50631390  1
  O2-  O170  1  0.66863255  0.66119047  0.76477475  1
  O2-  O171  1  0.83205787  0.16302649  0.04515392  1
  O2-  O172  1  0.82473405  0.13750395  0.22698548  1
  O2-  O173  1  0.89721177  0.11963124  0.48306954  1
  O2-  O174  1  0.87627892  0.10957924  0.71978678  1
  O2-  O175  1  0.87796016  0.64272471  -0.02258071  1
  O2-  O176  1  0.91758404  0.61807644  0.23235165  1
  O2-  O177  1  0.84340486  0.64860077  0.47932867  1
  O2-  O178  1  0.84710626  0.62905895  0.73527347  1
  O2-  O179  1  0.10134707  0.36140042  0.00718752  1
  O2-  O180  1  0.15296664  0.37329744  0.25190822  1
  O2-  O181  1  0.05895192  0.35125251  0.52518274  1
  O2-  O182  1  0.09079680  0.33584947  0.74644183  1
  O2-  O183  1  0.07148198  0.86028517  0.00788072  1
  O2-  O184  1  0.13836257  0.83375266  0.24575392  1
  O2-  O185  1  0.16628850  0.86890093  0.50588447  1
  O2-  O186  1  0.17225734  0.88025223  0.74717527  1
  O2-  O187  1  0.28779719  0.36073997  -0.01306900  1
  O2-  O188  1  0.39200632  0.37568671  0.24998451  1
  O2-  O189  1  0.40967857  0.36441924  0.51043245  1
  O2-  O190  1  0.41209073  0.34909676  0.73155519  1
  O2-  O191  1  0.41867989  0.87732645  0.00781734  1
  O2-  O192  1  0.39041977  0.88163826  0.23472676  1
  O2-  O193  1  0.37797288  0.84148844  0.49766672  1
  O2-  O194  1  0.36691757  0.86142016  0.74676296  1
  O2-  O195  1  0.63659414  0.38938372  -0.00186660  1
  O2-  O196  1  0.59626695  0.39472607  0.24965947  1
  O2-  O197  1  0.61105946  0.40413823  0.51829935  1
  O2-  O198  1  0.58667856  0.38416895  0.75733770  1
  O2-  O199  1  0.60877445  0.89644799  0.01335981  1
  O2-  O200  1  0.61943858  0.88918479  0.23854500  1
  O2-  O201  1  0.67553812  0.87728329  0.49911866  1
  O2-  O202  1  0.66391994  0.86478543  0.76058803  1
  O2-  O203  1  0.82070476  0.32915684  -0.05351130  1
  O2-  O204  1  0.91937383  0.39369049  0.26899848  1
  O2-  O205  1  0.85481912  0.36652567  0.49426562  1
  O2-  O206  1  0.91320165  0.36973262  0.71763345  1
  O2-  O207  1  0.90387890  0.85813751  -0.01499925  1
  O2-  O208  1  0.93842589  0.87730467  0.23984928  1
  O2-  O209  1  0.87991570  0.86401912  0.46780622  1
  O2-  O210  1  0.86389341  0.88601581  0.73543822  1
  O2-  O211  1  -0.02261278  0.12012064  -0.07049301  1
  O2-  O212  1  0.01266640  0.10410503  0.26487793  1
  O2-  O213  1  0.00422139  -0.13482758  0.61264450  1
  O2-  O214  1  0.02503401  -0.11362709  0.84005978  1
  O2-  O215  1  -0.01609080  0.37968340  -0.10939195  1
  O2-  O216  1  0.03314237  0.48687457  0.14516541  1
  O2-  O217  1  -0.00795116  0.63888998  0.60879233  1
  O2-  O218  1  0.01306647  0.61145020  0.84301364  1
  O2-  O219  1  0.22729346  -0.13535297  0.00168363  1
  O2-  O220  1  0.19512539  -0.02071167  0.34865530  1
  O2-  O221  1  0.26540233  0.10444348  0.49925116  1
  O2-  O222  1  0.24605535  0.09800298  0.67086863  1
  O2-  O223  1  0.26204106  0.61722609  -0.08972579  1
  O2-  O224  1  0.24921877  0.64968887  0.36393229  1
  O2-  O225  1  0.23568793  0.38561688  0.54254670  1
  O2-  O226  1  0.24271636  0.36597698  0.70600543  1
  O2-  O227  1  0.50908063  0.11320978  -0.12347312  1
  O2-  O228  1  0.49764859  0.01312261  0.13095313  1
  O2-  O229  1  0.51828022  -0.14455532  0.62884654  1
  O2-  O230  1  0.50626819  -0.08531892  0.84523133  1
  O2-  O231  1  0.44518335  0.34663078  0.00207777  1
  O2-  O232  1  0.52102422  0.50406968  0.11260744  1
  O2-  O233  1  0.51027893  0.63296258  0.63553990  1
  O2-  O234  1  0.50916881  0.61975159  0.84034158  1
  O2-  O235  1  0.78173545  -0.05439461  0.06166041  1
  O2-  O236  1  0.78594321  -0.14637573  0.20251161  1
  O2-  O237  1  0.73776193  0.15708042  0.49196446  1
  O2-  O238  1  0.76327288  0.15323000  0.87635467  1
  O2-  O239  1  0.73839019  0.36114361  0.14800253  1
  O2-  O240  1  0.79600724  0.49994075  0.27093787  1
  O2-  O241  1  0.72384538  0.38949372  0.37250911  1
  O2-  O242  1  0.74985810  0.36686162  0.76968588  1
