# generated using pymatgen
data_Gd19Ta56(WO20)8
_symmetry_space_group_name_H-M   'P 1'
_cell_length_a   15.51925430
_cell_length_b   15.52684469
_cell_length_c   15.29481846
_cell_angle_alpha   90.13456595
_cell_angle_beta   90.02828910
_cell_angle_gamma   90.09478376
_symmetry_Int_Tables_number   1
_chemical_formula_structural   Gd19Ta56(WO20)8
_chemical_formula_sum   'Gd19 Ta56 W8 O160'
_cell_volume   3685.50104911
_cell_formula_units_Z   1
loop_
 _symmetry_equiv_pos_site_id
 _symmetry_equiv_pos_as_xyz
  1  'x, y, z'
loop_
 _atom_type_symbol
 _atom_type_oxidation_number
  Gd3+  3.0
  Ta5+  5.0
  W6+  6.0
  O2-  -2.0
loop_
 _atom_site_type_symbol
 _atom_site_label
 _atom_site_symmetry_multiplicity
 _atom_site_fract_x
 _atom_site_fract_y
 _atom_site_fract_z
 _atom_site_occupancy
  Gd3+  Gd0  1  0.02463597  0.76016707  -0.00501151  1
  Gd3+  Gd1  1  0.74824000  0.75673038  0.51662326  1
  Gd3+  Gd2  1  0.20574630  0.72551331  0.78199988  1
  Gd3+  Gd3  1  -0.00007241  0.26033901  -0.00879060  1
  Gd3+  Gd4  1  -0.03346953  0.76231803  0.75629883  1
  Gd3+  Gd5  1  0.29236800  0.74635778  -0.01381545  1
  Gd3+  Gd6  1  0.23091605  0.24751007  0.50653336  1
  Gd3+  Gd7  1  0.20170004  0.26457168  0.76750520  1
  Gd3+  Gd8  1  0.53605420  0.22050884  0.72110486  1
  Gd3+  Gd9  1  0.24707739  0.24282322  0.23289295  1
  Gd3+  Gd10  1  0.25567663  0.77319615  0.53815752  1
  Gd3+  Gd11  1  0.75981680  0.75481150  0.25074824  1
  Gd3+  Gd12  1  0.78331221  0.26088778  0.51036976  1
  Gd3+  Gd13  1  0.49790233  0.74068741  0.22364596  1
  Gd3+  Gd14  1  0.47871130  0.73791495  0.75157218  1
  Gd3+  Gd15  1  0.74876333  0.25583935  0.24577435  1
  Gd3+  Gd16  1  0.74687467  0.26620403  -0.00607887  1
  Gd3+  Gd17  1  0.01290922  0.77088502  0.25247183  1
  Gd3+  Gd18  1  0.71639326  0.75103150  0.74875440  1
  Ta5+  Ta19  1  0.11392761  0.38353006  0.12582615  1
  Ta5+  Ta20  1  0.90591576  0.88256800  0.59762604  1
  Ta5+  Ta21  1  0.62353617  0.88004587  0.91271787  1
  Ta5+  Ta22  1  0.36983037  0.58824128  0.87060289  1
  Ta5+  Ta23  1  0.12042743  0.89503095  0.39548242  1
  Ta5+  Ta24  1  0.14359938  0.62942996  0.16034433  1
  Ta5+  Ta25  1  0.62629464  0.36990873  0.38430662  1
  Ta5+  Ta26  1  0.91644118  0.57468197  0.59586078  1
  Ta5+  Ta27  1  0.12541731  0.39003139  0.36868121  1
  Ta5+  Ta28  1  0.07391339  0.12856050  0.12934263  1
  Ta5+  Ta29  1  0.43161476  0.37033714  0.12125146  1
  Ta5+  Ta30  1  0.89006510  0.39224847  0.87188707  1
  Ta5+  Ta31  1  0.63063331  0.11815204  0.38632788  1
  Ta5+  Ta32  1  0.87119885  0.11966228  0.36921884  1
  Ta5+  Ta33  1  0.65442108  0.61489670  0.11231026  1
  Ta5+  Ta34  1  0.39238784  0.12991488  0.11333584  1
  Ta5+  Ta35  1  0.41392370  0.34647716  0.87197697  1
  Ta5+  Ta36  1  0.36195397  0.86898348  0.36774980  1
  Ta5+  Ta37  1  0.39185816  0.36867127  0.37541697  1
  Ta5+  Ta38  1  0.08794767  0.63745310  0.40207960  1
  Ta5+  Ta39  1  0.69973930  0.11325796  0.63223634  1
  Ta5+  Ta40  1  0.10579398  0.39094250  0.62541729  1
  Ta5+  Ta41  1  0.16193703  0.89931704  0.14907370  1
  Ta5+  Ta42  1  0.90280913  0.13677761  0.12366516  1
  Ta5+  Ta43  1  0.34791047  0.60417732  0.13298935  1
  Ta5+  Ta44  1  0.40784982  0.93863149  0.61314327  1
  Ta5+  Ta45  1  0.64438941  0.87603692  0.11615117  1
  Ta5+  Ta46  1  0.11344275  0.12939407  0.37096593  1
  Ta5+  Ta47  1  0.58388590  0.36493616  0.87853424  1
  Ta5+  Ta48  1  0.89596222  0.37792076  0.36897427  1
  Ta5+  Ta49  1  0.09854490  0.11424550  0.87252043  1
  Ta5+  Ta50  1  0.60474396  0.61467191  0.89563060  1
  Ta5+  Ta51  1  0.06976136  0.14447823  0.62222001  1
  Ta5+  Ta52  1  0.60095237  0.37483927  0.12485403  1
  Ta5+  Ta53  1  0.35750938  0.35163180  0.63200334  1
  Ta5+  Ta54  1  0.38326061  0.11630723  0.37364210  1
  Ta5+  Ta55  1  0.05878703  0.40431545  0.87003888  1
  Ta5+  Ta56  1  0.36805343  0.59560559  0.61507813  1
  Ta5+  Ta57  1  0.83248264  0.89700522  0.88436797  1
  Ta5+  Ta58  1  0.61062982  0.87631364  0.36622162  1
  Ta5+  Ta59  1  0.87175667  0.39034958  0.12211349  1
  Ta5+  Ta60  1  0.63458602  0.12128272  0.12560747  1
  Ta5+  Ta61  1  0.84951841  0.14073919  0.86797845  1
  Ta5+  Ta62  1  0.86400743  0.62274845  0.37416826  1
  Ta5+  Ta63  1  0.65085585  0.11683152  0.87702288  1
  Ta5+  Ta64  1  0.93391982  0.37213724  0.62907664  1
  Ta5+  Ta65  1  0.12250419  0.92282016  0.89997218  1
  Ta5+  Ta66  1  0.59291355  0.91641934  0.60260358  1
  Ta5+  Ta67  1  0.88545250  0.88445064  0.39654245  1
  Ta5+  Ta68  1  0.89949369  0.12854858  0.62949279  1
  Ta5+  Ta69  1  0.38370616  0.61319836  0.37080751  1
  Ta5+  Ta70  1  0.34190497  0.09987291  0.63056132  1
  Ta5+  Ta71  1  0.60497560  0.61422523  0.61271034  1
  Ta5+  Ta72  1  0.12404238  0.60385401  0.60386596  1
  Ta5+  Ta73  1  0.62120724  0.61386259  0.36316370  1
  Ta5+  Ta74  1  0.81719430  0.62573116  0.90646204  1
  W6+  W75  1  0.36599304  0.88092193  0.84934997  1
  W6+  W76  1  0.14546621  0.57794814  0.95836803  1
  W6+  W77  1  0.65141090  0.37014040  0.62867316  1
  W6+  W78  1  0.14433519  0.92640380  0.64821865  1
  W6+  W79  1  0.38120285  0.12822068  0.86487318  1
  W6+  W80  1  0.90613948  0.63491786  0.11962027  1
  W6+  W81  1  0.36599118  0.88125378  0.11877452  1
  W6+  W82  1  0.89133081  0.89117097  0.12258902  1
  O2-  O83  1  0.11585715  0.01070325  0.13217417  1
  O2-  O84  1  0.15993067  0.01679389  0.38544716  1
  O2-  O85  1  0.08664204  0.02707387  0.60017762  1
  O2-  O86  1  0.19101116  0.03787389  0.89307586  1
  O2-  O87  1  0.13075479  0.50263270  0.14525753  1
  O2-  O88  1  0.11215731  0.50885252  0.38544643  1
  O2-  O89  1  0.18172136  0.50008785  0.60265234  1
  O2-  O90  1  0.05790360  0.52369655  0.87050582  1
  O2-  O91  1  0.38727824  0.01179054  0.11674306  1
  O2-  O92  1  0.37127930  -0.00528249  0.37275448  1
  O2-  O93  1  0.27920312  -0.00978307  0.62761721  1
  O2-  O94  1  0.38693165  0.01089801  0.85489003  1
  O2-  O95  1  0.38746036  0.48903601  0.11626795  1
  O2-  O96  1  0.35189351  0.48748417  0.37831675  1
  O2-  O97  1  0.38571007  0.47769456  0.61257845  1
  O2-  O98  1  0.39738000  0.47135793  0.86415071  1
  O2-  O99  1  0.64213505  0.00024269  0.11770290  1
  O2-  O100  1  0.63759668  -0.00606049  0.37653728  1
  O2-  O101  1  0.69093587  -0.01574632  0.62640213  1
  O2-  O102  1  0.60073519  -0.00174169  0.89087092  1
  O2-  O103  1  0.64229222  0.49375745  0.11978680  1
  O2-  O104  1  0.63198423  0.49245276  0.37488703  1
  O2-  O105  1  0.61266764  0.49808315  0.60839661  1
  O2-  O106  1  0.59282126  0.49659012  0.88464055  1
  O2-  O107  1  0.88315729  0.01840168  0.11707532  1
  O2-  O108  1  0.84619353  0.00148290  0.36505420  1
  O2-  O109  1  0.89811373  0.00188657  0.61068464  1
  O2-  O110  1  0.82688198  0.01627702  0.89707422  1
  O2-  O111  1  0.87088139  0.50856972  0.12326197  1
  O2-  O112  1  0.89474606  0.50433804  0.37180923  1
  O2-  O113  1  0.84953384  0.47766125  0.61727528  1
  O2-  O114  1  0.85996247  0.52112038  0.86836630  1
  O2-  O115  1  0.13311125  0.25471368  0.12446145  1
  O2-  O116  1  0.16850560  0.24928997  0.36635127  1
  O2-  O117  1  0.12669024  0.26359756  0.62894694  1
  O2-  O118  1  0.08808496  0.25332859  0.87160486  1
  O2-  O119  1  0.12817562  0.75962381  0.14976022  1
  O2-  O120  1  0.08228393  0.76377375  0.38957859  1
  O2-  O121  1  0.20532728  0.81447498  0.66635912  1
  O2-  O122  1  0.15290777  0.70928879  0.93210604  1
  O2-  O123  1  0.37027614  0.25657588  0.14248175  1
  O2-  O124  1  0.34379344  0.25151120  0.36239716  1
  O2-  O125  1  0.30704306  0.22580358  0.63932395  1
  O2-  O126  1  0.32880214  0.24554447  0.84936373  1
  O2-  O127  1  0.38033090  0.72929084  0.12477449  1
  O2-  O128  1  0.38900972  0.73890600  0.35942683  1
  O2-  O129  1  0.25352308  0.64918669  0.64100752  1
  O2-  O130  1  0.34542097  0.73778079  0.84396841  1
  O2-  O131  1  0.65882193  0.25068932  0.11915477  1
  O2-  O132  1  0.66229213  0.24407449  0.38541712  1
  O2-  O133  1  0.68590515  0.23920419  0.63489596  1
  O2-  O134  1  0.60872741  0.23273236  0.88046300  1
  O2-  O135  1  0.62669594  0.74743488  0.13789442  1
  O2-  O136  1  0.62650158  0.74891184  0.33755684  1
  O2-  O137  1  0.71695974  0.66349216  0.62869953  1
  O2-  O138  1  0.60169226  0.76414668  0.86298237  1
  O2-  O139  1  0.83796060  0.25881319  0.11896618  1
  O2-  O140  1  0.84621836  0.25563303  0.37182725  1
  O2-  O141  1  0.88753552  0.26040049  0.63251818  1
  O2-  O142  1  0.86685997  0.26736743  0.86671749  1
  O2-  O143  1  0.94349364  0.76742615  0.12238341  1
  O2-  O144  1  0.82720688  0.75683420  0.38727934  1
  O2-  O145  1  0.82076674  0.80709242  0.64582260  1
  O2-  O146  1  0.83867838  0.73808739  0.84514019  1
  O2-  O147  1  0.07744262  0.13402057  0.00080753  1
  O2-  O148  1  0.14041564  0.13837109  0.24688737  1
  O2-  O149  1  0.10848491  0.16048842  0.49505627  1
  O2-  O150  1  0.11275194  0.13892494  0.74567783  1
  O2-  O151  1  0.05196505  0.62555810  0.06799411  1
  O2-  O152  1  0.08488271  0.63569573  0.27328191  1
  O2-  O153  1  0.17254916  0.65774130  0.49604922  1
  O2-  O154  1  0.08979451  0.66487568  0.70661316  1
  O2-  O155  1  0.36122001  0.14515261  -0.00215133  1
  O2-  O156  1  0.34906390  0.12657724  0.25078528  1
  O2-  O157  1  0.33515205  0.12760889  0.49208600  1
  O2-  O158  1  0.41653334  0.13206997  0.72715083  1
  O2-  O159  1  0.37197827  0.61249860  -0.00632512  1
  O2-  O160  1  0.41853617  0.61183961  0.24221897  1
  O2-  O161  1  0.34309466  0.63107549  0.49116658  1
  O2-  O162  1  0.38823949  0.61178538  0.73821689  1
  O2-  O163  1  0.68067978  0.12656097  0.00414482  1
  O2-  O164  1  0.64681810  0.13023001  0.25279825  1
  O2-  O165  1  0.67119799  0.11938883  0.50397828  1
  O2-  O166  1  0.64732411  0.11148168  0.74939531  1
  O2-  O167  1  0.57144091  0.63289988  0.01845021  1
  O2-  O168  1  0.60027070  0.61604662  0.23404342  1
  O2-  O169  1  0.63704964  0.64980244  0.48482849  1
  O2-  O170  1  0.58282909  0.63744976  0.73283274  1
  O2-  O171  1  0.89042253  0.15446400  -0.00686819  1
  O2-  O172  1  0.84848414  0.14208631  0.24552065  1
  O2-  O173  1  0.86998080  0.13829575  0.49471042  1
  O2-  O174  1  0.89750393  0.12565633  0.75779111  1
  O2-  O175  1  0.90605210  0.66206649  -0.01586214  1
  O2-  O176  1  0.90797389  0.65840470  0.26240668  1
  O2-  O177  1  0.84771785  0.62945587  0.50275952  1
  O2-  O178  1  0.90383241  0.64373827  0.69057585  1
  O2-  O179  1  0.09650353  0.38472945  -0.00099055  1
  O2-  O180  1  0.17973227  0.37650364  0.25209419  1
  O2-  O181  1  0.14147849  0.36810188  0.49124111  1
  O2-  O182  1  0.11081854  0.38876168  0.75413466  1
  O2-  O183  1  0.09608387  0.89219096  0.01610255  1
  O2-  O184  1  0.10379916  0.88570680  0.26387627  1
  O2-  O185  1  0.15279228  0.87883847  0.51474340  1
  O2-  O186  1  0.05620883  0.82694862  0.85343912  1
  O2-  O187  1  0.42004552  0.34642106  -0.00545862  1
  O2-  O188  1  0.42096918  0.37529667  0.25675509  1
  O2-  O189  1  0.35019399  0.34306488  0.50402426  1
  O2-  O190  1  0.42947587  0.32813399  0.73166302  1
  O2-  O191  1  0.38626219  0.85729529  -0.01818282  1
  O2-  O192  1  0.41763719  0.86454295  0.25333890  1
  O2-  O193  1  0.36917520  0.86030865  0.49876919  1
  O2-  O194  1  0.38680733  0.85419743  0.70683096  1
  O2-  O195  1  0.63329051  0.36204194  -0.00273699  1
  O2-  O196  1  0.62545784  0.35793205  0.25761952  1
  O2-  O197  1  0.69175352  0.37412190  0.49297603  1
  O2-  O198  1  0.60684937  0.35405626  0.75614692  1
  O2-  O199  1  0.56041732  0.86508553  0.02264505  1
  O2-  O200  1  0.59656036  0.88086134  0.23557397  1
  O2-  O201  1  0.63087765  0.84741133  0.49058808  1
  O2-  O202  1  0.59910445  0.80816876  0.66416321  1
  O2-  O203  1  0.83858866  0.38597260  -0.00200163  1
  O2-  O204  1  0.83773121  0.37863645  0.25195378  1
  O2-  O205  1  0.90625426  0.36670991  0.49287893  1
  O2-  O206  1  0.93801419  0.39023338  0.75383387  1
  O2-  O207  1  0.90441694  0.86656877  -0.01738203  1
  O2-  O208  1  0.89062175  0.85699245  0.26847147  1
  O2-  O209  1  0.94449619  0.81987109  0.49750690  1
  O2-  O210  1  0.89777996  0.88877536  0.78504014  1
  O2-  O211  1  0.03475739  0.00903453  -0.13647586  1
  O2-  O212  1  -0.00534447  0.12668275  0.35934769  1
  O2-  O213  1  0.00274027  -0.06731047  0.39774294  1
  O2-  O214  1  0.01541664  -0.14000366  0.65386836  1
  O2-  O215  1  -0.00762449  0.36415497  0.14117787  1
  O2-  O216  1  0.01267519  0.35211454  0.33892056  1
  O2-  O217  1  0.02066428  0.62462940  0.52015919  1
  O2-  O218  1  0.02222367  0.50519322  0.62841882  1
  O2-  O219  1  0.24587929  -0.14339432  0.06378934  1
  O2-  O220  1  0.26354336  -0.07663461  0.20828435  1
  O2-  O221  1  0.24424612  -0.15248816  0.37297706  1
  O2-  O222  1  0.22559973  -0.13484804  0.86029674  1
  O2-  O223  1  0.23209982  0.62641314  0.06410955  1
  O2-  O224  1  0.25659164  0.61088640  0.22248913  1
  O2-  O225  1  0.24730333  0.37176017  0.67166365  1
  O2-  O226  1  0.24646395  0.58674979  0.85554188  1
  O2-  O227  1  0.51425816  0.14030001  0.11623054  1
  O2-  O228  1  0.50326888  0.13129446  0.38232379  1
  O2-  O229  1  0.50194761  -0.04369118  0.52457510  1
  O2-  O230  1  0.51208457  -0.03639183  0.68522254  1
  O2-  O231  1  0.48700662  0.64238981  -0.13161342  1
  O2-  O232  1  0.50786574  0.35837615  0.41456884  1
  O2-  O233  1  0.49896553  0.60013076  0.39565624  1
  O2-  O234  1  0.47958007  0.65172237  0.59660657  1
  O2-  O235  1  0.72053315  -0.12392305  -0.01231435  1
  O2-  O236  1  0.76236863  -0.13949997  0.15182982  1
  O2-  O237  1  0.80748239  -0.10358609  0.49481533  1
  O2-  O238  1  0.72052420  -0.11878565  0.82123924  1
  O2-  O239  1  0.72408347  0.60852768  -0.01180734  1
  O2-  O240  1  0.76927206  0.65196705  0.14791054  1
  O2-  O241  1  0.74770305  0.61481422  0.33770859  1
  O2-  O242  1  0.71336751  0.62738898  0.82710047  1
