# generated using pymatgen
data_Gd19Ta56(WO20)8
_symmetry_space_group_name_H-M   'P 1'
_cell_length_a   15.61290732
_cell_length_b   15.46224801
_cell_length_c   15.02858070
_cell_angle_alpha   90.06937573
_cell_angle_beta   90.01520105
_cell_angle_gamma   89.85790763
_symmetry_Int_Tables_number   1
_chemical_formula_structural   Gd19Ta56(WO20)8
_chemical_formula_sum   'Gd19 Ta56 W8 O160'
_cell_volume   3628.04542159
_cell_formula_units_Z   1
loop_
 _symmetry_equiv_pos_site_id
 _symmetry_equiv_pos_as_xyz
  1  'x, y, z'
loop_
 _atom_type_symbol
 _atom_type_oxidation_number
  Gd3+  3.0
  Ta5+  5.0
  W6+  6.0
  O2-  -2.0
loop_
 _atom_site_type_symbol
 _atom_site_label
 _atom_site_symmetry_multiplicity
 _atom_site_fract_x
 _atom_site_fract_y
 _atom_site_fract_z
 _atom_site_occupancy
  Gd3+  Gd0  1  0.75097486  0.72462573  0.26283426  1
  Gd3+  Gd1  1  0.23925636  0.75469524  0.74987542  1
  Gd3+  Gd2  1  0.47156011  0.24900327  -0.02265736  1
  Gd3+  Gd3  1  0.01644573  0.26369996  0.72684222  1
  Gd3+  Gd4  1  0.75218034  0.74559783  0.00176168  1
  Gd3+  Gd5  1  0.01398905  0.25991122  0.01626757  1
  Gd3+  Gd6  1  -0.00195081  0.77933838  0.53375786  1
  Gd3+  Gd7  1  0.21949415  0.78559806  0.50878835  1
  Gd3+  Gd8  1  0.76117756  0.26390411  0.00015905  1
  Gd3+  Gd9  1  0.26391478  0.26066919  0.27203290  1
  Gd3+  Gd10  1  0.21720331  0.75381868  0.00345246  1
  Gd3+  Gd11  1  0.00398482  0.76724712  0.26138319  1
  Gd3+  Gd12  1  0.51299648  0.74291804  0.25004270  1
  Gd3+  Gd13  1  0.74428269  0.23666119  0.27555449  1
  Gd3+  Gd14  1  0.52003696  0.74863306  0.49140232  1
  Gd3+  Gd15  1  0.74914831  0.75736255  0.74363742  1
  Gd3+  Gd16  1  0.78038341  0.24010323  0.73330645  1
  Gd3+  Gd17  1  0.24665230  0.25239648  0.72208256  1
  Gd3+  Gd18  1  0.45735961  0.24624958  0.54866663  1
  Ta5+  Ta19  1  0.90793404  0.62361983  0.12427323  1
  Ta5+  Ta20  1  0.60408374  0.86853812  0.87469293  1
  Ta5+  Ta21  1  0.66888236  0.59195688  0.41775685  1
  Ta5+  Ta22  1  0.12248203  0.38582058  0.13941852  1
  Ta5+  Ta23  1  0.32664938  0.40474269  0.59956533  1
  Ta5+  Ta24  1  0.11468518  0.61715191  0.61601225  1
  Ta5+  Ta25  1  0.37078057  0.62050598  0.37605548  1
  Ta5+  Ta26  1  0.86497642  0.88690323  0.39082121  1
  Ta5+  Ta27  1  0.16148581  0.63263738  0.35229747  1
  Ta5+  Ta28  1  0.88616637  0.62435849  0.87373896  1
  Ta5+  Ta29  1  0.60293426  0.36043831  0.12681484  1
  Ta5+  Ta30  1  0.38736059  0.88855176  0.37652240  1
  Ta5+  Ta31  1  0.62893739  0.60766926  0.61977871  1
  Ta5+  Ta32  1  0.89244502  0.87531159  0.88404866  1
  Ta5+  Ta33  1  0.14851228  0.95698177  0.62516175  1
  Ta5+  Ta34  1  0.60567148  0.12665126  0.12342838  1
  Ta5+  Ta35  1  0.61606802  0.36247139  0.64980462  1
  Ta5+  Ta36  1  0.60887481  0.11785468  0.63479452  1
  Ta5+  Ta37  1  0.14172441  0.38364113  0.87221791  1
  Ta5+  Ta38  1  0.36522999  0.37632102  0.12528438  1
  Ta5+  Ta39  1  0.37975346  0.63736137  0.89608862  1
  Ta5+  Ta40  1  0.66528113  0.92037696  0.37343613  1
  Ta5+  Ta41  1  0.40414028  0.13611736  0.38371266  1
  Ta5+  Ta42  1  0.36876360  0.12926361  0.12666160  1
  Ta5+  Ta43  1  0.61282193  0.87855402  0.12138181  1
  Ta5+  Ta44  1  0.92936232  0.10282853  0.63002792  1
  Ta5+  Ta45  1  0.39184627  0.88225620  0.63383706  1
  Ta5+  Ta46  1  0.88397172  0.37138923  0.60274045  1
  Ta5+  Ta47  1  0.35364753  0.11244579  0.85499363  1
  Ta5+  Ta48  1  0.12746782  0.12246729  0.59558197  1
  Ta5+  Ta49  1  0.61278031  0.61641796  0.87092975  1
  Ta5+  Ta50  1  0.64730167  0.11224480  0.87355346  1
  Ta5+  Ta51  1  0.85899619  0.11400279  0.88146903  1
  Ta5+  Ta52  1  0.36170843  0.62299904  0.15857096  1
  Ta5+  Ta53  1  0.85656286  0.37239662  0.39772477  1
  Ta5+  Ta54  1  0.11529818  0.12347938  0.87258367  1
  Ta5+  Ta55  1  0.58869640  0.35663127  0.38819749  1
  Ta5+  Ta56  1  0.42184601  0.37566121  0.37972535  1
  Ta5+  Ta57  1  0.11030344  0.59931185  0.86245493  1
  Ta5+  Ta58  1  0.36921049  0.87987593  0.14757062  1
  Ta5+  Ta59  1  0.88713082  0.12205853  0.13649088  1
  Ta5+  Ta60  1  0.29558024  0.06115729  0.60077490  1
  Ta5+  Ta61  1  0.91329617  0.11488512  0.37663152  1
  Ta5+  Ta62  1  0.61150172  0.60494290  0.11206219  1
  Ta5+  Ta63  1  0.09223104  0.87840295  0.85396339  1
  Ta5+  Ta64  1  0.63673578  0.36949836  0.85799443  1
  Ta5+  Ta65  1  0.16970008  0.89459808  0.30128602  1
  Ta5+  Ta66  1  0.16092442  0.38541419  0.40246073  1
  Ta5+  Ta67  1  0.12665504  0.12725895  0.13892589  1
  Ta5+  Ta68  1  0.07286042  0.62898895  0.10985043  1
  Ta5+  Ta69  1  0.12766059  0.37531608  0.57178167  1
  Ta5+  Ta70  1  0.57145931  0.14430556  0.37993196  1
  Ta5+  Ta71  1  0.88111454  0.37806109  0.15038209  1
  Ta5+  Ta72  1  0.14775968  0.12739009  0.39563302  1
  Ta5+  Ta73  1  0.38723448  0.63783983  0.63319596  1
  Ta5+  Ta74  1  0.89484557  0.61694535  0.64217947  1
  W6+  W75  1  0.86625494  0.87088758  0.12606060  1
  W6+  W76  1  0.33790564  0.39604816  0.86502741  1
  W6+  W77  1  0.88524140  0.89210728  0.66067468  1
  W6+  W78  1  0.62825185  0.87367724  0.61470653  1
  W6+  W79  1  0.91610371  0.61765881  0.38842168  1
  W6+  W80  1  0.35598941  0.88253140  0.88928582  1
  W6+  W81  1  0.88205416  0.37676322  0.87611956  1
  W6+  W82  1  0.08350379  0.89513933  0.07733255  1
  O2-  O83  1  0.14558582  0.01037402  0.11436262  1
  O2-  O84  1  0.14681147  -0.00214873  0.35896578  1
  O2-  O85  1  0.03364488  0.03287943  0.63861728  1
  O2-  O86  1  0.07657225  0.01140390  0.86053049  1
  O2-  O87  1  0.09766163  0.50516856  0.12740952  1
  O2-  O88  1  0.15847038  0.51625483  0.37742174  1
  O2-  O89  1  0.13953972  0.50000606  0.60339646  1
  O2-  O90  1  0.06081452  0.48994505  0.85555475  1
  O2-  O91  1  0.37361455  0.00595868  0.13640825  1
  O2-  O92  1  0.39033623  0.00712879  0.37476503  1
  O2-  O93  1  0.41196938  -0.00054807  0.63742772  1
  O2-  O94  1  0.40617634  0.00719107  0.86901225  1
  O2-  O95  1  0.35943070  0.50021626  0.13485614  1
  O2-  O96  1  0.38008471  0.50237131  0.38743557  1
  O2-  O97  1  0.33160903  0.53426756  0.61401916  1
  O2-  O98  1  0.39011893  0.52031920  0.88671550  1
  O2-  O99  1  0.62278078  0.00303852  0.12152044  1
  O2-  O100  1  0.59109053  0.01519396  0.36534121  1
  O2-  O101  1  0.64233639  0.00547686  0.61702618  1
  O2-  O102  1  0.62510695  -0.00981902  0.88538399  1
  O2-  O103  1  0.60391485  0.48322732  0.10391282  1
  O2-  O104  1  0.63108994  0.48251989  0.38514621  1
  O2-  O105  1  0.61877020  0.48539705  0.63932408  1
  O2-  O106  1  0.60438788  0.49613262  0.86718211  1
  O2-  O107  1  0.87713916  0.00606324  0.12046612  1
  O2-  O108  1  0.93003459  -0.00897800  0.35956316  1
  O2-  O109  1  0.84675884  0.02217109  0.65022753  1
  O2-  O110  1  0.89706282  0.00002343  0.89426882  1
  O2-  O111  1  0.88846864  0.49954631  0.13714629  1
  O2-  O112  1  0.90105833  0.48268296  0.39627598  1
  O2-  O113  1  0.87437762  0.49691251  0.62215401  1
  O2-  O114  1  0.88652049  0.50679204  0.87225722  1
  O2-  O115  1  0.14154488  0.25425145  0.12550024  1
  O2-  O116  1  0.16964953  0.25341012  0.39719066  1
  O2-  O117  1  0.14823247  0.25412515  0.59942364  1
  O2-  O118  1  0.06007773  0.25056280  0.87327838  1
  O2-  O119  1  0.08759939  0.75709643  0.08815693  1
  O2-  O120  1  0.13271047  0.78077018  0.34808366  1
  O2-  O121  1  0.13880034  0.74114823  0.63377218  1
  O2-  O122  1  0.13410072  0.75568222  0.85791886  1
  O2-  O123  1  0.32144921  0.25261673  0.12720726  1
  O2-  O124  1  0.36697723  0.26175758  0.40187345  1
  O2-  O125  1  0.33188032  0.27791690  0.60586180  1
  O2-  O126  1  0.41752342  0.21538348  0.84549353  1
  O2-  O127  1  0.37781107  0.75116656  0.17241295  1
  O2-  O128  1  0.42712363  0.75143484  0.36912267  1
  O2-  O129  1  0.32536274  0.75049596  0.61473371  1
  O2-  O130  1  0.31063870  0.74978638  0.88885582  1
  O2-  O131  1  0.66244851  0.24362876  0.11378339  1
  O2-  O132  1  0.64908237  0.24483191  0.39580904  1
  O2-  O133  1  0.66335609  0.23351572  0.64418910  1
  O2-  O134  1  0.66673409  0.24229401  0.85900711  1
  O2-  O135  1  0.63669591  0.74674212  0.13055855  1
  O2-  O136  1  0.61249365  0.69392014  0.36230565  1
  O2-  O137  1  0.65348336  0.73472293  0.61326019  1
  O2-  O138  1  0.65961241  0.74541127  0.87687884  1
  O2-  O139  1  0.83476865  0.24670788  0.14273787  1
  O2-  O140  1  0.85959646  0.24096842  0.37990773  1
  O2-  O141  1  0.89061266  0.23039692  0.62211304  1
  O2-  O142  1  0.84943573  0.24467099  0.87468139  1
  O2-  O143  1  0.82811826  0.73583249  0.13172615  1
  O2-  O144  1  0.93873044  0.76502901  0.39684115  1
  O2-  O145  1  0.89002987  0.74975342  0.65342992  1
  O2-  O146  1  0.84093859  0.74894325  0.87351666  1
  O2-  O147  1  0.09712719  0.13844891  0.00104113  1
  O2-  O148  1  0.17292276  0.13607849  0.25802515  1
  O2-  O149  1  0.21822388  0.10467172  0.49676753  1
  O2-  O150  1  0.12539135  0.15645496  0.74392791  1
  O2-  O151  1  0.14164105  0.62006350  -0.01560782  1
  O2-  O152  1  0.10260207  0.64612513  0.24026581  1
  O2-  O153  1  0.11373883  0.65613091  0.48823543  1
  O2-  O154  1  0.16861969  0.61388724  0.75004666  1
  O2-  O155  1  0.37070932  0.13691777  -0.00383251  1
  O2-  O156  1  0.36184908  0.14713715  0.25816960  1
  O2-  O157  1  0.37813135  0.12366098  0.51376792  1
  O2-  O158  1  0.31797447  0.11370782  0.72967687  1
  O2-  O159  1  0.34071276  0.64580018  0.02310782  1
  O2-  O160  1  0.44366604  0.61562056  0.26755993  1
  O2-  O161  1  0.40752960  0.64778423  0.50152591  1
  O2-  O162  1  0.35687231  0.65141660  0.76273690  1
  O2-  O163  1  0.58164749  0.14112287  -0.01701660  1
  O2-  O164  1  0.62163393  0.14498082  0.24906071  1
  O2-  O165  1  0.56682726  0.14004311  0.51653150  1
  O2-  O166  1  0.58178441  0.11711668  0.76360174  1
  O2-  O167  1  0.66332396  0.61855687  -0.00750509  1
  O2-  O168  1  0.67261005  0.60438507  0.21774774  1
  O2-  O169  1  0.57100455  0.60991711  0.50355607  1
  O2-  O170  1  0.65498097  0.62799949  0.75271208  1
  O2-  O171  1  0.90743246  0.15158136  0.00666797  1
  O2-  O172  1  0.84200709  0.11992885  0.26126483  1
  O2-  O173  1  0.90976632  0.10331285  0.49989907  1
  O2-  O174  1  0.92918914  0.13454932  0.76924733  1
  O2-  O175  1  0.85563484  0.63050293  -0.00209913  1
  O2-  O176  1  0.90793030  0.64661035  0.25266358  1
  O2-  O177  1  0.92791171  0.64120450  0.52361997  1
  O2-  O178  1  0.82656410  0.62489458  0.75488914  1
  O2-  O179  1  0.10989959  0.37397784  -0.00099894  1
  O2-  O180  1  0.15657234  0.37881842  0.26022295  1
  O2-  O181  1  0.24554192  0.39926093  0.50107377  1
  O2-  O182  1  0.12574127  0.35874855  0.74252359  1
  O2-  O183  1  0.16455459  0.88785653  -0.03810970  1
  O2-  O184  1  0.07400089  0.89114419  0.22123839  1
  O2-  O185  1  0.10743558  0.88391322  0.52583708  1
  O2-  O186  1  0.16233307  0.90071663  0.74849381  1
  O2-  O187  1  0.37568863  0.36469574  -0.00377764  1
  O2-  O188  1  0.37501320  0.36483822  0.25732187  1
  O2-  O189  1  0.42244672  0.39486362  0.51863598  1
  O2-  O190  1  0.31258661  0.39627331  0.72694219  1
  O2-  O191  1  0.33142261  0.85866648  0.03138423  1
  O2-  O192  1  0.44841061  0.88027118  0.26308893  1
  O2-  O193  1  0.41606239  0.86705369  0.49742880  1
  O2-  O194  1  0.34954657  0.86227861  0.75058655  1
  O2-  O195  1  0.59038450  0.34422045  -0.02050041  1
  O2-  O196  1  0.62252249  0.35307725  0.25159220  1
  O2-  O197  1  0.58610423  0.34248216  0.52732492  1
  O2-  O198  1  0.54957463  0.35126348  0.75932706  1
  O2-  O199  1  0.65054205  0.86314342  0.00131741  1
  O2-  O200  1  0.64058947  0.86933983  0.25371052  1
  O2-  O201  1  0.60809609  0.86764102  0.46994033  1
  O2-  O202  1  0.63726934  0.86111631  0.75428569  1
  O2-  O203  1  0.88916481  0.35408276  0.01955170  1
  O2-  O204  1  0.82217880  0.37517610  0.26665107  1
  O2-  O205  1  0.79852142  0.36138875  0.51269724  1
  O2-  O206  1  0.88963142  0.35295346  0.73612588  1
  O2-  O207  1  0.82442925  0.87236767  -0.00904500  1
  O2-  O208  1  0.87976465  0.85184640  0.26475895  1
  O2-  O209  1  0.89816038  0.88471324  0.51445443  1
  O2-  O210  1  0.81485829  0.88613501  0.78267117  1
  O2-  O211  1  0.00073583  -0.13944345  -0.04543125  1
  O2-  O212  1  0.00402190  0.14249754  0.16335034  1
  O2-  O213  1  0.02562893  0.14898392  0.36096294  1
  O2-  O214  1  -0.01608014  -0.13706560  0.78519785  1
  O2-  O215  1  0.00138960  0.65659819  -0.13778818  1
  O2-  O216  1  -0.00041819  0.34831040  0.15954286  1
  O2-  O217  1  0.00434778  0.36541841  0.59148856  1
  O2-  O218  1  0.00870405  0.60609743  0.68432551  1
  O2-  O219  1  0.23372112  0.10917640  -0.11219603  1
  O2-  O220  1  0.26330520  -0.11200725  0.21762467  1
  O2-  O221  1  0.26869511  -0.13242332  0.39059341  1
  O2-  O222  1  0.26892185  -0.08413621  0.58663957  1
  O2-  O223  1  0.23776890  0.30084356  -0.13029388  1
  O2-  O224  1  0.28133791  0.62302173  0.26436422  1
  O2-  O225  1  0.26357619  0.67514820  0.41935141  1
  O2-  O226  1  0.22024426  0.47442010  0.87932131  1
  O2-  O227  1  0.49721859  -0.13452078  0.10488627  1
  O2-  O228  1  0.48812415  0.15794814  0.12939977  1
  O2-  O229  1  0.49876938  -0.18052323  0.63503326  1
  O2-  O230  1  0.49123924  -0.15127133  0.88569676  1
  O2-  O231  1  0.49532326  0.63507590  0.11315751  1
  O2-  O232  1  0.48576251  0.33671459  0.12604145  1
  O2-  O233  1  0.50380842  0.62708269  0.65998503  1
  O2-  O234  1  0.50035553  0.65914340  0.89407245  1
  O2-  O235  1  0.75191445  0.11714035  -0.03707859  1
  O2-  O236  1  0.75713764  -0.18107279  0.38175139  1
  O2-  O237  1  0.76926034  -0.02008532  0.39618075  1
  O2-  O238  1  0.75937409  0.10460063  0.79915859  1
  O2-  O239  1  0.74662197  0.38911154  -0.08599215  1
  O2-  O240  1  0.77717600  0.62525602  0.36835747  1
  O2-  O241  1  0.72623905  0.58869814  0.53664683  1
  O2-  O242  1  0.71108015  0.37166395  0.74082008  1
