# generated using pymatgen
data_Gd19Ta56(WO20)8
_symmetry_space_group_name_H-M   'P 1'
_cell_length_a   15.55614983
_cell_length_b   15.52076143
_cell_length_c   15.27339653
_cell_angle_alpha   90.01752651
_cell_angle_beta   89.88837704
_cell_angle_gamma   89.78563701
_symmetry_Int_Tables_number   1
_chemical_formula_structural   Gd19Ta56(WO20)8
_chemical_formula_sum   'Gd19 Ta56 W8 O160'
_cell_volume   3687.62612542
_cell_formula_units_Z   1
loop_
 _symmetry_equiv_pos_site_id
 _symmetry_equiv_pos_as_xyz
  1  'x, y, z'
loop_
 _atom_type_symbol
 _atom_type_oxidation_number
  Gd3+  3.0
  Ta5+  5.0
  W6+  6.0
  O2-  -2.0
loop_
 _atom_site_type_symbol
 _atom_site_label
 _atom_site_symmetry_multiplicity
 _atom_site_fract_x
 _atom_site_fract_y
 _atom_site_fract_z
 _atom_site_occupancy
  Gd3+  Gd0  1  0.49534088  0.76301932  0.02119516  1
  Gd3+  Gd1  1  0.28159850  0.74912011  0.76095381  1
  Gd3+  Gd2  1  0.26853337  0.24646773  0.51191569  1
  Gd3+  Gd3  1  0.23021403  0.26230923  0.75374646  1
  Gd3+  Gd4  1  -0.00602659  0.23575461  -0.00990906  1
  Gd3+  Gd5  1  0.71687086  0.25492137  0.22887038  1
  Gd3+  Gd6  1  0.52621376  0.25295055  0.77386705  1
  Gd3+  Gd7  1  0.00432366  0.75621979  -0.00480373  1
  Gd3+  Gd8  1  0.74614153  0.74307210  0.50959289  1
  Gd3+  Gd9  1  0.75223205  0.74733250  0.76628443  1
  Gd3+  Gd10  1  0.24996901  0.73954087  0.50158579  1
  Gd3+  Gd11  1  0.49499450  0.75411140  0.26248803  1
  Gd3+  Gd12  1  0.01731970  0.26499337  0.25545318  1
  Gd3+  Gd13  1  0.73436411  0.74059322  0.25997822  1
  Gd3+  Gd14  1  0.27251544  0.25153402  0.23179976  1
  Gd3+  Gd15  1  0.25519713  0.76956509  0.00335521  1
  Gd3+  Gd16  1  -0.02166783  0.73215297  0.24013412  1
  Gd3+  Gd17  1  -0.05279285  0.22885611  0.51909319  1
  Gd3+  Gd18  1  -0.04288548  0.74705800  0.49155293  1
  Ta5+  Ta19  1  0.88631897  0.37068275  0.86210124  1
  Ta5+  Ta20  1  0.57048371  0.62298571  0.88281541  1
  Ta5+  Ta21  1  0.88607037  0.38063557  0.12357715  1
  Ta5+  Ta22  1  0.39967835  0.37544841  0.11688871  1
  Ta5+  Ta23  1  0.08940752  0.61964280  0.65696922  1
  Ta5+  Ta24  1  0.84482904  0.88513656  0.11991957  1
  Ta5+  Ta25  1  0.88428627  0.60355497  0.64040323  1
  Ta5+  Ta26  1  0.13370097  0.37592304  0.38689086  1
  Ta5+  Ta27  1  0.85753136  0.59490526  0.35415963  1
  Ta5+  Ta28  1  0.62065937  0.13203555  0.38827557  1
  Ta5+  Ta29  1  0.84339598  0.12310213  0.87315371  1
  Ta5+  Ta30  1  0.61442983  0.87541508  0.63983303  1
  Ta5+  Ta31  1  0.63265330  0.61402730  0.12081002  1
  Ta5+  Ta32  1  0.59305117  0.12627822  0.12312779  1
  Ta5+  Ta33  1  0.62221046  0.88614872  0.89175408  1
  Ta5+  Ta34  1  0.38063606  0.62441684  0.38533206  1
  Ta5+  Ta35  1  0.34424415  0.61149296  0.14338366  1
  Ta5+  Ta36  1  0.12552112  0.11873337  0.12631006  1
  Ta5+  Ta37  1  0.86555715  0.13078608  0.12481640  1
  Ta5+  Ta38  1  0.88395714  0.90372985  0.35377839  1
  Ta5+  Ta39  1  0.38954833  0.90119811  0.88198093  1
  Ta5+  Ta40  1  0.40533350  0.13099200  0.63932294  1
  Ta5+  Ta41  1  0.65294565  0.37050639  0.63860458  1
  Ta5+  Ta42  1  0.57334417  0.37382637  0.12180619  1
  Ta5+  Ta43  1  0.37985394  0.37819727  0.64435650  1
  Ta5+  Ta44  1  0.82084128  0.36749130  0.62725674  1
  Ta5+  Ta45  1  0.64137902  0.88614531  0.13052503  1
  Ta5+  Ta46  1  0.39832851  0.62109169  0.63102530  1
  Ta5+  Ta47  1  0.13989731  0.62057068  0.13365274  1
  Ta5+  Ta48  1  0.10892893  0.88136437  0.36287593  1
  Ta5+  Ta49  1  0.15465225  0.89904916  0.15137811  1
  Ta5+  Ta50  1  0.37221462  0.38508565  0.37781788  1
  Ta5+  Ta51  1  0.11414781  0.87814257  0.81582111  1
  Ta5+  Ta52  1  0.37866880  0.13103785  0.38222502  1
  Ta5+  Ta53  1  0.38020081  0.13633301  0.89479128  1
  Ta5+  Ta54  1  0.17900123  0.54764309  0.32183387  1
  Ta5+  Ta55  1  0.40799832  0.38212421  0.91033117  1
  Ta5+  Ta56  1  0.35898064  0.89692121  0.14745532  1
  Ta5+  Ta57  1  0.80879300  0.12325609  0.67921336  1
  Ta5+  Ta58  1  0.14180648  0.61538651  0.87791487  1
  Ta5+  Ta59  1  0.62291274  0.61851805  0.63986454  1
  Ta5+  Ta60  1  0.61698665  0.88388038  0.39330275  1
  Ta5+  Ta61  1  0.12717511  0.12127168  0.37650073  1
  Ta5+  Ta62  1  0.60649199  0.36417671  0.38746639  1
  Ta5+  Ta63  1  0.64788815  0.38619882  0.89108480  1
  Ta5+  Ta64  1  0.61406780  0.60922856  0.38543723  1
  Ta5+  Ta65  1  0.38432608  0.88565467  0.39109822  1
  Ta5+  Ta66  1  0.90790519  0.61753687  0.85681331  1
  Ta5+  Ta67  1  0.14568285  0.11360625  0.87174559  1
  Ta5+  Ta68  1  0.13126952  0.37985122  0.61419794  1
  Ta5+  Ta69  1  0.66775164  0.12809064  0.88412157  1
  Ta5+  Ta70  1  0.88591150  0.88498937  0.87524338  1
  Ta5+  Ta71  1  0.64142635  0.12358546  0.64372924  1
  Ta5+  Ta72  1  0.83636237  0.61937333  0.09981780  1
  Ta5+  Ta73  1  0.89375769  0.10035318  0.35216919  1
  Ta5+  Ta74  1  0.42613810  0.13182291  0.12742222  1
  W6+  W75  1  0.36478867  0.88531554  0.62645948  1
  W6+  W76  1  0.11902066  0.11731275  0.62048280  1
  W6+  W77  1  0.84852210  0.35689795  0.37215028  1
  W6+  W78  1  0.91400030  0.92311220  0.66518017  1
  W6+  W79  1  0.12630921  0.37514011  0.11616412  1
  W6+  W80  1  0.09694599  0.36767524  0.86681818  1
  W6+  W81  1  0.10570322  0.86482156  0.61311932  1
  W6+  W82  1  0.40758320  0.63024875  0.88915348  1
  O2-  O83  1  0.08720163  -0.00176364  0.15163382  1
  O2-  O84  1  0.13961719  -0.00433333  0.35354004  1
  O2-  O85  1  0.09764759  -0.00227491  0.61984706  1
  O2-  O86  1  0.14495573  -0.01271261  0.86156288  1
  O2-  O87  1  0.12359802  0.50888227  0.10223614  1
  O2-  O88  1  0.08150139  0.49416776  0.37053077  1
  O2-  O89  1  0.12305053  0.51055983  0.62310809  1
  O2-  O90  1  0.12371096  0.50214442  0.87566378  1
  O2-  O91  1  0.40905739  0.00332915  0.13853594  1
  O2-  O92  1  0.38292552  0.00900478  0.39241119  1
  O2-  O93  1  0.39285923  0.01502707  0.62753834  1
  O2-  O94  1  0.33896295  0.00897145  0.88746228  1
  O2-  O95  1  0.39461116  0.50615514  0.11774965  1
  O2-  O96  1  0.40544136  0.50600683  0.37717649  1
  O2-  O97  1  0.41103993  0.49957480  0.63247134  1
  O2-  O98  1  0.43289701  0.49813501  0.89650480  1
  O2-  O99  1  0.61100340  -0.00090606  0.14947791  1
  O2-  O100  1  0.62428005  0.00310638  0.38386962  1
  O2-  O101  1  0.62720097  -0.00651749  0.64244074  1
  O2-  O102  1  0.67340157  -0.00591267  0.88372605  1
  O2-  O103  1  0.59735543  0.50220348  0.13768306  1
  O2-  O104  1  0.59520730  0.49211208  0.38374337  1
  O2-  O105  1  0.64358554  0.50251261  0.64280109  1
  O2-  O106  1  0.61554631  0.51049779  0.88636753  1
  O2-  O107  1  0.85854132  0.00467389  0.12234720  1
  O2-  O108  1  0.96421346  -0.01434961  0.38970414  1
  O2-  O109  1  0.82722475  0.01276156  0.62872755  1
  O2-  O110  1  0.86020358  -0.00121411  0.90174413  1
  O2-  O111  1  0.85823721  0.49868393  0.10091068  1
  O2-  O112  1  0.88365377  0.48158355  0.37603984  1
  O2-  O113  1  0.83346010  0.50024051  0.60934528  1
  O2-  O114  1  0.91585252  0.49751279  0.87658216  1
  O2-  O115  1  0.09543793  0.23895827  0.12240862  1
  O2-  O116  1  0.12372248  0.25145797  0.37821690  1
  O2-  O117  1  0.15857859  0.24594876  0.61445074  1
  O2-  O118  1  0.09060759  0.22546209  0.87063729  1
  O2-  O119  1  0.03058679  0.67299245  0.11220098  1
  O2-  O120  1  -0.00140428  0.82063452  0.37161630  1
  O2-  O121  1  0.14176709  0.71939988  0.60574559  1
  O2-  O122  1  0.16707635  0.77613990  0.87523143  1
  O2-  O123  1  0.38210767  0.24941053  0.11514603  1
  O2-  O124  1  0.33044018  0.26137549  0.37160742  1
  O2-  O125  1  0.33998039  0.24730545  0.65240271  1
  O2-  O126  1  0.42715919  0.25403802  0.89313006  1
  O2-  O127  1  0.41320275  0.78031408  0.14447496  1
  O2-  O128  1  0.36068035  0.75815093  0.37654273  1
  O2-  O129  1  0.33679326  0.74370863  0.62331022  1
  O2-  O130  1  0.35482101  0.76862988  0.88974568  1
  O2-  O131  1  0.60479180  0.25315570  0.12090109  1
  O2-  O132  1  0.67419062  0.25180121  0.37658814  1
  O2-  O133  1  0.62578827  0.24866758  0.65190941  1
  O2-  O134  1  0.62882888  0.25776184  0.88336987  1
  O2-  O135  1  0.61028314  0.75246814  0.13162036  1
  O2-  O136  1  0.65773581  0.75463703  0.38641369  1
  O2-  O137  1  0.67093482  0.74897536  0.63564559  1
  O2-  O138  1  0.60963343  0.75296342  0.90481871  1
  O2-  O139  1  0.91946463  0.24663908  0.13823044  1
  O2-  O140  1  0.91827119  0.24523482  0.36731785  1
  O2-  O141  1  0.84335466  0.23561872  0.63341569  1
  O2-  O142  1  0.90416688  0.24820875  0.86743354  1
  O2-  O143  1  0.85461661  0.74329465  0.13804565  1
  O2-  O144  1  0.85867100  0.73073720  0.33381127  1
  O2-  O145  1  0.84375855  0.72077425  0.62837598  1
  O2-  O146  1  0.87519556  0.74800433  0.85867965  1
  O2-  O147  1  0.13221339  0.10894023  0.00284557  1
  O2-  O148  1  0.17359720  0.13877582  0.24616495  1
  O2-  O149  1  0.07050095  0.13235589  0.48881262  1
  O2-  O150  1  0.17290707  0.12885649  0.74549621  1
  O2-  O151  1  0.16831009  0.64777012  -0.00192334  1
  O2-  O152  1  0.10603971  0.63457268  0.25895199  1
  O2-  O153  1  0.24832773  0.63042853  0.38187133  1
  O2-  O154  1  0.17590411  0.63808741  0.75755654  1
  O2-  O155  1  0.43950446  0.11129679  -0.00217953  1
  O2-  O156  1  0.37267483  0.14040855  0.25502515  1
  O2-  O157  1  0.38766593  0.15878409  0.51095274  1
  O2-  O158  1  0.41349881  0.13225023  0.77014751  1
  O2-  O159  1  0.37087212  0.65859580  0.02928661  1
  O2-  O160  1  0.39898943  0.63829314  0.25152220  1
  O2-  O161  1  0.35342828  0.62198137  0.50958325  1
  O2-  O162  1  0.37644175  0.63096200  0.75245558  1
  O2-  O163  1  0.63504253  0.12026273  0.00355812  1
  O2-  O164  1  0.63585487  0.13554960  0.25582886  1
  O2-  O165  1  0.64221423  0.13030523  0.51027347  1
  O2-  O166  1  0.59865653  0.12044350  0.77172388  1
  O2-  O167  1  0.55791661  0.62734546  0.01730564  1
  O2-  O168  1  0.59631167  0.64282658  0.25732494  1
  O2-  O169  1  0.64855805  0.62745217  0.50784336  1
  O2-  O170  1  0.62122599  0.64523802  0.76420447  1
  O2-  O171  1  0.86342514  0.14866450  0.00217754  1
  O2-  O172  1  0.82784599  0.14727697  0.25183447  1
  O2-  O173  1  0.86677826  0.12256681  0.46769490  1
  O2-  O174  1  0.90567106  0.10361153  0.76472702  1
  O2-  O175  1  0.89619267  0.63931723  -0.01193591  1
  O2-  O176  1  0.90542436  0.60214493  0.23546988  1
  O2-  O177  1  0.85691857  0.63676582  0.47863774  1
  O2-  O178  1  0.82277880  0.61223089  0.76160284  1
  O2-  O179  1  0.06890581  0.35887445  -0.00119350  1
  O2-  O180  1  0.15615525  0.35295720  0.24937929  1
  O2-  O181  1  0.07221092  0.36421716  0.50389244  1
  O2-  O182  1  0.09460680  0.35920164  0.72908121  1
  O2-  O183  1  0.11535111  0.82322505  0.06195484  1
  O2-  O184  1  0.10590301  0.82657461  0.24478546  1
  O2-  O185  1  0.14773224  0.84413356  0.47258669  1
  O2-  O186  1  0.19783594  0.86422631  0.72071839  1
  O2-  O187  1  0.32423093  0.37921312  -0.00274201  1
  O2-  O188  1  0.36675843  0.37366330  0.24590726  1
  O2-  O189  1  0.35855488  0.36802285  0.50957536  1
  O2-  O190  1  0.39578340  0.37087536  0.77124524  1
  O2-  O191  1  0.39474604  0.87369065  0.00934969  1
  O2-  O192  1  0.41610205  0.88564400  0.26847935  1
  O2-  O193  1  0.31684774  0.87369248  0.49538969  1
  O2-  O194  1  0.36896691  0.87272736  0.76309812  1
  O2-  O195  1  0.64905629  0.38587994  0.01458076  1
  O2-  O196  1  0.61708806  0.36438677  0.25276054  1
  O2-  O197  1  0.63526173  0.36771582  0.50838483  1
  O2-  O198  1  0.60515462  0.37892696  0.76492583  1
  O2-  O199  1  0.57704280  0.88485467  0.01769307  1
  O2-  O200  1  0.59896540  0.86027647  0.26655692  1
  O2-  O201  1  0.65985439  0.87037508  0.51400495  1
  O2-  O202  1  0.64252387  0.85634914  0.76492957  1
  O2-  O203  1  0.88801595  0.35257774  0.00128305  1
  O2-  O204  1  0.81967432  0.36385912  0.22963470  1
  O2-  O205  1  0.86192777  0.34779998  0.50841828  1
  O2-  O206  1  0.87913551  0.37793656  0.73795863  1
  O2-  O207  1  0.90028456  0.85589961  0.01031209  1
  O2-  O208  1  0.91725790  0.87337314  0.23052609  1
  O2-  O209  1  0.83838449  0.84692887  0.45422094  1
  O2-  O210  1  0.82774447  0.88008149  0.76395664  1
  O2-  O211  1  0.01162983  -0.13061915  -0.10623354  1
  O2-  O212  1  0.01231917  0.12304310  0.30873888  1
  O2-  O213  1  -0.02299486  -0.13532640  0.56659510  1
  O2-  O214  1  0.02734761  -0.14445364  0.72925323  1
  O2-  O215  1  0.02749498  0.66233262  -0.11856086  1
  O2-  O216  1  -0.00510791  0.39425888  0.17348142  1
  O2-  O217  1  -0.00624231  0.62457662  0.57224299  1
  O2-  O218  1  -0.01844912  0.60753149  0.73390516  1
  O2-  O219  1  0.25386297  -0.09163900  0.06964251  1
  O2-  O220  1  0.25782977  -0.10388856  0.22958399  1
  O2-  O221  1  0.24781396  0.12613907  0.41042074  1
  O2-  O222  1  0.25980050  0.17225967  0.88723899  1
  O2-  O223  1  0.24258272  0.69977392  0.13881807  1
  O2-  O224  1  0.24747059  0.55244684  0.20931392  1
  O2-  O225  1  0.24804896  0.44141707  0.37164576  1
  O2-  O226  1  0.25386200  0.39055955  0.65327741  1
  O2-  O227  1  0.50676466  -0.07820041  -0.13683688  1
  O2-  O228  1  0.50242514  0.14896773  0.38269717  1
  O2-  O229  1  0.50152351  -0.13628721  0.42581216  1
  O2-  O230  1  0.50105312  -0.14235166  0.62581957  1
  O2-  O231  1  0.48702854  0.37033582  0.01791239  1
  O2-  O232  1  0.48926706  0.34135833  0.38830713  1
  O2-  O233  1  0.49988702  0.66293440  0.40029612  1
  O2-  O234  1  0.50892935  0.66285775  0.61283427  1
  O2-  O235  1  0.73748025  -0.11990193  0.04860644  1
  O2-  O236  1  0.74857230  -0.12474420  0.20927234  1
  O2-  O237  1  0.81184803  0.00063745  0.33688562  1
  O2-  O238  1  0.75835329  0.18085783  0.79331897  1
  O2-  O239  1  0.72918374  0.62234742  0.03450958  1
  O2-  O240  1  0.74251345  0.61414295  0.19046471  1
  O2-  O241  1  0.73663797  0.59774575  0.35517231  1
  O2-  O242  1  0.76535119  0.38795631  0.87095696  1
