# generated using pymatgen
data_Gd19Ta56(WO20)8
_symmetry_space_group_name_H-M   'P 1'
_cell_length_a   15.61939184
_cell_length_b   15.49219757
_cell_length_c   15.03566257
_cell_angle_alpha   89.74585208
_cell_angle_beta   89.96434595
_cell_angle_gamma   90.39425433
_symmetry_Int_Tables_number   1
_chemical_formula_structural   Gd19Ta56(WO20)8
_chemical_formula_sum   'Gd19 Ta56 W8 O160'
_cell_volume   3638.18744639
_cell_formula_units_Z   1
loop_
 _symmetry_equiv_pos_site_id
 _symmetry_equiv_pos_as_xyz
  1  'x, y, z'
loop_
 _atom_type_symbol
 _atom_type_oxidation_number
  Gd3+  3.0
  Ta5+  5.0
  W6+  6.0
  O2-  -2.0
loop_
 _atom_site_type_symbol
 _atom_site_label
 _atom_site_symmetry_multiplicity
 _atom_site_fract_x
 _atom_site_fract_y
 _atom_site_fract_z
 _atom_site_occupancy
  Gd3+  Gd0  1  0.49052334  0.75962374  0.49936600  1
  Gd3+  Gd1  1  0.47184566  0.25322728  0.20627811  1
  Gd3+  Gd2  1  0.78687174  0.27321321  0.75303621  1
  Gd3+  Gd3  1  -0.01277305  0.73995316  0.76238146  1
  Gd3+  Gd4  1  0.45239829  0.24225625  0.75392552  1
  Gd3+  Gd5  1  0.20466162  0.75683879  0.79717880  1
  Gd3+  Gd6  1  0.72062027  0.76076165  0.46774932  1
  Gd3+  Gd7  1  0.77088736  0.27363093  0.00615701  1
  Gd3+  Gd8  1  0.75230305  0.78674850  0.24249587  1
  Gd3+  Gd9  1  0.50389480  0.75100580  0.25976407  1
  Gd3+  Gd10  1  0.48201582  0.73275820  -0.00975872  1
  Gd3+  Gd11  1  0.49518958  0.76176423  0.74187398  1
  Gd3+  Gd12  1  0.47958099  0.24531003  0.52019255  1
  Gd3+  Gd13  1  0.02000896  0.75508391  0.00711158  1
  Gd3+  Gd14  1  0.73783585  0.23314286  0.47605749  1
  Gd3+  Gd15  1  0.73179680  0.74851582  0.01834884  1
  Gd3+  Gd16  1  0.01933026  0.73799960  0.52292979  1
  Gd3+  Gd17  1  0.26618218  0.25108085  0.01879448  1
  Gd3+  Gd18  1  0.01690725  0.27645607  0.72279295  1
  Ta5+  Ta19  1  0.12399403  0.94013781  0.88145385  1
  Ta5+  Ta20  1  0.89617227  0.35274051  0.18938408  1
  Ta5+  Ta21  1  0.57358329  0.15263217  0.35760823  1
  Ta5+  Ta22  1  0.62713799  0.62567584  0.87119060  1
  Ta5+  Ta23  1  0.88422311  0.37892963  0.57126592  1
  Ta5+  Ta24  1  0.64819857  0.88408548  0.62918894  1
  Ta5+  Ta25  1  0.92461073  0.09702194  0.87279536  1
  Ta5+  Ta26  1  0.34463986  0.61944397  0.85270180  1
  Ta5+  Ta27  1  0.58833375  0.34992296  0.36441508  1
  Ta5+  Ta28  1  0.39334003  0.38263340  0.88953373  1
  Ta5+  Ta29  1  0.55321568  0.91978266  0.10267418  1
  Ta5+  Ta30  1  0.13332676  0.37773062  0.88194681  1
  Ta5+  Ta31  1  0.89499328  0.12972941  0.13500878  1
  Ta5+  Ta32  1  0.35365281  0.88750259  0.62133633  1
  Ta5+  Ta33  1  0.64985144  0.12851024  0.86828992  1
  Ta5+  Ta34  1  0.89111448  0.92940412  0.13064438  1
  Ta5+  Ta35  1  0.36617054  0.88515747  0.87840480  1
  Ta5+  Ta36  1  0.86732390  0.89839038  0.39532259  1
  Ta5+  Ta37  1  0.39124661  0.06199356  0.11566538  1
  Ta5+  Ta38  1  0.62094972  0.59588842  0.37329448  1
  Ta5+  Ta39  1  0.59892059  0.37896486  0.62718761  1
  Ta5+  Ta40  1  0.36027186  0.60978726  0.38108758  1
  Ta5+  Ta41  1  0.60938093  0.58676362  0.13324875  1
  Ta5+  Ta42  1  0.10356577  0.10960876  0.12289396  1
  Ta5+  Ta43  1  0.61220098  0.90698955  0.35804877  1
  Ta5+  Ta44  1  0.86380115  0.87989752  0.88387964  1
  Ta5+  Ta45  1  0.35589688  0.62285726  0.62575670  1
  Ta5+  Ta46  1  0.12076518  0.60909725  0.13918855  1
  Ta5+  Ta47  1  0.34788853  0.37393267  0.62181257  1
  Ta5+  Ta48  1  0.92570115  0.13990109  0.38585327  1
  Ta5+  Ta49  1  0.85175073  0.61266365  0.63178148  1
  Ta5+  Ta50  1  0.09037028  0.10656752  0.37751173  1
  Ta5+  Ta51  1  0.41974208  0.37660787  0.36599967  1
  Ta5+  Ta52  1  0.63030074  0.38049044  0.86413344  1
  Ta5+  Ta53  1  0.60264317  0.12930864  0.09710123  1
  Ta5+  Ta54  1  0.34761155  0.62984875  0.12200967  1
  Ta5+  Ta55  1  0.86908795  0.87483106  0.61630432  1
  Ta5+  Ta56  1  0.15010994  0.89045660  0.62543341  1
  Ta5+  Ta57  1  0.86617651  0.62514210  0.37739794  1
  Ta5+  Ta58  1  0.87508043  0.12165229  0.61748761  1
  Ta5+  Ta59  1  0.39411964  0.87154314  0.12139371  1
  Ta5+  Ta60  1  0.35777235  0.88323695  0.36607031  1
  Ta5+  Ta61  1  0.86254501  0.37649845  0.36574349  1
  Ta5+  Ta62  1  0.07314634  0.35732556  0.38638239  1
  Ta5+  Ta63  1  0.64799886  0.61763951  0.62615240  1
  Ta5+  Ta64  1  0.17786520  0.37011319  0.61353469  1
  Ta5+  Ta65  1  0.12125382  0.60098662  0.38922802  1
  Ta5+  Ta66  1  0.14021815  0.14439330  0.86488441  1
  Ta5+  Ta67  1  0.40140815  0.12946000  0.36330715  1
  Ta5+  Ta68  1  0.40469143  0.41574958  0.09892349  1
  Ta5+  Ta69  1  0.11594864  0.58355603  0.88883167  1
  Ta5+  Ta70  1  0.11856610  0.12374165  0.61008460  1
  Ta5+  Ta71  1  0.92925856  0.39925556  0.92649794  1
  Ta5+  Ta72  1  0.60705101  0.38966824  0.11012732  1
  Ta5+  Ta73  1  0.88219653  0.59609243  0.14490206  1
  Ta5+  Ta74  1  0.15176029  0.87274481  0.12366116  1
  W6+  W75  1  0.41368388  0.11719229  0.91019133  1
  W6+  W76  1  0.87128307  0.61855525  0.89378828  1
  W6+  W77  1  0.36578619  0.10432794  0.63054056  1
  W6+  W78  1  0.10756443  0.85854944  0.36960604  1
  W6+  W79  1  0.13320983  0.35403630  0.14748579  1
  W6+  W80  1  0.60721491  0.88286828  0.88793607  1
  W6+  W81  1  0.15288707  0.61695098  0.64272487  1
  W6+  W82  1  0.62930253  0.12940042  0.62745185  1
  O2-  O83  1  0.15451336  0.00096152  0.11361345  1
  O2-  O84  1  0.08803223  -0.01184423  0.38638775  1
  O2-  O85  1  0.09010203  -0.00343826  0.62442162  1
  O2-  O86  1  0.20008019  0.03498696  0.87591268  1
  O2-  O87  1  0.12275808  0.49045317  0.13902135  1
  O2-  O88  1  0.07428050  0.49051566  0.37531850  1
  O2-  O89  1  0.16854229  0.48693527  0.62355550  1
  O2-  O90  1  0.19377386  0.48571679  0.87247765  1
  O2-  O91  1  0.31241880  -0.02990036  0.12452679  1
  O2-  O92  1  0.37283165  0.00108976  0.35853760  1
  O2-  O93  1  0.42559735  -0.01560232  0.61678207  1
  O2-  O94  1  0.42970459  -0.01767483  0.90367339  1
  O2-  O95  1  0.32730754  0.50900890  0.11400731  1
  O2-  O96  1  0.41843717  0.50661931  0.37645447  1
  O2-  O97  1  0.34814136  0.50279718  0.62487118  1
  O2-  O98  1  0.38771303  0.50745921  0.86172858  1
  O2-  O99  1  0.64390781  0.01765663  0.10716221  1
  O2-  O100  1  0.59257205  0.02150577  0.36061874  1
  O2-  O101  1  0.66439976  -0.00086786  0.61067621  1
  O2-  O102  1  0.64571274  0.01155958  0.88331937  1
  O2-  O103  1  0.68947557  0.49915400  0.12323692  1
  O2-  O104  1  0.61073912  0.48035068  0.39036118  1
  O2-  O105  1  0.60751682  0.50551760  0.60353134  1
  O2-  O106  1  0.63097696  0.50401771  0.86458414  1
  O2-  O107  1  0.82024133  0.02696039  0.11721755  1
  O2-  O108  1  0.90116579  0.01211675  0.38956463  1
  O2-  O109  1  0.87765943  -0.00414441  0.63632673  1
  O2-  O110  1  0.84543576  0.00311550  0.86754973  1
  O2-  O111  1  0.88060046  0.48035946  0.16809273  1
  O2-  O112  1  0.87802135  0.50643336  0.36701799  1
  O2-  O113  1  0.88836884  0.50298129  0.59206877  1
  O2-  O114  1  0.85325795  0.48402928  0.89150138  1
  O2-  O115  1  0.16761747  0.21810679  0.12842557  1
  O2-  O116  1  0.03426718  0.22772987  0.39610362  1
  O2-  O117  1  0.11909675  0.25173475  0.61482537  1
  O2-  O118  1  0.19369772  0.25443568  0.87725957  1
  O2-  O119  1  0.13836797  0.74604160  0.10429145  1
  O2-  O120  1  0.07191328  0.71889345  0.38215472  1
  O2-  O121  1  0.09853221  0.75429883  0.65926130  1
  O2-  O122  1  0.08429073  0.72905710  0.87863723  1
  O2-  O123  1  0.37559782  0.29298308  0.10648184  1
  O2-  O124  1  0.38025905  0.25436298  0.34667408  1
  O2-  O125  1  0.36887785  0.24309988  0.62541939  1
  O2-  O126  1  0.38819042  0.25441344  0.90457817  1
  O2-  O127  1  0.43189922  0.72907759  0.13086788  1
  O2-  O128  1  0.40782464  0.72741989  0.37630228  1
  O2-  O129  1  0.40594028  0.76248141  0.62351485  1
  O2-  O130  1  0.37668986  0.74580692  0.85243729  1
  O2-  O131  1  0.58561910  0.26745825  0.08891958  1
  O2-  O132  1  0.66416762  0.24777917  0.34802917  1
  O2-  O133  1  0.57278736  0.25155109  0.65640951  1
  O2-  O134  1  0.68376585  0.26528187  0.86893806  1
  O2-  O135  1  0.67297128  0.69562906  0.14953585  1
  O2-  O136  1  0.63201731  0.74598681  0.34736893  1
  O2-  O137  1  0.59707943  0.75279680  0.61981014  1
  O2-  O138  1  0.57398477  0.74493513  0.87202915  1
  O2-  O139  1  0.83916724  0.24407430  0.14077458  1
  O2-  O140  1  0.85377957  0.24959779  0.38481713  1
  O2-  O141  1  0.83826617  0.24908965  0.60228069  1
  O2-  O142  1  0.85045322  0.30801218  0.88544910  1
  O2-  O143  1  0.80015973  0.84015308  0.11173227  1
  O2-  O144  1  0.84088898  0.76437312  0.37740686  1
  O2-  O145  1  0.90567251  0.75003604  0.63012819  1
  O2-  O146  1  0.90779242  0.75538470  0.89830664  1
  O2-  O147  1  0.10569170  0.13269690  -0.01248761  1
  O2-  O148  1  0.09730659  0.11471976  0.24997638  1
  O2-  O149  1  0.15851498  0.12307676  0.49256852  1
  O2-  O150  1  0.15919995  0.12841411  0.73202836  1
  O2-  O151  1  0.07453423  0.61482457  0.00666987  1
  O2-  O152  1  0.14493104  0.62398514  0.25974895  1
  O2-  O153  1  0.08918221  0.61117631  0.51470296  1
  O2-  O154  1  0.08044433  0.60240538  0.76952412  1
  O2-  O155  1  0.32383576  0.11470599  0.01465757  1
  O2-  O156  1  0.38744511  0.12693915  0.22323574  1
  O2-  O157  1  0.38893729  0.12905742  0.49076193  1
  O2-  O158  1  0.37661968  0.11921563  0.76824698  1
  O2-  O159  1  0.37508241  0.63268923  -0.00935535  1
  O2-  O160  1  0.35181702  0.62437173  0.25328384  1
  O2-  O161  1  0.41541271  0.62666694  0.51028176  1
  O2-  O162  1  0.42605813  0.62976191  0.73860484  1
  O2-  O163  1  0.68998047  0.15121603  -0.00645041  1
  O2-  O164  1  0.58071859  0.14513980  0.22030642  1
  O2-  O165  1  0.59560078  0.15154114  0.49351590  1
  O2-  O166  1  0.69867658  0.14070082  0.75350255  1
  O2-  O167  1  0.59767727  0.62469162  0.00267752  1
  O2-  O168  1  0.56297378  0.60774245  0.25721114  1
  O2-  O169  1  0.60192317  0.64427264  0.49390482  1
  O2-  O170  1  0.60259872  0.63695166  0.74310903  1
  O2-  O171  1  0.89580713  0.14234678  -0.01599365  1
  O2-  O172  1  0.91244306  0.13659038  0.25745989  1
  O2-  O173  1  0.83779656  0.11781121  0.49746169  1
  O2-  O174  1  0.87642866  0.14874169  0.76069278  1
  O2-  O175  1  0.83581880  0.63506840  0.03555139  1
  O2-  O176  1  0.83451609  0.65514905  0.24398591  1
  O2-  O177  1  0.89984166  0.64238416  0.49827333  1
  O2-  O178  1  0.89781786  0.62440712  0.74901592  1
  O2-  O179  1  0.13924379  0.35332902  0.00561188  1
  O2-  O180  1  0.13945656  0.34197664  0.28623861  1
  O2-  O181  1  0.14934630  0.36180433  0.48250876  1
  O2-  O182  1  0.13498253  0.36008937  0.74804693  1
  O2-  O183  1  0.10305055  0.88252864  -0.00637363  1
  O2-  O184  1  0.09998079  0.86786771  0.23147005  1
  O2-  O185  1  0.12495976  0.84621939  0.51309859  1
  O2-  O186  1  0.10802718  0.88667648  0.76820016  1
  O2-  O187  1  0.31379598  0.39283068  -0.01479281  1
  O2-  O188  1  0.41847192  0.39570808  0.22998717  1
  O2-  O189  1  0.38309680  0.36626947  0.49356275  1
  O2-  O190  1  0.35430456  0.36100336  0.76494350  1
  O2-  O191  1  0.37251614  0.83366304  -0.00263108  1
  O2-  O192  1  0.37891447  0.83880536  0.24880738  1
  O2-  O193  1  0.37613209  0.85988965  0.49509848  1
  O2-  O194  1  0.39548485  0.87990418  0.75116452  1
  O2-  O195  1  0.67297044  0.38462645  -0.01234204  1
  O2-  O196  1  0.60191889  0.36908648  0.23339543  1
  O2-  O197  1  0.60843159  0.34234372  0.50543750  1
  O2-  O198  1  0.67616562  0.38048765  0.73871287  1
  O2-  O199  1  0.60804823  0.83263568  0.02402464  1
  O2-  O200  1  0.61177784  0.87335628  0.23100714  1
  O2-  O201  1  0.61547779  0.86655539  0.49413773  1
  O2-  O202  1  0.58904659  0.88518957  0.73849256  1
  O2-  O203  1  0.90781865  0.36964338  0.04462855  1
  O2-  O204  1  0.97165056  0.36063763  0.28992123  1
  O2-  O205  1  0.78905844  0.37758797  0.48822107  1
  O2-  O206  1  0.90239510  0.36139486  0.70073894  1
  O2-  O207  1  0.92008014  0.89524254  -0.00012891  1
  O2-  O208  1  0.88860061  0.89596481  0.25321562  1
  O2-  O209  1  0.94242051  0.86789474  0.50240486  1
  O2-  O210  1  0.90651053  0.86765539  0.76243405  1
  O2-  O211  1  0.02453449  0.16743957  -0.17271856  1
  O2-  O212  1  -0.01533425  0.03820129  0.11694201  1
  O2-  O213  1  -0.00611019  0.14459444  0.62368610  1
  O2-  O214  1  0.01971238  0.00993314  0.87796781  1
  O2-  O215  1  0.03793016  0.47628059  -0.09361491  1
  O2-  O216  1  -0.00540113  0.63761787  0.15561960  1
  O2-  O217  1  -0.03718040  0.36899240  0.47475957  1
  O2-  O218  1  0.01632262  0.32635973  0.86698413  1
  O2-  O219  1  0.24037990  -0.12713265  -0.11966634  1
  O2-  O220  1  0.24210263  -0.13641894  0.36696427  1
  O2-  O221  1  0.25251596  -0.04249519  0.58824881  1
  O2-  O222  1  0.25079259  -0.17028064  0.67891500  1
  O2-  O223  1  0.22931533  0.64305664  -0.09779591  1
  O2-  O224  1  0.24318594  0.58828849  0.40534809  1
  O2-  O225  1  0.25698154  0.66680223  0.57085889  1
  O2-  O226  1  0.26728827  0.63100401  0.73982611  1
  O2-  O227  1  0.48943085  0.12344054  0.03943845  1
  O2-  O228  1  0.47236369  -0.01733813  0.18174824  1
  O2-  O229  1  0.49628574  -0.13658971  0.37127932  1
  O2-  O230  1  0.53582948  0.15744509  0.84983254  1
  O2-  O231  1  0.47932011  0.39937504  -0.00891039  1
  O2-  O232  1  0.52133402  0.48948106  0.11974573  1
  O2-  O233  1  0.48248315  0.38763118  0.64327227  1
  O2-  O234  1  0.51750298  0.35777847  0.83387494  1
  O2-  O235  1  0.75015774  -0.15049373  -0.09763178  1
  O2-  O236  1  0.74047278  -0.10245337  0.35091986  1
  O2-  O237  1  0.79004137  -0.11428671  0.51295257  1
  O2-  O238  1  0.75647354  -0.15216419  0.67134827  1
  O2-  O239  1  0.73843908  0.66222588  -0.11597373  1
  O2-  O240  1  0.74178419  0.61637394  0.39060102  1
  O2-  O241  1  0.75284610  0.67951044  0.58060288  1
  O2-  O242  1  0.74835239  0.56264078  0.68300154  1
