# generated using pymatgen
data_Gd19Ta56(WO20)8
_symmetry_space_group_name_H-M   'P 1'
_cell_length_a   15.57179003
_cell_length_b   15.44996676
_cell_length_c   15.20435324
_cell_angle_alpha   90.04715480
_cell_angle_beta   89.82252666
_cell_angle_gamma   90.02235894
_symmetry_Int_Tables_number   1
_chemical_formula_structural   Gd19Ta56(WO20)8
_chemical_formula_sum   'Gd19 Ta56 W8 O160'
_cell_volume   3657.89955933
_cell_formula_units_Z   1
loop_
 _symmetry_equiv_pos_site_id
 _symmetry_equiv_pos_as_xyz
  1  'x, y, z'
loop_
 _atom_type_symbol
 _atom_type_oxidation_number
  Gd3+  3.0
  Ta5+  5.0
  W6+  6.0
  O2-  -2.0
loop_
 _atom_site_type_symbol
 _atom_site_label
 _atom_site_symmetry_multiplicity
 _atom_site_fract_x
 _atom_site_fract_y
 _atom_site_fract_z
 _atom_site_occupancy
  Gd3+  Gd0  1  0.50438177  0.75839225  0.73594861  1
  Gd3+  Gd1  1  0.02057813  0.74434890  0.74365110  1
  Gd3+  Gd2  1  0.74757355  0.74384383  0.74229827  1
  Gd3+  Gd3  1  0.75788944  0.74049292  0.00700202  1
  Gd3+  Gd4  1  0.28809808  0.72293174  0.70304845  1
  Gd3+  Gd5  1  0.00662926  0.23120021  0.01555487  1
  Gd3+  Gd6  1  0.75722163  0.74746207  0.27785710  1
  Gd3+  Gd7  1  0.75599645  0.26083553  0.73465747  1
  Gd3+  Gd8  1  0.51099669  0.75770340  0.00215917  1
  Gd3+  Gd9  1  0.01801370  0.27005768  0.25762117  1
  Gd3+  Gd10  1  0.24013092  0.74276246  0.48639124  1
  Gd3+  Gd11  1  0.76614748  0.25533075  -0.00539057  1
  Gd3+  Gd12  1  0.25256907  0.23836567  -0.01452786  1
  Gd3+  Gd13  1  0.48928653  0.75043292  0.50013276  1
  Gd3+  Gd14  1  0.23447975  0.24258641  0.73625916  1
  Gd3+  Gd15  1  0.26153199  0.26611386  0.25058730  1
  Gd3+  Gd16  1  0.01100912  0.74915501  -0.01610830  1
  Gd3+  Gd17  1  0.23148492  0.24748374  0.49296037  1
  Gd3+  Gd18  1  0.23329973  0.74048482  0.23150451  1
  Ta5+  Ta19  1  0.60087529  0.35918689  0.88384896  1
  Ta5+  Ta20  1  0.11902892  0.61118947  0.61928703  1
  Ta5+  Ta21  1  0.16972131  0.86661905  0.87958680  1
  Ta5+  Ta22  1  0.13734812  0.88100965  0.62513099  1
  Ta5+  Ta23  1  0.85293077  0.60573361  0.87426829  1
  Ta5+  Ta24  1  0.87933338  0.88162071  0.13712234  1
  Ta5+  Ta25  1  0.88129236  0.62226814  0.62224724  1
  Ta5+  Ta26  1  0.08382433  0.12124366  0.61467373  1
  Ta5+  Ta27  1  0.37456536  0.11867167  0.11184874  1
  Ta5+  Ta28  1  0.39594050  0.12193555  0.84060317  1
  Ta5+  Ta29  1  0.92013010  0.36981573  0.85623831  1
  Ta5+  Ta30  1  0.87530759  0.11877609  0.14343120  1
  Ta5+  Ta31  1  0.91376591  0.37440861  0.63724192  1
  Ta5+  Ta32  1  0.63803741  0.88700631  0.61425296  1
  Ta5+  Ta33  1  0.07967621  0.36704473  0.62749300  1
  Ta5+  Ta34  1  0.92001390  0.12475920  0.65079449  1
  Ta5+  Ta35  1  0.39809344  0.36365278  0.87223167  1
  Ta5+  Ta36  1  0.64152660  0.60187050  0.87121434  1
  Ta5+  Ta37  1  0.32649878  0.87859900  0.08806457  1
  Ta5+  Ta38  1  0.62736466  0.60748431  0.11335833  1
  Ta5+  Ta39  1  0.12266474  0.11315603  0.14476710  1
  Ta5+  Ta40  1  0.08626589  0.63291265  0.36820609  1
  Ta5+  Ta41  1  0.10172102  0.61324747  0.11619825  1
  Ta5+  Ta42  1  0.55904510  0.36418684  0.10864380  1
  Ta5+  Ta43  1  0.12390604  0.10956722  0.86871585  1
  Ta5+  Ta44  1  0.37701708  0.62689114  0.34298041  1
  Ta5+  Ta45  1  0.36960794  0.11766455  0.62092995  1
  Ta5+  Ta46  1  0.13916795  0.38594959  0.11238570  1
  Ta5+  Ta47  1  0.61352479  0.88418592  0.36261336  1
  Ta5+  Ta48  1  0.37143274  0.88093483  0.34463105  1
  Ta5+  Ta49  1  0.62759624  0.12716693  0.87098366  1
  Ta5+  Ta50  1  0.35472705  0.59714816  0.87563913  1
  Ta5+  Ta51  1  0.56350488  0.37042514  0.36467398  1
  Ta5+  Ta52  1  0.12195430  0.87455844  0.11727754  1
  Ta5+  Ta53  1  0.65561401  0.88322773  0.87442915  1
  Ta5+  Ta54  1  0.37316082  0.11699086  0.36922309  1
  Ta5+  Ta55  1  0.87524219  0.61982773  0.13359620  1
  Ta5+  Ta56  1  0.89146908  0.37774536  0.12985910  1
  Ta5+  Ta57  1  0.36990617  0.37949091  0.63201007  1
  Ta5+  Ta58  1  0.89028354  0.87844045  0.61153398  1
  Ta5+  Ta59  1  0.93208439  0.87280024  0.37126529  1
  Ta5+  Ta60  1  0.88552743  0.12515230  0.86191466  1
  Ta5+  Ta61  1  0.60771636  0.12707913  0.39107414  1
  Ta5+  Ta62  1  0.08738569  0.36174354  0.85485096  1
  Ta5+  Ta63  1  0.86347214  0.88040274  0.88472947  1
  Ta5+  Ta64  1  0.13795177  0.10740584  0.35832018  1
  Ta5+  Ta65  1  0.56813943  0.12707141  0.63496302  1
  Ta5+  Ta66  1  0.37610343  0.88319814  0.86975014  1
  Ta5+  Ta67  1  0.59223881  0.38084984  0.62156243  1
  Ta5+  Ta68  1  0.09816514  0.86421681  0.36923219  1
  Ta5+  Ta69  1  0.39294613  0.37644441  0.37126829  1
  Ta5+  Ta70  1  0.59449434  0.61823797  0.36148265  1
  Ta5+  Ta71  1  0.13544727  0.39261045  0.37821729  1
  Ta5+  Ta72  1  0.63729509  0.13594436  0.13588603  1
  Ta5+  Ta73  1  0.91962321  0.62986955  0.37817740  1
  Ta5+  Ta74  1  0.90232259  0.38086863  0.39268093  1
  W6+  W75  1  0.62345447  0.61636557  0.61507260  1
  W6+  W76  1  0.33540555  0.61758916  0.08686782  1
  W6+  W77  1  0.32542479  0.52807132  0.51138576  1
  W6+  W78  1  0.14831572  0.60173907  0.87671587  1
  W6+  W79  1  0.38650661  0.91260395  0.60844954  1
  W6+  W80  1  0.62252583  0.88652034  0.11682128  1
  W6+  W81  1  0.92324792  0.12293862  0.40076505  1
  W6+  W82  1  0.39385841  0.37657048  0.10823353  1
  O2-  O83  1  0.14784084  -0.00419197  0.12148498  1
  O2-  O84  1  0.12460577  -0.01158133  0.36869870  1
  O2-  O85  1  0.12611888  0.00058093  0.60641180  1
  O2-  O86  1  0.16748496  -0.00226210  0.87598983  1
  O2-  O87  1  0.16444909  0.50586068  0.10539102  1
  O2-  O88  1  0.10300452  0.50757206  0.37891877  1
  O2-  O89  1  0.09973226  0.49229598  0.61057905  1
  O2-  O90  1  0.11656170  0.47521675  0.87624691  1
  O2-  O91  1  0.33169470  0.00718786  0.11005158  1
  O2-  O92  1  0.33576615  -0.00247603  0.35895713  1
  O2-  O93  1  0.46450024  0.04506032  0.58874351  1
  O2-  O94  1  0.38141246  0.00689277  0.87834690  1
  O2-  O95  1  0.39476062  0.50424705  0.09188506  1
  O2-  O96  1  0.38288598  0.50706615  0.36907534  1
  O2-  O97  1  0.29581440  0.47284677  0.62950556  1
  O2-  O98  1  0.40957135  0.48769469  0.86250259  1
  O2-  O99  1  0.60760038  0.02200616  0.11696321  1
  O2-  O100  1  0.64806548  0.00117365  0.37752925  1
  O2-  O101  1  0.61992682  0.00214406  0.64071912  1
  O2-  O102  1  0.64049148  0.00613291  0.85437427  1
  O2-  O103  1  0.59573799  0.49136497  0.11146385  1
  O2-  O104  1  0.58199148  0.50013014  0.35188711  1
  O2-  O105  1  0.65193676  0.48518894  0.62127297  1
  O2-  O106  1  0.61459080  0.48173554  0.86849025  1
  O2-  O107  1  0.84386992  -0.00126082  0.11411571  1
  O2-  O108  1  0.93144918  -0.00722764  0.38957802  1
  O2-  O109  1  0.89094753  -0.00368051  0.63892786  1
  O2-  O110  1  0.89080583  -0.00140375  0.88540479  1
  O2-  O111  1  0.88794169  0.50093351  0.11285981  1
  O2-  O112  1  0.91874903  0.49940405  0.38933990  1
  O2-  O113  1  0.89328120  0.50498724  0.62725546  1
  O2-  O114  1  0.89406969  0.49295491  0.88803768  1
  O2-  O115  1  0.12525145  0.24655049  0.14214146  1
  O2-  O116  1  0.14448639  0.24994111  0.35294147  1
  O2-  O117  1  0.13770132  0.24033317  0.61556680  1
  O2-  O118  1  0.15715635  0.23925145  0.86243982  1
  O2-  O119  1  0.13005651  0.74506006  0.09937471  1
  O2-  O120  1  0.15734192  0.74570916  0.36365292  1
  O2-  O121  1  0.14603255  0.74571937  0.65031933  1
  O2-  O122  1  0.12414825  0.74502234  0.87729966  1
  O2-  O123  1  0.32714728  0.24103427  0.11896391  1
  O2-  O124  1  0.35508703  0.24368065  0.38147596  1
  O2-  O125  1  0.34087969  0.25145831  0.61658806  1
  O2-  O126  1  0.34209776  0.23482436  0.85744644  1
  O2-  O127  1  0.31072075  0.75350545  0.09373457  1
  O2-  O128  1  0.32637006  0.75738951  0.35099113  1
  O2-  O129  1  0.40909651  0.77139360  0.62269304  1
  O2-  O130  1  0.47477845  0.80921737  0.87015828  1
  O2-  O131  1  0.56580070  0.23065060  0.10358600  1
  O2-  O132  1  0.59207582  0.24896730  0.37995307  1
  O2-  O133  1  0.55758749  0.24817637  0.61896272  1
  O2-  O134  1  0.67874624  0.25326353  0.86920527  1
  O2-  O135  1  0.63200581  0.74575574  0.09521961  1
  O2-  O136  1  0.64457001  0.75879641  0.38003984  1
  O2-  O137  1  0.59634944  0.75693574  0.61139760  1
  O2-  O138  1  0.65354728  0.74914104  0.88402035  1
  O2-  O139  1  0.91621524  0.24666744  0.14213291  1
  O2-  O140  1  0.94507990  0.25717098  0.38481468  1
  O2-  O141  1  0.89739733  0.24705664  0.65477874  1
  O2-  O142  1  0.85593726  0.25357847  0.85628314  1
  O2-  O143  1  0.82775827  0.76005801  0.14259031  1
  O2-  O144  1  0.87961272  0.75111958  0.35668044  1
  O2-  O145  1  0.87644736  0.76895382  0.67483909  1
  O2-  O146  1  0.82832259  0.74244499  0.87049254  1
  O2-  O147  1  0.13778221  0.13761500  0.00487510  1
  O2-  O148  1  0.05305187  0.12651851  0.26117428  1
  O2-  O149  1  0.14329344  0.13163727  0.48296447  1
  O2-  O150  1  0.11835613  0.12036994  0.74100435  1
  O2-  O151  1  0.07275274  0.61299397  -0.01085267  1
  O2-  O152  1  0.12793453  0.62940387  0.24120765  1
  O2-  O153  1  0.11587018  0.64889042  0.49226504  1
  O2-  O154  1  0.09805272  0.61295223  0.74794377  1
  O2-  O155  1  0.36870630  0.13671241  -0.01275403  1
  O2-  O156  1  0.39053261  0.13116427  0.24346327  1
  O2-  O157  1  0.32884545  0.12185381  0.49968029  1
  O2-  O158  1  0.30889162  0.10605995  0.73939433  1
  O2-  O159  1  0.40735877  0.65851278  -0.02935995  1
  O2-  O160  1  0.32658840  0.62087266  0.22769763  1
  O2-  O161  1  0.37266362  0.65179878  0.47511496  1
  O2-  O162  1  0.40528321  0.66438313  0.78409037  1
  O2-  O163  1  0.67111432  0.13381055  -0.01225795  1
  O2-  O164  1  0.63100166  0.13328976  0.25864463  1
  O2-  O165  1  0.62300587  0.12512568  0.51608344  1
  O2-  O166  1  0.64060240  0.14747426  0.73934563  1
  O2-  O167  1  0.58243344  0.62203916  -0.01335563  1
  O2-  O168  1  0.63432046  0.63850858  0.23833023  1
  O2-  O169  1  0.58297561  0.62644310  0.48674597  1
  O2-  O170  1  0.59564559  0.64074958  0.75891785  1
  O2-  O171  1  0.87119743  0.15028197  -0.00447622  1
  O2-  O172  1  0.87586872  0.11839036  0.26420954  1
  O2-  O173  1  0.97330210  0.12922928  0.53085234  1
  O2-  O174  1  0.82356888  0.11704049  0.75375812  1
  O2-  O175  1  0.88973042  0.65127076  -0.00371718  1
  O2-  O176  1  0.85386169  0.61860880  0.25752455  1
  O2-  O177  1  0.88421487  0.63997024  0.49805673  1
  O2-  O178  1  0.91063482  0.63068503  0.76354979  1
  O2-  O179  1  0.12342986  0.33907976  -0.00935653  1
  O2-  O180  1  0.14974929  0.38511873  0.24351615  1
  O2-  O181  1  0.11414492  0.35565866  0.49897432  1
  O2-  O182  1  0.14950999  0.35926496  0.73669431  1
  O2-  O183  1  0.09427147  0.87617945  -0.01582499  1
  O2-  O184  1  0.13427720  0.85740902  0.24271992  1
  O2-  O185  1  0.12683689  0.84946186  0.50009222  1
  O2-  O186  1  0.13351340  0.88072378  0.75978755  1
  O2-  O187  1  0.32826833  0.36347840  -0.02475193  1
  O2-  O188  1  0.37860065  0.36221877  0.24425790  1
  O2-  O189  1  0.38317255  0.39015098  0.50451562  1
  O2-  O190  1  0.33806258  0.36348357  0.75974317  1
  O2-  O191  1  0.41906981  0.87854968  0.00789081  1
  O2-  O192  1  0.34189359  0.87135375  0.22021532  1
  O2-  O193  1  0.38618000  0.86313615  0.47314680  1
  O2-  O194  1  0.40753559  0.89914863  0.74710436  1
  O2-  O195  1  0.65521254  0.35457726  0.00251084  1
  O2-  O196  1  0.56823808  0.36011991  0.23046667  1
  O2-  O197  1  0.57751347  0.38052758  0.49675919  1
  O2-  O198  1  0.64128619  0.35415597  0.74167065  1
  O2-  O199  1  0.58962080  0.88563774  -0.02015690  1
  O2-  O200  1  0.66637546  0.86835313  0.24946743  1
  O2-  O201  1  0.58704877  0.88092195  0.49674357  1
  O2-  O202  1  0.62169794  0.85455262  0.74515160  1
  O2-  O203  1  0.89183571  0.34516888  -0.00219888  1
  O2-  O204  1  0.88856251  0.37490185  0.25868169  1
  O2-  O205  1  0.88177017  0.36573962  0.51622777  1
  O2-  O206  1  0.83513860  0.38279832  0.74759144  1
  O2-  O207  1  0.89270014  0.84111358  0.00940262  1
  O2-  O208  1  0.85500594  0.88411588  0.25908732  1
  O2-  O209  1  0.90971495  0.85063890  0.49652557  1
  O2-  O210  1  0.97153718  0.83306010  0.85293025  1
  O2-  O211  1  -0.00251918  0.10547652  0.10595393  1
  O2-  O212  1  -0.00242593  -0.11867015  0.14020022  1
  O2-  O213  1  0.01092106  -0.13671299  0.64382202  1
  O2-  O214  1  0.00553170  0.14576052  0.88535419  1
  O2-  O215  1  0.01621595  0.38187678  0.12516360  1
  O2-  O216  1  -0.01262619  0.67011317  0.13960736  1
  O2-  O217  1  0.00162338  0.66100051  0.61648680  1
  O2-  O218  1  -0.00201231  0.39964734  0.74878004  1
  O2-  O219  1  0.26862503  -0.11125175  -0.03723628  1
  O2-  O220  1  0.20965081  0.12269734  0.24243978  1
  O2-  O221  1  0.26234251  -0.14285053  0.61757132  1
  O2-  O222  1  0.28020331  -0.18710500  0.82523683  1
  O2-  O223  1  0.26020971  0.59682216  -0.03667355  1
  O2-  O224  1  0.25708068  0.37809986  0.38235188  1
  O2-  O225  1  0.24732389  0.62700243  0.58943135  1
  O2-  O226  1  0.25554353  0.60804168  0.79690635  1
  O2-  O227  1  0.51116429  0.13941202  -0.11095274  1
  O2-  O228  1  0.49608670  -0.11380697  0.33074103  1
  O2-  O229  1  0.49062797  0.09724490  0.39282220  1
  O2-  O230  1  0.46401409  0.13398245  0.72639813  1
  O2-  O231  1  0.50018262  0.37219700  -0.02758704  1
  O2-  O232  1  0.48797807  0.68638550  0.34205159  1
  O2-  O233  1  0.48147884  0.42029689  0.65976682  1
  O2-  O234  1  0.50112720  0.31057829  0.82452374  1
  O2-  O235  1  0.75061216  -0.11411399  -0.04083429  1
  O2-  O236  1  0.75756937  0.17242058  0.13002096  1
  O2-  O237  1  0.75585177  -0.12659611  0.60292706  1
  O2-  O238  1  0.77368830  -0.11378290  0.79534068  1
  O2-  O239  1  0.74208284  0.59991958  -0.04958520  1
  O2-  O240  1  0.74741827  0.61059855  0.11423067  1
  O2-  O241  1  0.76017350  0.65155797  0.62441762  1
  O2-  O242  1  0.74951720  0.59998965  0.79529570  1
