# generated using pymatgen
data_Gd19Ta56(WO20)8
_symmetry_space_group_name_H-M   'P 1'
_cell_length_a   15.71573502
_cell_length_b   15.37992261
_cell_length_c   15.04567163
_cell_angle_alpha   89.33310737
_cell_angle_beta   90.14271581
_cell_angle_gamma   89.82629205
_symmetry_Int_Tables_number   1
_chemical_formula_structural   Gd19Ta56(WO20)8
_chemical_formula_sum   'Gd19 Ta56 W8 O160'
_cell_volume   3636.36631450
_cell_formula_units_Z   1
loop_
 _symmetry_equiv_pos_site_id
 _symmetry_equiv_pos_as_xyz
  1  'x, y, z'
loop_
 _atom_type_symbol
 _atom_type_oxidation_number
  Gd3+  3.0
  Ta5+  5.0
  W6+  6.0
  O2-  -2.0
loop_
 _atom_site_type_symbol
 _atom_site_label
 _atom_site_symmetry_multiplicity
 _atom_site_fract_x
 _atom_site_fract_y
 _atom_site_fract_z
 _atom_site_occupancy
  Gd3+  Gd0  1  0.51322356  0.25359210  0.72939063  1
  Gd3+  Gd1  1  0.78784807  0.26176205  0.25365297  1
  Gd3+  Gd2  1  0.21540111  0.73517955  0.51830796  1
  Gd3+  Gd3  1  0.26435210  0.22177972  0.00045865  1
  Gd3+  Gd4  1  0.52101889  0.77524395  0.21941023  1
  Gd3+  Gd5  1  0.47011140  0.24651755  0.49634470  1
  Gd3+  Gd6  1  0.76231797  0.25871433  0.73419573  1
  Gd3+  Gd7  1  0.48954867  0.74754365  0.77405457  1
  Gd3+  Gd8  1  0.48097952  0.80686513  0.48854807  1
  Gd3+  Gd9  1  0.47463951  0.26541426  0.05837179  1
  Gd3+  Gd10  1  0.76469757  0.76527214  -0.03210275  1
  Gd3+  Gd11  1  0.56594508  0.23307633  0.28628557  1
  Gd3+  Gd12  1  -0.02909872  0.74334045  0.23232584  1
  Gd3+  Gd13  1  -0.01410298  0.25590731  0.47774309  1
  Gd3+  Gd14  1  0.20680965  0.76544933  0.75221299  1
  Gd3+  Gd15  1  0.79090465  0.26938273  -0.00882059  1
  Gd3+  Gd16  1  0.26316090  0.76459100  0.25590520  1
  Gd3+  Gd17  1  0.76287714  0.28075653  0.48116200  1
  Gd3+  Gd18  1  0.25719782  0.23671729  0.24723835  1
  Ta5+  Ta19  1  0.61453724  0.64017030  0.36368724  1
  Ta5+  Ta20  1  0.68504393  0.06510533  0.38750701  1
  Ta5+  Ta21  1  0.39207250  0.37273914  0.87669941  1
  Ta5+  Ta22  1  0.36272474  0.59325399  0.64058995  1
  Ta5+  Ta23  1  0.30888806  0.91071236  0.42542810  1
  Ta5+  Ta24  1  0.12871771  0.61239230  0.88132951  1
  Ta5+  Ta25  1  0.58727187  0.63405685  0.61665998  1
  Ta5+  Ta26  1  0.86699375  0.87639441  0.38097368  1
  Ta5+  Ta27  1  0.11243016  0.10986279  0.11829154  1
  Ta5+  Ta28  1  0.65887430  0.12313011  0.87290948  1
  Ta5+  Ta29  1  0.11124344  0.87743565  0.11217789  1
  Ta5+  Ta30  1  0.91828737  0.40231545  0.14242565  1
  Ta5+  Ta31  1  0.91645092  0.10263475  0.11299436  1
  Ta5+  Ta32  1  0.29640782  0.42564621  0.43241958  1
  Ta5+  Ta33  1  0.40425673  0.07021234  0.13860506  1
  Ta5+  Ta34  1  0.14641412  0.14373587  0.60731674  1
  Ta5+  Ta35  1  0.84372513  0.64994055  0.61865899  1
  Ta5+  Ta36  1  0.65074954  0.88329468  0.84077614  1
  Ta5+  Ta37  1  0.38874525  0.10316046  0.63261153  1
  Ta5+  Ta38  1  0.81862142  0.63138950  0.12247643  1
  Ta5+  Ta39  1  0.92912673  0.86727420  0.87358809  1
  Ta5+  Ta40  1  0.42657983  0.38899227  0.24687097  1
  Ta5+  Ta41  1  0.09888026  0.87152436  0.36458229  1
  Ta5+  Ta42  1  0.63357004  0.40220053  0.11121698  1
  Ta5+  Ta43  1  0.64710161  0.12447289  0.58500920  1
  Ta5+  Ta44  1  0.39995079  0.61591165  0.13094354  1
  Ta5+  Ta45  1  0.09002751  0.89553051  0.61671973  1
  Ta5+  Ta46  1  0.11929103  0.13043073  0.85959913  1
  Ta5+  Ta47  1  0.35107660  0.83746148  0.07721019  1
  Ta5+  Ta48  1  0.16932847  0.36914126  0.84488325  1
  Ta5+  Ta49  1  0.64162316  0.39413624  0.61591112  1
  Ta5+  Ta50  1  0.92521475  0.87054120  0.62828809  1
  Ta5+  Ta51  1  0.63956768  0.43538051  0.35701709  1
  Ta5+  Ta52  1  0.41022160  0.05609081  0.38725002  1
  Ta5+  Ta53  1  0.09789660  0.38218248  0.33393166  1
  Ta5+  Ta54  1  0.90261321  0.11904606  0.85771672  1
  Ta5+  Ta55  1  0.34139346  0.87630305  0.87206206  1
  Ta5+  Ta56  1  0.87424419  0.11529449  0.61006985  1
  Ta5+  Ta57  1  0.08672236  0.12272882  0.35678240  1
  Ta5+  Ta58  1  0.37217458  0.63972234  0.38472335  1
  Ta5+  Ta59  1  0.36601516  0.62016989  0.89267218  1
  Ta5+  Ta60  1  0.93074794  0.39004634  0.86969622  1
  Ta5+  Ta61  1  0.13777454  0.59903667  0.36369784  1
  Ta5+  Ta62  1  0.14672376  0.37981743  0.10165992  1
  Ta5+  Ta63  1  0.65078990  0.12497781  0.12664188  1
  Ta5+  Ta64  1  0.42577928  0.10623549  0.88170072  1
  Ta5+  Ta65  1  0.92710692  0.45813152  0.35898435  1
  Ta5+  Ta66  1  0.77993147  0.65366993  0.37180796  1
  Ta5+  Ta67  1  0.82992643  0.87689249  0.12185456  1
  Ta5+  Ta68  1  0.65070177  0.64188434  0.10340716  1
  Ta5+  Ta69  1  0.89967483  0.40821813  0.61301926  1
  Ta5+  Ta70  1  0.85852723  0.62267816  0.86392386  1
  Ta5+  Ta71  1  0.12190730  0.36313090  0.59313037  1
  Ta5+  Ta72  1  0.29370090  0.93993165  0.61698259  1
  Ta5+  Ta73  1  0.62367676  0.38485950  0.88794367  1
  Ta5+  Ta74  1  0.92081227  0.10907984  0.35737131  1
  W6+  W75  1  0.60335735  0.87984141  0.63945866  1
  W6+  W76  1  0.09661021  0.61536796  0.11499823  1
  W6+  W77  1  0.08775172  0.87677081  0.87504854  1
  W6+  W78  1  0.08071716  0.60685478  0.62638600  1
  W6+  W79  1  0.30662195  0.34528421  0.63262801  1
  W6+  W80  1  0.66638115  0.87408623  0.10963993  1
  W6+  W81  1  0.65674859  0.86481579  0.37649710  1
  W6+  W82  1  0.69658101  0.62704377  0.84290028  1
  O2-  O83  1  0.16077502  -0.00956650  0.12615531  1
  O2-  O84  1  0.09006671  -0.00477673  0.36525749  1
  O2-  O85  1  0.09995208  0.02357104  0.60610568  1
  O2-  O86  1  0.10870321  0.01251872  0.86742420  1
  O2-  O87  1  0.16307232  0.49870712  0.11058995  1
  O2-  O88  1  0.19508120  0.47454130  0.36609926  1
  O2-  O89  1  0.03680931  0.45273294  0.60169919  1
  O2-  O90  1  0.17104755  0.48893375  0.85964928  1
  O2-  O91  1  0.37186494  -0.03210339  0.08734671  1
  O2-  O92  1  0.44009089  -0.05919811  0.43094053  1
  O2-  O93  1  0.41360467  -0.01833216  0.62606467  1
  O2-  O94  1  0.36029399  0.00415949  0.89021341  1
  O2-  O95  1  0.40581218  0.49027737  0.18004025  1
  O2-  O96  1  0.37588271  0.50891059  0.39763790  1
  O2-  O97  1  0.34490410  0.47797599  0.65877027  1
  O2-  O98  1  0.37977249  0.49229544  0.89013100  1
  O2-  O99  1  0.66415642  0.00856201  0.13154831  1
  O2-  O100  1  0.59243233  -0.00718641  0.37040072  1
  O2-  O101  1  0.63650426  0.01088384  0.61996861  1
  O2-  O102  1  0.68090829  0.00875826  0.83778723  1
  O2-  O103  1  0.60726424  0.51884641  0.09823711  1
  O2-  O104  1  0.55566547  0.52151415  0.36755930  1
  O2-  O105  1  0.63517926  0.51492614  0.63076622  1
  O2-  O106  1  0.66771930  0.49123963  0.86086334  1
  O2-  O107  1  0.84771234  -0.00106037  0.12445479  1
  O2-  O108  1  0.91226019  -0.01187672  0.35189606  1
  O2-  O109  1  0.89098793  -0.00271240  0.62642797  1
  O2-  O110  1  0.91629793  0.00199194  0.86829664  1
  O2-  O111  1  0.86447851  0.50922238  0.13229832  1
  O2-  O112  1  0.87640708  0.56097935  0.38195600  1
  O2-  O113  1  0.88192105  0.52895266  0.61387301  1
  O2-  O114  1  0.90760697  0.50790099  0.84252055  1
  O2-  O115  1  0.18102215  0.24779107  0.11655876  1
  O2-  O116  1  0.06124886  0.25961285  0.32873336  1
  O2-  O117  1  0.05758522  0.25198380  0.60862879  1
  O2-  O118  1  0.19516302  0.23540402  0.86914147  1
  O2-  O119  1  0.07188703  0.74431194  0.12305625  1
  O2-  O120  1  0.14607118  0.73995574  0.36477875  1
  O2-  O121  1  0.11759219  0.74681835  0.62882599  1
  O2-  O122  1  0.12673845  0.73970691  0.87809718  1
  O2-  O123  1  0.38044739  0.29307485  0.17817746  1
  O2-  O124  1  0.45652738  0.17743532  0.35861787  1
  O2-  O125  1  0.38931818  0.23521531  0.65187087  1
  O2-  O126  1  0.42037338  0.23520456  0.86321005  1
  O2-  O127  1  0.32069030  0.70426675  0.10580280  1
  O2-  O128  1  0.35374151  0.77175471  0.38515919  1
  O2-  O129  1  0.27205840  0.67384576  0.66141103  1
  O2-  O130  1  0.34766135  0.74761562  0.84658123  1
  O2-  O131  1  0.66734786  0.25749943  0.14426803  1
  O2-  O132  1  0.68015524  0.29847398  0.35314911  1
  O2-  O133  1  0.67401741  0.25731366  0.59774589  1
  O2-  O134  1  0.66924171  0.26605742  0.89130993  1
  O2-  O135  1  0.59765297  0.75547007  0.09230741  1
  O2-  O136  1  0.55763832  0.76116156  0.36649894  1
  O2-  O137  1  0.52192573  0.75590650  0.62738093  1
  O2-  O138  1  0.70790167  0.77334172  0.82666900  1
  O2-  O139  1  0.85116404  0.30022928  0.12564887  1
  O2-  O140  1  0.86032058  0.22738532  0.38153933  1
  O2-  O141  1  0.87454831  0.25633668  0.58560855  1
  O2-  O142  1  0.85068812  0.29436803  0.85542858  1
  O2-  O143  1  0.87250159  0.74797005  0.10740110  1
  O2-  O144  1  0.77270521  0.78259607  0.37873128  1
  O2-  O145  1  0.92350626  0.73659794  0.62583223  1
  O2-  O146  1  0.90174911  0.73986299  0.87458551  1
  O2-  O147  1  0.15417006  0.12517819  -0.00247421  1
  O2-  O148  1  0.14962031  0.12869833  0.24025944  1
  O2-  O149  1  0.11134163  0.14966562  0.47964692  1
  O2-  O150  1  0.12436469  0.14538496  0.73448132  1
  O2-  O151  1  0.06366298  0.59349498  -0.01915152  1
  O2-  O152  1  0.07643464  0.62074906  0.25569008  1
  O2-  O153  1  0.13453368  0.61364534  0.49104437  1
  O2-  O154  1  0.08302965  0.61180059  0.76565936  1
  O2-  O155  1  0.30330969  0.13264933  0.14911383  1
  O2-  O156  1  0.41139357  0.03500130  0.25959771  1
  O2-  O157  1  0.38660705  0.12130564  0.50351793  1
  O2-  O158  1  0.43928725  0.10146299  0.75605759  1
  O2-  O159  1  0.42904925  0.61972836  0.00080097  1
  O2-  O160  1  0.41483054  0.65165386  0.25642892  1
  O2-  O161  1  0.33766043  0.63635448  0.51213635  1
  O2-  O162  1  0.41031368  0.61867041  0.76454191  1
  O2-  O163  1  0.68891737  0.13993526  0.00585462  1
  O2-  O164  1  0.67664168  0.12999811  0.27182978  1
  O2-  O165  1  0.60697671  0.14937351  0.45698826  1
  O2-  O166  1  0.62933684  0.16812839  0.75716166  1
  O2-  O167  1  0.66206486  0.64862132  -0.02555698  1
  O2-  O168  1  0.61050721  0.64899008  0.23281062  1
  O2-  O169  1  0.61642991  0.65443955  0.49754110  1
  O2-  O170  1  0.59661444  0.65522332  0.74393840  1
  O2-  O171  1  0.87961597  0.14326279  -0.00356955  1
  O2-  O172  1  0.87579378  0.13930804  0.22927722  1
  O2-  O173  1  0.93196146  0.11453945  0.49551662  1
  O2-  O174  1  0.91728781  0.14379368  0.73055717  1
  O2-  O175  1  0.84388172  0.61667379  -0.01275163  1
  O2-  O176  1  0.82317319  0.65873642  0.25039382  1
  O2-  O177  1  0.79367511  0.65772515  0.50819369  1
  O2-  O178  1  0.79848820  0.63069770  0.73763403  1
  O2-  O179  1  0.19229292  0.36053007  -0.01487135  1
  O2-  O180  1  0.17498676  0.36310179  0.23267238  1
  O2-  O181  1  0.09994669  0.35174667  0.46187305  1
  O2-  O182  1  0.15030052  0.36645353  0.71924398  1
  O2-  O183  1  0.04927098  0.87973349  0.00702527  1
  O2-  O184  1  0.06546523  0.86973210  0.23136168  1
  O2-  O185  1  0.11150704  0.86038986  0.49109649  1
  O2-  O186  1  0.11785573  0.88279123  0.74061402  1
  O2-  O187  1  0.36530663  0.33585525  -0.00564253  1
  O2-  O188  1  0.32919415  0.35909198  0.32345596  1
  O2-  O189  1  0.36229544  0.34144195  0.49848357  1
  O2-  O190  1  0.29720229  0.35807882  0.80148066  1
  O2-  O191  1  0.41775416  0.84036902  -0.02759538  1
  O2-  O192  1  0.38641444  0.83285276  0.20098303  1
  O2-  O193  1  0.33456525  0.83681988  0.54915753  1
  O2-  O194  1  0.30369569  0.89140377  0.74555124  1
  O2-  O195  1  0.54947887  0.37549312  -0.00406551  1
  O2-  O196  1  0.67498052  0.41881483  0.23152315  1
  O2-  O197  1  0.52970935  0.34875439  0.60579141  1
  O2-  O198  1  0.64965633  0.35544989  0.74403424  1
  O2-  O199  1  0.66552336  0.87869684  -0.03493083  1
  O2-  O200  1  0.64213872  0.85312144  0.24459394  1
  O2-  O201  1  0.61418414  0.85651833  0.50348648  1
  O2-  O202  1  0.54775739  0.88696454  0.77469660  1
  O2-  O203  1  0.89882506  0.39036748  -0.00910335  1
  O2-  O204  1  0.85779050  0.39186272  0.27038681  1
  O2-  O205  1  0.90635820  0.39388621  0.47306706  1
  O2-  O206  1  0.92555751  0.37706818  0.72885556  1
  O2-  O207  1  0.86437162  0.87583513  -0.01011569  1
  O2-  O208  1  0.86544514  0.85339744  0.24453281  1
  O2-  O209  1  0.87769618  0.86718365  0.50548919  1
  O2-  O210  1  0.89734047  0.86538142  0.75273048  1
  O2-  O211  1  0.01249107  0.02887499  0.09671551  1
  O2-  O212  1  0.01407250  0.18574568  0.12444762  1
  O2-  O213  1  -0.01956557  -0.18323785  0.36997157  1
  O2-  O214  1  0.00943117  0.17492750  0.88612475  1
  O2-  O215  1  0.02962258  0.37361824  0.09077973  1
  O2-  O216  1  0.00597523  0.42496268  0.24779379  1
  O2-  O217  1  0.04285237  0.49903302  0.38603702  1
  O2-  O218  1  0.04725164  0.35873425  0.87186475  1
  O2-  O219  1  0.22504453  -0.16599841  0.10795160  1
  O2-  O220  1  0.22358124  -0.11091463  0.32682594  1
  O2-  O221  1  0.24855936  -0.01479249  0.49883658  1
  O2-  O222  1  0.26600963  0.08154428  0.64387112  1
  O2-  O223  1  0.25075851  0.62428358  -0.08058528  1
  O2-  O224  1  0.25736862  0.62598020  0.33064516  1
  O2-  O225  1  0.22366292  0.42713972  0.54643228  1
  O2-  O226  1  0.21793987  0.24755008  0.59337872  1
  O2-  O227  1  0.39906126  0.14128118  0.01249063  1
  O2-  O228  1  0.52100394  0.14042011  0.14976767  1
  O2-  O229  1  0.52589794  0.15417399  0.60790858  1
  O2-  O230  1  0.54248869  0.09586511  0.91183703  1
  O2-  O231  1  0.52917600  0.34890498  0.16979881  1
  O2-  O232  1  0.51371620  0.36307355  0.34028035  1
  O2-  O233  1  0.47813990  0.58744469  0.59868610  1
  O2-  O234  1  0.50868777  0.37738351  0.82815558  1
  O2-  O235  1  0.78274515  0.14551186  -0.15093830  1
  O2-  O236  1  0.75570914  -0.04032497  0.38894269  1
  O2-  O237  1  0.75112869  0.11366443  0.49612562  1
  O2-  O238  1  0.76088056  0.12896136  0.65824901  1
  O2-  O239  1  0.70735799  0.38849287  0.00855637  1
  O2-  O240  1  0.71272143  0.53782076  0.36475711  1
  O2-  O241  1  0.66136104  0.40303226  0.48373897  1
  O2-  O242  1  0.77714315  0.38872923  0.62013656  1
