# generated using pymatgen
data_Gd19Ta56(WO20)8
_symmetry_space_group_name_H-M   'P 1'
_cell_length_a   15.46957495
_cell_length_b   15.44753764
_cell_length_c   15.25064421
_cell_angle_alpha   89.99384812
_cell_angle_beta   89.98724690
_cell_angle_gamma   89.87444883
_symmetry_Int_Tables_number   1
_chemical_formula_structural   Gd19Ta56(WO20)8
_chemical_formula_sum   'Gd19 Ta56 W8 O160'
_cell_volume   3644.38941328
_cell_formula_units_Z   1
loop_
 _symmetry_equiv_pos_site_id
 _symmetry_equiv_pos_as_xyz
  1  'x, y, z'
loop_
 _atom_type_symbol
 _atom_type_oxidation_number
  Gd3+  3.0
  Ta5+  5.0
  W6+  6.0
  O2-  -2.0
loop_
 _atom_site_type_symbol
 _atom_site_label
 _atom_site_symmetry_multiplicity
 _atom_site_fract_x
 _atom_site_fract_y
 _atom_site_fract_z
 _atom_site_occupancy
  Gd3+  Gd0  1  0.72388774  0.24766143  0.29101634  1
  Gd3+  Gd1  1  0.26824312  0.73597168  -0.01602254  1
  Gd3+  Gd2  1  0.54610499  0.78242796  0.51434490  1
  Gd3+  Gd3  1  0.74396791  0.74566515  0.00340248  1
  Gd3+  Gd4  1  -0.05499749  0.26531414  0.48691517  1
  Gd3+  Gd5  1  -0.02306781  0.26342729  -0.01286121  1
  Gd3+  Gd6  1  -0.01140953  0.74341289  0.49118325  1
  Gd3+  Gd7  1  0.27054796  0.23361407  0.49346658  1
  Gd3+  Gd8  1  -0.02389803  0.24526340  0.25284819  1
  Gd3+  Gd9  1  0.48854863  0.25824206  0.25273085  1
  Gd3+  Gd10  1  0.74072870  0.26767158  0.00661456  1
  Gd3+  Gd11  1  0.27194330  0.72769603  0.23961453  1
  Gd3+  Gd12  1  0.50583600  0.26820221  -0.01277575  1
  Gd3+  Gd13  1  0.27117773  0.75135651  0.75038412  1
  Gd3+  Gd14  1  0.53470012  0.74381448  0.26125573  1
  Gd3+  Gd15  1  -0.01451806  0.26717476  0.73983033  1
  Gd3+  Gd16  1  0.73547543  0.73798144  0.75683114  1
  Gd3+  Gd17  1  0.27242889  0.25207351  0.73938723  1
  Gd3+  Gd18  1  0.25366824  0.74930519  0.50747057  1
  Ta5+  Ta19  1  0.13544807  0.37889417  0.86359763  1
  Ta5+  Ta20  1  0.15094166  0.86906909  0.37370226  1
  Ta5+  Ta21  1  0.12558664  0.87884487  0.87267579  1
  Ta5+  Ta22  1  0.88340171  0.61368095  0.63470310  1
  Ta5+  Ta23  1  0.38812897  0.09290752  0.62052583  1
  Ta5+  Ta24  1  0.10195670  0.62532842  0.87411636  1
  Ta5+  Ta25  1  0.39474806  0.61335624  0.62756354  1
  Ta5+  Ta26  1  0.12041061  0.87066284  0.12557540  1
  Ta5+  Ta27  1  0.85030738  0.10132121  0.36971028  1
  Ta5+  Ta28  1  0.40740349  0.36469590  0.61098443  1
  Ta5+  Ta29  1  0.88544155  0.86833868  0.87552942  1
  Ta5+  Ta30  1  0.12264990  0.87505233  0.62881258  1
  Ta5+  Ta31  1  0.38727766  0.90113843  0.63828048  1
  Ta5+  Ta32  1  0.66152077  0.38123780  0.85090086  1
  Ta5+  Ta33  1  0.62505154  0.38446512  0.13056414  1
  Ta5+  Ta34  1  0.13187489  0.40438045  0.36248061  1
  Ta5+  Ta35  1  0.12500041  0.60970969  0.62744009  1
  Ta5+  Ta36  1  0.60096301  0.38688076  0.39341680  1
  Ta5+  Ta37  1  0.41463089  0.61081815  0.06622443  1
  Ta5+  Ta38  1  0.83193738  0.38707735  0.85338594  1
  Ta5+  Ta39  1  0.12198591  0.37132074  0.12004192  1
  Ta5+  Ta40  1  0.59951550  0.61273376  0.88424041  1
  Ta5+  Ta41  1  0.37753162  0.11905251  0.36583594  1
  Ta5+  Ta42  1  0.60483125  0.61591457  0.63135944  1
  Ta5+  Ta43  1  0.67064606  0.87601786  0.36584513  1
  Ta5+  Ta44  1  0.65952980  0.61807477  0.38345674  1
  Ta5+  Ta45  1  0.61565385  0.61492982  0.11336983  1
  Ta5+  Ta46  1  0.12384570  0.12332773  0.11532619  1
  Ta5+  Ta47  1  0.62771493  0.12023043  0.12136865  1
  Ta5+  Ta48  1  0.12778186  0.11019623  0.36554241  1
  Ta5+  Ta49  1  0.61316682  0.87750449  0.88010762  1
  Ta5+  Ta50  1  0.88417587  0.86739776  0.62970168  1
  Ta5+  Ta51  1  0.83862183  0.87132709  0.38167820  1
  Ta5+  Ta52  1  0.87533977  0.87049780  0.13441073  1
  Ta5+  Ta53  1  0.81812698  0.37889426  0.63943944  1
  Ta5+  Ta54  1  0.11865255  0.61530864  0.11768239  1
  Ta5+  Ta55  1  0.41413081  0.87631600  0.88500433  1
  Ta5+  Ta56  1  0.38565698  0.38382982  0.86047571  1
  Ta5+  Ta57  1  0.90061194  0.62384791  0.88448675  1
  Ta5+  Ta58  1  0.36758086  0.38374575  0.11814854  1
  Ta5+  Ta59  1  0.34029160  0.39048692  0.37303764  1
  Ta5+  Ta60  1  0.84188262  0.43392257  0.37844700  1
  Ta5+  Ta61  1  0.12329576  0.11953625  0.61510960  1
  Ta5+  Ta62  1  0.86484666  0.11795619  0.86507527  1
  Ta5+  Ta63  1  0.61885319  0.12955102  0.63194361  1
  Ta5+  Ta64  1  0.87765238  0.11710384  0.62386601  1
  Ta5+  Ta65  1  0.12777479  0.12868103  0.87063673  1
  Ta5+  Ta66  1  0.64979348  0.36789441  0.63958194  1
  Ta5+  Ta67  1  0.39164623  0.87809505  0.38569038  1
  Ta5+  Ta68  1  0.84230640  0.11349463  0.11918016  1
  Ta5+  Ta69  1  0.41842991  0.61419579  0.41652980  1
  Ta5+  Ta70  1  0.88385780  0.62795154  0.13281231  1
  Ta5+  Ta71  1  0.85382699  0.63316385  0.37897287  1
  Ta5+  Ta72  1  0.36205775  0.12608393  0.11453121  1
  Ta5+  Ta73  1  0.62216342  0.12430774  0.86693219  1
  Ta5+  Ta74  1  0.37426587  0.12217537  0.86945676  1
  W6+  W75  1  0.36744649  0.87232356  0.12312173  1
  W6+  W76  1  0.67138076  0.88965288  0.63373919  1
  W6+  W77  1  0.15754015  0.60792736  0.36777879  1
  W6+  W78  1  0.86483268  0.38038943  0.13001677  1
  W6+  W79  1  0.59606155  0.87326705  0.10232905  1
  W6+  W80  1  0.43467832  0.62334177  0.84132463  1
  W6+  W81  1  0.59034084  0.11341566  0.38311810  1
  W6+  W82  1  0.10639940  0.37642730  0.59699832  1
  O2-  O83  1  0.12365124  0.00096858  0.11766298  1
  O2-  O84  1  0.10682154  -0.00830408  0.37360500  1
  O2-  O85  1  0.13378719  -0.00229738  0.61344734  1
  O2-  O86  1  0.12482498  0.00269764  0.87335731  1
  O2-  O87  1  0.09337812  0.49204101  0.11842388  1
  O2-  O88  1  0.08073804  0.50721260  0.32574585  1
  O2-  O89  1  0.17271183  0.50398825  0.60631148  1
  O2-  O90  1  0.12747853  0.50011171  0.86539424  1
  O2-  O91  1  0.36091203  0.00764661  0.11420003  1
  O2-  O92  1  0.40788352  -0.00074943  0.36136881  1
  O2-  O93  1  0.30714655  -0.00936970  0.61412064  1
  O2-  O94  1  0.40174648  0.00419878  0.87872803  1
  O2-  O95  1  0.36423694  0.51075392  0.11542043  1
  O2-  O96  1  0.41248372  0.49081684  0.40231261  1
  O2-  O97  1  0.40963087  0.49283283  0.61554917  1
  O2-  O98  1  0.43843408  0.48756943  0.84409269  1
  O2-  O99  1  0.59366081  0.00812229  0.10946171  1
  O2-  O100  1  0.62646864  -0.01151737  0.36769616  1
  O2-  O101  1  0.67924064  0.02775287  0.64063455  1
  O2-  O102  1  0.60708903  0.00323240  0.87442207  1
  O2-  O103  1  0.65974574  0.50130484  0.13995711  1
  O2-  O104  1  0.59229792  0.50983056  0.38545927  1
  O2-  O105  1  0.61906814  0.49647161  0.63699330  1
  O2-  O106  1  0.61471239  0.49409450  0.87742241  1
  O2-  O107  1  0.84568806  -0.00965529  0.10867026  1
  O2-  O108  1  0.88751017  -0.01115416  0.39170124  1
  O2-  O109  1  0.87548773  -0.00343900  0.62651682  1
  O2-  O110  1  0.87496837  -0.00862328  0.87251474  1
  O2-  O111  1  0.88469682  0.51034902  0.11926841  1
  O2-  O112  1  0.92327646  0.52310808  0.39168932  1
  O2-  O113  1  0.83034097  0.50304729  0.62723874  1
  O2-  O114  1  0.86299494  0.50986573  0.87507186  1
  O2-  O115  1  0.06796964  0.25128268  0.11553944  1
  O2-  O116  1  0.03302904  0.19136988  0.38321384  1
  O2-  O117  1  0.19573789  0.22564125  0.62091480  1
  O2-  O118  1  0.07479136  0.25442650  0.86838717  1
  O2-  O119  1  0.15850446  0.74683923  0.12124444  1
  O2-  O120  1  0.19004687  0.74172723  0.36652824  1
  O2-  O121  1  0.16919888  0.74451498  0.63150216  1
  O2-  O122  1  0.16369562  0.74391793  0.87385776  1
  O2-  O123  1  0.40811721  0.26185095  0.11747483  1
  O2-  O124  1  0.39094737  0.25326114  0.37457415  1
  O2-  O125  1  0.38340852  0.23467622  0.61594658  1
  O2-  O126  1  0.41487932  0.24831955  0.85717553  1
  O2-  O127  1  0.35154768  0.71574894  0.10917975  1
  O2-  O128  1  0.44185436  0.75500529  0.40327111  1
  O2-  O129  1  0.35790406  0.76459482  0.62295410  1
  O2-  O130  1  0.37060518  0.75442286  0.86739040  1
  O2-  O131  1  0.59022743  0.25096683  0.11555894  1
  O2-  O132  1  0.58900618  0.25665382  0.37018982  1
  O2-  O133  1  0.67799582  0.23392506  0.62897570  1
  O2-  O134  1  0.64454815  0.25135295  0.88980596  1
  O2-  O135  1  0.62579735  0.73925118  0.10110840  1
  O2-  O136  1  0.62301290  0.74606619  0.38731590  1
  O2-  O137  1  0.63297696  0.74961843  0.63763851  1
  O2-  O138  1  0.64103595  0.74346425  0.88522116  1
  O2-  O139  1  0.88579443  0.23730382  0.12294095  1
  O2-  O140  1  0.86398661  0.23572324  0.35646087  1
  O2-  O141  1  0.87491557  0.25437051  0.62965877  1
  O2-  O142  1  0.88413083  0.25086031  0.85809232  1
  O2-  O143  1  0.82949103  0.75415951  0.13134661  1
  O2-  O144  1  0.89273186  0.75040749  0.37013395  1
  O2-  O145  1  0.92819782  0.74183249  0.63089224  1
  O2-  O146  1  0.83313810  0.74432358  0.87765866  1
  O2-  O147  1  0.08550382  0.13597204  -0.00523869  1
  O2-  O148  1  0.09434477  0.13594947  0.23808358  1
  O2-  O149  1  0.15585571  0.12952260  0.48850650  1
  O2-  O150  1  0.11392165  0.13512272  0.74542601  1
  O2-  O151  1  0.16474620  0.62189709  0.00045863  1
  O2-  O152  1  0.18756552  0.60534266  0.21955275  1
  O2-  O153  1  0.11852447  0.64903913  0.50081691  1
  O2-  O154  1  0.15117835  0.62484849  0.75116099  1
  O2-  O155  1  0.39567141  0.14896605  -0.00445420  1
  O2-  O156  1  0.39306326  0.13938416  0.23593685  1
  O2-  O157  1  0.35887517  0.11152705  0.49531554  1
  O2-  O158  1  0.34506978  0.12173353  0.74095365  1
  O2-  O159  1  0.34800842  0.61257192  -0.04010744  1
  O2-  O160  1  0.35548637  0.63866969  0.31597315  1
  O2-  O161  1  0.32689519  0.62286564  0.51139638  1
  O2-  O162  1  0.32945884  0.61799448  0.73449238  1
  O2-  O163  1  0.57413207  0.13738674  -0.01288633  1
  O2-  O164  1  0.58097953  0.13749753  0.23999718  1
  O2-  O165  1  0.56959732  0.12338773  0.52036361  1
  O2-  O166  1  0.56990756  0.14023495  0.75501341  1
  O2-  O167  1  0.67865373  0.61163945  -0.00204964  1
  O2-  O168  1  0.64346680  0.63560176  0.25372792  1
  O2-  O169  1  0.65747816  0.62676221  0.51394829  1
  O2-  O170  1  0.64647257  0.62200750  0.76106987  1
  O2-  O171  1  0.90104880  0.13121050  -0.01152204  1
  O2-  O172  1  0.89850112  0.10921544  0.24301624  1
  O2-  O173  1  0.86737973  0.13278873  0.49550912  1
  O2-  O174  1  0.91993684  0.12448405  0.75144232  1
  O2-  O175  1  0.85798430  0.64544159  0.00606677  1
  O2-  O176  1  0.84356997  0.62572857  0.24890353  1
  O2-  O177  1  0.86829019  0.64094318  0.51050891  1
  O2-  O178  1  0.84604018  0.63342076  0.75382352  1
  O2-  O179  1  0.10316607  0.36524774  -0.00732346  1
  O2-  O180  1  0.09852182  0.34744076  0.24935096  1
  O2-  O181  1  0.05971371  0.36529988  0.45343389  1
  O2-  O182  1  0.12232081  0.36034981  0.74004173  1
  O2-  O183  1  0.14129205  0.86667882  -0.00229977  1
  O2-  O184  1  0.15818070  0.87340359  0.24533617  1
  O2-  O185  1  0.10910024  0.84586629  0.49919260  1
  O2-  O186  1  0.16644721  0.87137005  0.75248246  1
  O2-  O187  1  0.38829147  0.37941592  -0.00952217  1
  O2-  O188  1  0.36978277  0.38206379  0.25162065  1
  O2-  O189  1  0.34533883  0.36699095  0.50256537  1
  O2-  O190  1  0.36873326  0.36438220  0.73064915  1
  O2-  O191  1  0.33187888  0.86928576  -0.01317361  1
  O2-  O192  1  0.35280314  0.84986018  0.26719296  1
  O2-  O193  1  0.43145449  0.88650737  0.51491986  1
  O2-  O194  1  0.35024962  0.88300888  0.75946913  1
  O2-  O195  1  0.63753378  0.37502853  0.00023947  1
  O2-  O196  1  0.57751801  0.38037551  0.25114515  1
  O2-  O197  1  0.61140968  0.36974216  0.51302120  1
  O2-  O198  1  0.59280164  0.34640191  0.74760068  1
  O2-  O199  1  0.68257996  0.88097655  -0.01051248  1
  O2-  O200  1  0.63871071  0.85126129  0.24163528  1
  O2-  O201  1  0.66113457  0.87200446  0.49655978  1
  O2-  O202  1  0.68405992  0.87743007  0.77743263  1
  O2-  O203  1  0.85359424  0.35912014  -0.01127198  1
  O2-  O204  1  0.89213712  0.38453549  0.27374100  1
  O2-  O205  1  0.85152206  0.38140180  0.49360581  1
  O2-  O206  1  0.91068657  0.38893436  0.74432667  1
  O2-  O207  1  0.87037739  0.85695774  -0.00063480  1
  O2-  O208  1  0.84655267  0.88376418  0.25245739  1
  O2-  O209  1  0.87596354  0.85082472  0.50617528  1
  O2-  O210  1  0.85235762  0.85406937  0.75389526  1
  O2-  O211  1  0.00572229  -0.14602137  -0.13532294  1
  O2-  O212  1  -0.00175816  -0.13722619  0.13518805  1
  O2-  O213  1  0.00547436  0.14907789  0.59657314  1
  O2-  O214  1  0.00836805  -0.11409431  0.65874935  1
  O2-  O215  1  0.00700498  0.59490682  -0.04489878  1
  O2-  O216  1  0.00459268  0.65591975  0.14045418  1
  O2-  O217  1  0.00604513  0.58531013  0.63894021  1
  O2-  O218  1  0.00086699  0.67082166  0.81656726  1
  O2-  O219  1  0.24048421  0.15729898  0.11264525  1
  O2-  O220  1  0.24797804  0.12762029  0.34380992  1
  O2-  O221  1  0.26778608  -0.11543647  0.42636235  1
  O2-  O222  1  0.24765477  0.15537823  0.87993712  1
  O2-  O223  1  0.24092707  0.36433553  0.11928287  1
  O2-  O224  1  0.22891185  0.31517469  0.37340308  1
  O2-  O225  1  0.23888303  0.47608777  0.37667104  1
  O2-  O226  1  0.25481614  0.35380755  0.86796766  1
  O2-  O227  1  0.51020466  -0.12609033  -0.02756297  1
  O2-  O228  1  0.48502885  -0.16319592  0.16239330  1
  O2-  O229  1  0.46766307  0.00390680  0.65492230  1
  O2-  O230  1  0.51115764  -0.14787128  0.80849308  1
  O2-  O231  1  0.52058267  0.61520251  -0.00229475  1
  O2-  O232  1  0.49847601  0.62793984  0.16516648  1
  O2-  O233  1  0.49266268  0.63916901  0.53577428  1
  O2-  O234  1  0.49260369  0.64197741  0.70283880  1
  O2-  O235  1  0.73596750  0.12347618  0.03534575  1
  O2-  O236  1  0.73910987  0.13583110  0.19066569  1
  O2-  O237  1  0.73168252  0.12201780  0.37299556  1
  O2-  O238  1  0.74529103  0.11794887  0.84165083  1
  O2-  O239  1  0.73819783  0.32508782  0.15431207  1
  O2-  O240  1  0.72420405  0.37761867  0.36176549  1
  O2-  O241  1  0.76075576  0.53693610  0.38743335  1
  O2-  O242  1  0.75572030  0.34119109  0.75102303  1
