# generated using pymatgen
data_Gd19Ta56(WO20)8
_symmetry_space_group_name_H-M   'P 1'
_cell_length_a   15.57611913
_cell_length_b   15.53325367
_cell_length_c   15.30777523
_cell_angle_alpha   90.06828445
_cell_angle_beta   90.15777651
_cell_angle_gamma   90.30673333
_symmetry_Int_Tables_number   1
_chemical_formula_structural   Gd19Ta56(WO20)8
_chemical_formula_sum   'Gd19 Ta56 W8 O160'
_cell_volume   3703.61287579
_cell_formula_units_Z   1
loop_
 _symmetry_equiv_pos_site_id
 _symmetry_equiv_pos_as_xyz
  1  'x, y, z'
loop_
 _atom_type_symbol
 _atom_type_oxidation_number
  Gd3+  3.0
  Ta5+  5.0
  W6+  6.0
  O2-  -2.0
loop_
 _atom_site_type_symbol
 _atom_site_label
 _atom_site_symmetry_multiplicity
 _atom_site_fract_x
 _atom_site_fract_y
 _atom_site_fract_z
 _atom_site_occupancy
  Gd3+  Gd0  1  0.26071607  0.25186176  0.49211300  1
  Gd3+  Gd1  1  0.25661208  0.25396936  0.02181945  1
  Gd3+  Gd2  1  0.49033288  0.23184644  -0.00924772  1
  Gd3+  Gd3  1  0.01612893  0.76251078  0.25869198  1
  Gd3+  Gd4  1  -0.00026299  0.73867815  0.74579253  1
  Gd3+  Gd5  1  0.49133759  0.23583175  0.75247258  1
  Gd3+  Gd6  1  -0.02052437  0.26518313  0.00673423  1
  Gd3+  Gd7  1  0.46589383  0.24357181  0.27576954  1
  Gd3+  Gd8  1  0.48008639  0.72788754  0.23693663  1
  Gd3+  Gd9  1  0.01111372  0.74319812  -0.00120936  1
  Gd3+  Gd10  1  0.24424067  0.77363889  0.22507162  1
  Gd3+  Gd11  1  0.73815960  0.81012218  0.77653415  1
  Gd3+  Gd12  1  0.74387153  0.24336955  -0.00511517  1
  Gd3+  Gd13  1  0.02699340  0.25699283  0.46912654  1
  Gd3+  Gd14  1  -0.01090348  0.77101651  0.50778477  1
  Gd3+  Gd15  1  0.24652784  0.24617375  0.25795764  1
  Gd3+  Gd16  1  0.73025392  0.75493526  0.52461317  1
  Gd3+  Gd17  1  0.50016727  0.25709827  0.49679527  1
  Gd3+  Gd18  1  0.49567428  0.73731233  0.50058778  1
  Ta5+  Ta19  1  0.64421375  0.37847569  0.62074503  1
  Ta5+  Ta20  1  0.61419103  0.11230558  0.36859331  1
  Ta5+  Ta21  1  0.55366003  0.88268584  0.86165956  1
  Ta5+  Ta22  1  0.62658060  0.61820734  0.36251194  1
  Ta5+  Ta23  1  0.13153901  0.88965590  0.10995634  1
  Ta5+  Ta24  1  0.34843004  0.63533401  0.63290583  1
  Ta5+  Ta25  1  0.86627929  0.63105418  0.86921894  1
  Ta5+  Ta26  1  0.86459401  0.63485009  0.11847707  1
  Ta5+  Ta27  1  0.08517394  0.89424154  0.86427959  1
  Ta5+  Ta28  1  0.34082176  0.11576855  0.62773094  1
  Ta5+  Ta29  1  0.18052849  0.87092484  0.43560277  1
  Ta5+  Ta30  1  0.37432951  0.38930131  0.62620244  1
  Ta5+  Ta31  1  0.32886537  0.62200416  0.10524669  1
  Ta5+  Ta32  1  0.86276504  0.90275695  0.62409010  1
  Ta5+  Ta33  1  0.92288553  0.09089165  0.87946491  1
  Ta5+  Ta34  1  0.63526182  0.87267908  0.35082139  1
  Ta5+  Ta35  1  0.83214693  0.90080895  0.36368481  1
  Ta5+  Ta36  1  0.15890970  0.12405614  0.87578309  1
  Ta5+  Ta37  1  0.60346030  0.37897734  0.11838495  1
  Ta5+  Ta38  1  0.37477121  0.39260687  0.87387586  1
  Ta5+  Ta39  1  0.15673916  0.64896425  0.37960344  1
  Ta5+  Ta40  1  0.29230280  0.62648753  0.87461726  1
  Ta5+  Ta41  1  0.62539338  0.10800294  0.14135175  1
  Ta5+  Ta42  1  0.88637924  0.37067095  0.62475062  1
  Ta5+  Ta43  1  0.86417664  0.62657971  0.36759887  1
  Ta5+  Ta44  1  0.59194201  0.64077605  0.86440676  1
  Ta5+  Ta45  1  0.38100611  0.86792135  0.09851783  1
  Ta5+  Ta46  1  0.13541792  0.88829208  0.63334104  1
  Ta5+  Ta47  1  0.10433784  0.12952914  0.63749553  1
  Ta5+  Ta48  1  0.62075833  0.62856694  0.11031481  1
  Ta5+  Ta49  1  0.60150699  0.88724990  0.61793203  1
  Ta5+  Ta50  1  0.32526379  0.63816527  0.37625530  1
  Ta5+  Ta51  1  0.32990068  0.11847906  0.87323531  1
  Ta5+  Ta52  1  0.38637933  0.41120387  0.38384333  1
  Ta5+  Ta53  1  0.61638892  0.62261254  0.63796684  1
  Ta5+  Ta54  1  0.12425499  0.62030117  0.87694530  1
  Ta5+  Ta55  1  0.12454048  0.09345969  0.37702807  1
  Ta5+  Ta56  1  0.62987875  0.37063562  0.35815697  1
  Ta5+  Ta57  1  0.88867614  0.13158875  0.38126152  1
  Ta5+  Ta58  1  0.13256399  0.38063353  0.62404921  1
  Ta5+  Ta59  1  0.60520208  0.40434215  0.87449910  1
  Ta5+  Ta60  1  0.39127061  0.38367443  0.12610041  1
  Ta5+  Ta61  1  0.12655699  0.37028669  0.87406406  1
  Ta5+  Ta62  1  0.15703353  0.44674245  0.37977245  1
  Ta5+  Ta63  1  0.10840030  0.12144763  0.13014020  1
  Ta5+  Ta64  1  0.86803556  0.61364891  0.61405693  1
  Ta5+  Ta65  1  0.56392192  0.88359383  0.11253394  1
  Ta5+  Ta66  1  0.90477695  0.89248283  0.87610698  1
  Ta5+  Ta67  1  0.63536982  0.05508900  0.83869671  1
  Ta5+  Ta68  1  0.86201737  0.12921921  0.13338630  1
  Ta5+  Ta69  1  0.93445263  0.12743197  0.63482797  1
  Ta5+  Ta70  1  0.13090320  0.38453662  0.13581317  1
  Ta5+  Ta71  1  0.38059013  0.86669701  0.37091806  1
  Ta5+  Ta72  1  0.11867393  0.62721748  0.61873900  1
  Ta5+  Ta73  1  0.30940105  0.87036460  0.86938931  1
  Ta5+  Ta74  1  0.16071273  0.62924287  0.11271297  1
  W6+  W75  1  0.87056549  0.39224531  0.12231739  1
  W6+  W76  1  0.90488842  0.88422421  0.12569993  1
  W6+  W77  1  0.36367552  0.86583191  0.62470730  1
  W6+  W78  1  0.90409518  0.41893670  0.86366907  1
  W6+  W79  1  0.41670061  0.10357847  0.12917408  1
  W6+  W80  1  0.63682532  0.13223816  0.61340607  1
  W6+  W81  1  0.37412477  0.06109284  0.38542637  1
  W6+  W82  1  0.89040815  0.38613493  0.37459970  1
  O2-  O83  1  0.08166472  0.00235834  0.12885499  1
  O2-  O84  1  0.12937702  -0.02715844  0.38066587  1
  O2-  O85  1  0.14258705  0.00802138  0.64053690  1
  O2-  O86  1  0.14537178  0.00197360  0.87275341  1
  O2-  O87  1  0.14799516  0.50323680  0.13787269  1
  O2-  O88  1  0.07969271  0.53915827  0.38719688  1
  O2-  O89  1  0.11422415  0.49954862  0.61475832  1
  O2-  O90  1  0.12255421  0.49082514  0.87749958  1
  O2-  O91  1  0.46084309  -0.03613835  0.12492669  1
  O2-  O92  1  0.44799103  -0.03890254  0.34072144  1
  O2-  O93  1  0.34080215  -0.00121862  0.62983982  1
  O2-  O94  1  0.32477845  0.00072706  0.86715786  1
  O2-  O95  1  0.37249280  0.50137262  0.13446869  1
  O2-  O96  1  0.40569021  0.52963206  0.37094656  1
  O2-  O97  1  0.36302093  0.50860463  0.63512258  1
  O2-  O98  1  0.31188938  0.49053374  0.85110835  1
  O2-  O99  1  0.63485636  -0.01263031  0.12864950  1
  O2-  O100  1  0.61417416  -0.01016753  0.38539886  1
  O2-  O101  1  0.63063602  0.00135592  0.60644122  1
  O2-  O102  1  0.67815460  -0.06615383  0.83868876  1
  O2-  O103  1  0.61329795  0.50438093  0.10373906  1
  O2-  O104  1  0.62764177  0.49843309  0.37753647  1
  O2-  O105  1  0.61781727  0.49647739  0.61135878  1
  O2-  O106  1  0.63559333  0.52527888  0.87106219  1
  O2-  O107  1  0.88114241  0.01492224  0.10790248  1
  O2-  O108  1  0.83622892  0.01719330  0.39880832  1
  O2-  O109  1  0.93145914  -0.00045555  0.61488882  1
  O2-  O110  1  0.84213210  0.00283089  0.90782335  1
  O2-  O111  1  0.89632566  0.52399696  0.09853768  1
  O2-  O112  1  0.89147548  0.51875170  0.40147185  1
  O2-  O113  1  0.85535528  0.49993485  0.59289247  1
  O2-  O114  1  0.81742610  0.52224910  0.87077961  1
  O2-  O115  1  0.14685547  0.24598600  0.14759331  1
  O2-  O116  1  0.16891635  0.22077235  0.38061065  1
  O2-  O117  1  0.08785011  0.26386978  0.60556559  1
  O2-  O118  1  0.19034714  0.25814159  0.88724656  1
  O2-  O119  1  0.13143417  0.75583706  0.09651665  1
  O2-  O120  1  0.10392647  0.77598102  0.39720877  1
  O2-  O121  1  0.09491761  0.75642796  0.62354223  1
  O2-  O122  1  0.09218210  0.75850952  0.86866123  1
  O2-  O123  1  0.39936097  0.24627398  0.12417869  1
  O2-  O124  1  0.37967051  0.27384508  0.40704385  1
  O2-  O125  1  0.39742116  0.25168661  0.60840683  1
  O2-  O126  1  0.38324211  0.25714106  0.87777203  1
  O2-  O127  1  0.38250329  0.74133879  0.10026683  1
  O2-  O128  1  0.42266871  0.73712693  0.37269483  1
  O2-  O129  1  0.41695142  0.73941203  0.62821873  1
  O2-  O130  1  0.28203769  0.75146892  0.89156756  1
  O2-  O131  1  0.62208646  0.25178917  0.10173313  1
  O2-  O132  1  0.60687491  0.24806428  0.34411051  1
  O2-  O133  1  0.57738390  0.27058172  0.63093913  1
  O2-  O134  1  0.56293509  0.28113502  0.87357422  1
  O2-  O135  1  0.58496669  0.75365953  0.12966063  1
  O2-  O136  1  0.59009697  0.74243518  0.35609660  1
  O2-  O137  1  0.60656017  0.74932120  0.62720472  1
  O2-  O138  1  0.61273997  0.76382536  0.84619719  1
  O2-  O139  1  0.84847531  0.25718781  0.11450091  1
  O2-  O140  1  0.90745216  0.25298876  0.37007644  1
  O2-  O141  1  0.90544590  0.25379598  0.64489368  1
  O2-  O142  1  1.02935218  0.14670989  0.92081242  1
  O2-  O143  1  0.93823048  0.74228827  0.13307488  1
  O2-  O144  1  0.94187318  0.72292749  0.37785542  1
  O2-  O145  1  0.89707487  0.77466669  0.63199239  1
  O2-  O146  1  0.86732575  0.76383348  0.84041149  1
  O2-  O147  1  0.16711258  0.12878946  0.02110368  1
  O2-  O148  1  0.16025788  0.11158151  0.24750291  1
  O2-  O149  1  0.11063288  0.11916718  0.49907591  1
  O2-  O150  1  0.11746332  0.14734922  0.76088467  1
  O2-  O151  1  0.09780072  0.61788044  0.00287321  1
  O2-  O152  1  0.13378878  0.66507978  0.24669743  1
  O2-  O153  1  0.16760603  0.64563670  0.50636901  1
  O2-  O154  1  0.10725745  0.62935410  0.74508084  1
  O2-  O155  1  0.35783508  0.13302643  -0.00025344  1
  O2-  O156  1  0.35166801  0.14136016  0.26308616  1
  O2-  O157  1  0.33288257  0.12548776  0.49661468  1
  O2-  O158  1  0.38100542  0.13733949  0.74963111  1
  O2-  O159  1  0.34880273  0.60599736  -0.01589166  1
  O2-  O160  1  0.34302370  0.65479627  0.24249185  1
  O2-  O161  1  0.34605302  0.64095987  0.50079688  1
  O2-  O162  1  0.30952331  0.64446920  0.74693758  1
  O2-  O163  1  0.68216418  0.13273234  -0.08437430  1
  O2-  O164  1  0.67873681  0.11289955  0.26202693  1
  O2-  O165  1  0.66203100  0.14320394  0.47470320  1
  O2-  O166  1  0.59616749  0.12800526  0.74748472  1
  O2-  O167  1  0.59417676  0.64972066  -0.00761113  1
  O2-  O168  1  0.58158857  0.61508345  0.24032814  1
  O2-  O169  1  0.62334919  0.64208985  0.49313654  1
  O2-  O170  1  0.55439256  0.61989185  0.74166953  1
  O2-  O171  1  0.87159387  0.16780070  -0.02959900  1
  O2-  O172  1  0.85780836  0.12417737  0.25329760  1
  O2-  O173  1  0.92256161  0.14245463  0.50419788  1
  O2-  O174  1  0.90632594  0.12189021  0.76396811  1
  O2-  O175  1  0.86414465  0.66537529  -0.00535870  1
  O2-  O176  1  0.89088501  0.62844501  0.24563530  1
  O2-  O177  1  0.84138604  0.66501398  0.49554766  1
  O2-  O178  1  0.88972332  0.62653657  0.73613009  1
  O2-  O179  1  0.14045572  0.36232611  0.00850899  1
  O2-  O180  1  0.14565235  0.38248109  0.27452078  1
  O2-  O181  1  0.11741611  0.37835468  0.48096936  1
  O2-  O182  1  0.14051445  0.36907142  0.74672926  1
  O2-  O183  1  0.08649768  0.88213083  -0.00612154  1
  O2-  O184  1  0.12276722  0.85924759  0.23463525  1
  O2-  O185  1  0.23654943  0.85594183  0.54944002  1
  O2-  O186  1  0.06376883  0.87786107  0.73409378  1
  O2-  O187  1  0.34395000  0.37760951  -0.00401552  1
  O2-  O188  1  0.35798591  0.36685093  0.26777321  1
  O2-  O189  1  0.43458781  0.39572954  0.51693403  1
  O2-  O190  1  0.41261725  0.36693355  0.74317289  1
  O2-  O191  1  0.37807718  0.87647744  -0.02475358  1
  O2-  O192  1  0.37377884  0.84271769  0.23949895  1
  O2-  O193  1  0.41134526  0.85858867  0.49321452  1
  O2-  O194  1  0.33754214  0.85694516  0.75377734  1
  O2-  O195  1  0.66389343  0.37567400  -0.01553468  1
  O2-  O196  1  0.65936090  0.38355277  0.23646849  1
  O2-  O197  1  0.63221565  0.35567095  0.49256791  1
  O2-  O198  1  0.63176230  0.38563990  0.75356468  1
  O2-  O199  1  0.56907858  0.87398618  -0.01052730  1
  O2-  O200  1  0.56552818  0.86691853  0.24933589  1
  O2-  O201  1  0.60623685  0.84847570  0.48757231  1
  O2-  O202  1  0.54949422  0.88402961  0.72953140  1
  O2-  O203  1  0.87076291  0.36481365  -0.01254226  1
  O2-  O204  1  0.86560869  0.40274834  0.25102957  1
  O2-  O205  1  0.93335351  0.36546937  0.50786972  1
  O2-  O206  1  0.93327951  0.41571770  0.72645438  1
  O2-  O207  1  0.90857489  0.85402440  -0.00647300  1
  O2-  O208  1  0.91606650  0.87954469  0.27916951  1
  O2-  O209  1  0.86852371  0.86741384  0.48852109  1
  O2-  O210  1  0.85235367  0.90470581  0.75051341  1
  O2-  O211  1  -0.00811100  0.15828414  0.11814531  1
  O2-  O212  1  0.00609052  0.10411970  0.34958909  1
  O2-  O213  1  0.07754699  -0.10939069  0.51610531  1
  O2-  O214  1  -0.01138337  -0.01511650  0.84439901  1
  O2-  O215  1  0.01178876  0.33226219  -0.12304464  1
  O2-  O216  1  0.01163176  0.36534148  0.12586405  1
  O2-  O217  1  -0.00862885  0.62941870  0.58442477  1
  O2-  O218  1  -0.01348971  0.62581947  0.87780435  1
  O2-  O219  1  0.25491922  -0.12304037  0.10594327  1
  O2-  O220  1  0.26362721  -0.22026666  0.37733407  1
  O2-  O221  1  0.28599235  -0.05398040  0.39118221  1
  O2-  O222  1  0.23438909  0.17476109  0.62642841  1
  O2-  O223  1  0.26292019  0.35212785  0.13842905  1
  O2-  O224  1  0.23547934  0.54373922  0.34341611  1
  O2-  O225  1  0.26966629  0.40250865  0.42770561  1
  O2-  O226  1  0.25592029  0.36139459  0.60506601  1
  O2-  O227  1  0.53400314  0.10973675  0.05185408  1
  O2-  O228  1  0.52348169  0.12146675  0.21979581  1
  O2-  O229  1  0.49300532  0.13902491  0.39517062  1
  O2-  O230  1  0.52790348  0.00669434  0.87263109  1
  O2-  O231  1  0.49812135  0.37170685  0.04141765  1
  O2-  O232  1  0.50221086  0.37197670  0.19650600  1
  O2-  O233  1  0.50803283  0.37536110  0.36763676  1
  O2-  O234  1  0.48721605  0.43899359  0.88117138  1
  O2-  O235  1  0.74076100  0.12861083  0.09331918  1
  O2-  O236  1  0.73408573  -0.07948580  0.28700891  1
  O2-  O237  1  0.74585024  -0.19208974  0.39085673  1
  O2-  O238  1  0.73398445  -0.13824759  0.62951648  1
  O2-  O239  1  0.74038096  0.64001547  0.12709026  1
  O2-  O240  1  0.74344309  0.63437575  0.34198441  1
  O2-  O241  1  0.74202126  0.63951555  0.63553254  1
  O2-  O242  1  0.76170391  0.36190840  0.62710207  1
