# generated using pymatgen
data_Gd19Ta56(WO20)8
_symmetry_space_group_name_H-M   'P 1'
_cell_length_a   15.57889339
_cell_length_b   15.37044300
_cell_length_c   15.38970125
_cell_angle_alpha   90.13205445
_cell_angle_beta   89.84935618
_cell_angle_gamma   89.87697743
_symmetry_Int_Tables_number   1
_chemical_formula_structural   Gd19Ta56(WO20)8
_chemical_formula_sum   'Gd19 Ta56 W8 O160'
_cell_volume   3685.10203820
_cell_formula_units_Z   1
loop_
 _symmetry_equiv_pos_site_id
 _symmetry_equiv_pos_as_xyz
  1  'x, y, z'
loop_
 _atom_type_symbol
 _atom_type_oxidation_number
  Gd3+  3.0
  Ta5+  5.0
  W6+  6.0
  O2-  -2.0
loop_
 _atom_site_type_symbol
 _atom_site_label
 _atom_site_symmetry_multiplicity
 _atom_site_fract_x
 _atom_site_fract_y
 _atom_site_fract_z
 _atom_site_occupancy
  Gd3+  Gd0  1  0.01996726  0.75155328  0.25044243  1
  Gd3+  Gd1  1  0.02244132  0.26088253  0.50421871  1
  Gd3+  Gd2  1  0.74595113  0.25044533  0.24829735  1
  Gd3+  Gd3  1  0.74338609  0.72654488  0.49734300  1
  Gd3+  Gd4  1  0.71125976  0.25014150  0.48664261  1
  Gd3+  Gd5  1  0.24552636  0.74420774  0.75309343  1
  Gd3+  Gd6  1  0.75457175  0.73754399  0.76902285  1
  Gd3+  Gd7  1  0.47592640  0.72440225  0.50003178  1
  Gd3+  Gd8  1  0.22840064  0.76286897  0.50833307  1
  Gd3+  Gd9  1  0.73839858  0.25068144  -0.00294750  1
  Gd3+  Gd10  1  0.01475312  0.26274596  0.26653088  1
  Gd3+  Gd11  1  0.28015686  0.24003097  0.24393014  1
  Gd3+  Gd12  1  0.48238480  0.73021999  0.74752815  1
  Gd3+  Gd13  1  0.26867399  0.25695275  0.77257202  1
  Gd3+  Gd14  1  -0.01023996  0.75940969  0.48714822  1
  Gd3+  Gd15  1  0.52097633  0.24548069  0.23924552  1
  Gd3+  Gd16  1  0.79724257  0.74473197  0.20685760  1
  Gd3+  Gd17  1  -0.01686649  0.25968573  0.73679052  1
  Gd3+  Gd18  1  -0.00049979  0.24616566  -0.00781849  1
  Ta5+  Ta19  1  0.89389923  0.61833519  0.63289135  1
  Ta5+  Ta20  1  0.38274957  0.13868021  0.61948593  1
  Ta5+  Ta21  1  0.11055238  0.89388775  0.37397419  1
  Ta5+  Ta22  1  0.88757015  0.59854421  0.36406845  1
  Ta5+  Ta23  1  0.63958434  0.09944764  0.11147571  1
  Ta5+  Ta24  1  0.12635395  0.62380328  0.11993467  1
  Ta5+  Ta25  1  0.33817514  0.61228777  0.36274891  1
  Ta5+  Ta26  1  0.39062619  0.38088365  0.37009365  1
  Ta5+  Ta27  1  0.62662437  0.39906405  0.36726321  1
  Ta5+  Ta28  1  0.36285422  0.35452049  0.61514002  1
  Ta5+  Ta29  1  0.14562039  0.13701096  0.38390604  1
  Ta5+  Ta30  1  0.13213409  0.12489802  0.86651810  1
  Ta5+  Ta31  1  0.61041047  0.60163590  0.85660885  1
  Ta5+  Ta32  1  0.58702965  0.35327086  0.86923792  1
  Ta5+  Ta33  1  0.88292097  0.11375904  0.86666489  1
  Ta5+  Ta34  1  0.63948019  0.11412064  0.62335630  1
  Ta5+  Ta35  1  0.11052705  0.39055033  0.85727303  1
  Ta5+  Ta36  1  0.14471557  0.39077304  0.64836903  1
  Ta5+  Ta37  1  0.86526716  0.38566685  0.87035312  1
  Ta5+  Ta38  1  0.16091578  0.13105707  0.63428674  1
  Ta5+  Ta39  1  0.94978811  0.61346454  0.11335639  1
  Ta5+  Ta40  1  0.86834305  0.87220116  0.88456881  1
  Ta5+  Ta41  1  0.91421600  0.62957172  0.88364285  1
  Ta5+  Ta42  1  0.13600011  0.60916312  0.38084354  1
  Ta5+  Ta43  1  0.08064492  0.63811151  0.88287091  1
  Ta5+  Ta44  1  0.92803882  0.88195980  0.11104641  1
  Ta5+  Ta45  1  0.39387525  0.11453975  0.37335204  1
  Ta5+  Ta46  1  0.87140472  0.38638280  0.11890019  1
  Ta5+  Ta47  1  0.39343436  0.10944302  0.11777544  1
  Ta5+  Ta48  1  0.62316651  0.39672846  0.11707112  1
  Ta5+  Ta49  1  0.14668036  0.87582675  0.12114190  1
  Ta5+  Ta50  1  0.60706388  0.87014424  0.61946248  1
  Ta5+  Ta51  1  0.88874040  0.12093170  0.37635378  1
  Ta5+  Ta52  1  0.08456505  0.94870353  0.62822696  1
  Ta5+  Ta53  1  0.35252094  0.86976609  0.35863397  1
  Ta5+  Ta54  1  0.58685114  0.35281895  0.62580540  1
  Ta5+  Ta55  1  0.42056215  0.13225327  0.86930587  1
  Ta5+  Ta56  1  0.31535134  0.86969051  0.10660982  1
  Ta5+  Ta57  1  0.65582545  0.63975127  0.09292277  1
  Ta5+  Ta58  1  0.42167119  0.36002968  0.86632770  1
  Ta5+  Ta59  1  0.38053878  0.38040476  0.11311530  1
  Ta5+  Ta60  1  0.30348466  0.62222458  0.11420725  1
  Ta5+  Ta61  1  0.58778980  0.12949388  0.86727045  1
  Ta5+  Ta62  1  0.86820270  0.40205704  0.37496409  1
  Ta5+  Ta63  1  0.86987035  0.06891686  0.61769840  1
  Ta5+  Ta64  1  0.14043241  0.37361495  0.11482585  1
  Ta5+  Ta65  1  0.09504664  0.61719417  0.63114326  1
  Ta5+  Ta66  1  0.65251342  0.84937456  0.09406819  1
  Ta5+  Ta67  1  0.63784373  0.09881962  0.36208514  1
  Ta5+  Ta68  1  0.11001634  0.87768868  0.87601854  1
  Ta5+  Ta69  1  0.36187514  0.60154401  0.87397337  1
  Ta5+  Ta70  1  0.83440547  0.38961795  0.62347574  1
  Ta5+  Ta71  1  0.14497869  0.12883706  0.11820751  1
  Ta5+  Ta72  1  0.39179823  0.88833088  0.62718247  1
  Ta5+  Ta73  1  0.60512416  0.87878890  0.84734244  1
  Ta5+  Ta74  1  0.60954575  0.59771920  0.62922267  1
  W6+  W75  1  0.86850087  0.85551564  0.62902632  1
  W6+  W76  1  0.34629169  0.60833762  0.62551326  1
  W6+  W77  1  0.64238220  0.84651144  0.35983019  1
  W6+  W78  1  0.89104871  0.11639019  0.11866074  1
  W6+  W79  1  0.15529066  0.39884365  0.38451412  1
  W6+  W80  1  0.36231521  0.88740780  0.86415393  1
  W6+  W81  1  0.64689692  0.64250255  0.32319180  1
  W6+  W82  1  0.86420280  0.86829679  0.36658136  1
  O2-  O83  1  0.13956833  0.01055084  0.12295387  1
  O2-  O84  1  0.14305828  0.01420039  0.39133178  1
  O2-  O85  1  0.05307384  0.08024609  0.66076220  1
  O2-  O86  1  0.13718348  0.00111107  0.87004414  1
  O2-  O87  1  0.13834228  0.49296847  0.11569040  1
  O2-  O88  1  0.09340797  0.50421867  0.42848625  1
  O2-  O89  1  0.16067448  0.51139154  0.62922868  1
  O2-  O90  1  0.09829936  0.50961867  0.87753970  1
  O2-  O91  1  0.36486308  -0.00751193  0.11087701  1
  O2-  O92  1  0.38733712  -0.01265060  0.38611188  1
  O2-  O93  1  0.39133049  0.01087997  0.62117467  1
  O2-  O94  1  0.39093611  0.01555358  0.85756563  1
  O2-  O95  1  0.35419570  0.49899507  0.11545209  1
  O2-  O96  1  0.40340081  0.50490595  0.37882494  1
  O2-  O97  1  0.35012312  0.47255194  0.61842359  1
  O2-  O98  1  0.38586868  0.48045740  0.86566038  1
  O2-  O99  1  0.64305839  -0.02279851  0.10640907  1
  O2-  O100  1  0.65269144  -0.02070517  0.35525274  1
  O2-  O101  1  0.60581019  -0.00440278  0.61679189  1
  O2-  O102  1  0.59343393  -0.00115416  0.85233746  1
  O2-  O103  1  0.61232470  0.51757090  0.10880547  1
  O2-  O104  1  0.61052228  0.51628274  0.35507934  1
  O2-  O105  1  0.60276746  0.47600178  0.64199350  1
  O2-  O106  1  0.60661310  0.47986249  0.85987605  1
  O2-  O107  1  0.94969690  0.00028942  0.13147086  1
  O2-  O108  1  0.86206345  0.00757692  0.36651199  1
  O2-  O109  1  0.95763213  -0.03414547  0.60712274  1
  O2-  O110  1  0.83971261  0.00021003  0.86690488  1
  O2-  O111  1  0.94441898  0.48188236  0.12058918  1
  O2-  O112  1  0.79531134  0.51866321  0.35827061  1
  O2-  O113  1  0.82466061  0.51095033  0.64425285  1
  O2-  O114  1  0.89348760  0.50150604  0.86218252  1
  O2-  O115  1  0.07255746  0.24921986  0.12336428  1
  O2-  O116  1  0.11174193  0.26814343  0.38105388  1
  O2-  O117  1  0.11704632  0.25283721  0.66373757  1
  O2-  O118  1  0.14034099  0.25554655  0.85306277  1
  O2-  O119  1  0.12693655  0.75387786  0.14552800  1
  O2-  O120  1  0.09284890  0.75971588  0.37812408  1
  O2-  O121  1  0.21753273  0.67557452  0.62553340  1
  O2-  O122  1  0.14748132  0.75859225  0.86097961  1
  O2-  O123  1  0.39687266  0.24816026  0.15267832  1
  O2-  O124  1  0.40251987  0.24476396  0.33768780  1
  O2-  O125  1  0.29292147  0.23151011  0.61530150  1
  O2-  O126  1  0.35610638  0.24719643  0.88555073  1
  O2-  O127  1  0.31973187  0.74209782  0.11224152  1
  O2-  O128  1  0.39902512  0.75358167  0.37358045  1
  O2-  O129  1  0.38170594  0.74809996  0.64010823  1
  O2-  O130  1  0.36442344  0.74209870  0.84365171  1
  O2-  O131  1  0.64568233  0.24742458  0.12871917  1
  O2-  O132  1  0.62646668  0.23895630  0.35380384  1
  O2-  O133  1  0.59239714  0.22752829  0.58742317  1
  O2-  O134  1  0.65514363  0.23881099  0.87754478  1
  O2-  O135  1  0.72874388  0.74659680  0.07261586  1
  O2-  O136  1  0.73642138  0.74885444  0.34502549  1
  O2-  O137  1  0.59873045  0.73635658  0.63166156  1
  O2-  O138  1  0.60717745  0.74228285  0.82985965  1
  O2-  O139  1  0.88181218  0.25790261  0.09040624  1
  O2-  O140  1  0.92372909  0.28453511  0.39558385  1
  O2-  O141  1  0.93018069  0.30619580  0.60707755  1
  O2-  O142  1  0.84560415  0.23850110  0.88274347  1
  O2-  O143  1  0.93321595  0.74753530  0.11478841  1
  O2-  O144  1  0.91369905  0.73099337  0.35870826  1
  O2-  O145  1  0.80677463  0.72469303  0.63037524  1
  O2-  O146  1  0.84390399  0.74659783  0.89475559  1
  O2-  O147  1  0.11530005  0.14335446  -0.00677617  1
  O2-  O148  1  0.14589343  0.15413115  0.24871107  1
  O2-  O149  1  0.13086997  0.15483630  0.50973556  1
  O2-  O150  1  0.20330283  0.12126100  0.75702767  1
  O2-  O151  1  0.12106876  0.64787121  -0.00184823  1
  O2-  O152  1  0.10082038  0.62051556  0.26316584  1
  O2-  O153  1  0.10454972  0.65534478  0.50281559  1
  O2-  O154  1  0.10158516  0.64206657  0.75065314  1
  O2-  O155  1  0.41620110  0.13301539  0.00072078  1
  O2-  O156  1  0.35997296  0.10857704  0.24850717  1
  O2-  O157  1  0.41096737  0.14382588  0.49392376  1
  O2-  O158  1  0.39999912  0.15576665  0.73940891  1
  O2-  O159  1  0.31056527  0.61229174  -0.01794979  1
  O2-  O160  1  0.33553031  0.62301854  0.24237747  1
  O2-  O161  1  0.35271806  0.64215668  0.49215396  1
  O2-  O162  1  0.30561552  0.60549645  0.76216342  1
  O2-  O163  1  0.60590698  0.12274261  -0.00456805  1
  O2-  O164  1  0.67521244  0.11730109  0.23842391  1
  O2-  O165  1  0.64445663  0.11175342  0.48471404  1
  O2-  O166  1  0.61402665  0.13468760  0.73872174  1
  O2-  O167  1  0.64271346  0.63039267  -0.03069847  1
  O2-  O168  1  0.71269839  0.62496330  0.20623868  1
  O2-  O169  1  0.59053844  0.72372548  0.41175257  1
  O2-  O170  1  0.67384812  0.60876917  0.74032258  1
  O2-  O171  1  0.91998261  0.11376431  -0.01505000  1
  O2-  O172  1  0.88442003  0.16499169  0.25420621  1
  O2-  O173  1  0.90882985  0.12517463  0.51055752  1
  O2-  O174  1  0.88793357  0.12288013  0.72793008  1
  O2-  O175  1  0.89710747  0.61314184  0.00440370  1
  O2-  O176  1  0.90330080  0.62145045  0.23641945  1
  O2-  O177  1  0.88009687  0.62867390  0.49495915  1
  O2-  O178  1  0.88294590  0.64171666  0.75422976  1
  O2-  O179  1  0.11012988  0.36120976  -0.01026805  1
  O2-  O180  1  0.13390969  0.36248760  0.24306957  1
  O2-  O181  1  0.13101621  0.36332627  0.52701827  1
  O2-  O182  1  0.04935392  0.39402720  0.73432128  1
  O2-  O183  1  0.12891627  0.87029002  -0.00392654  1
  O2-  O184  1  0.10876475  0.88996933  0.25295118  1
  O2-  O185  1  0.10741370  0.86592735  0.53281060  1
  O2-  O186  1  0.09876671  0.89022827  0.73166151  1
  O2-  O187  1  0.40829849  0.36557597  -0.00162185  1
  O2-  O188  1  0.33460401  0.38082063  0.25971796  1
  O2-  O189  1  0.35645826  0.34729833  0.48240275  1
  O2-  O190  1  0.39036056  0.34155502  0.73797444  1
  O2-  O191  1  0.33096222  0.86928377  -0.01421767  1
  O2-  O192  1  0.34212175  0.87215049  0.24048544  1
  O2-  O193  1  0.33496588  0.86338542  0.51931734  1
  O2-  O194  1  0.31785303  0.87945952  0.72878617  1
  O2-  O195  1  0.63017177  0.36276841  -0.00180235  1
  O2-  O196  1  0.63903993  0.36668091  0.24374376  1
  O2-  O197  1  0.61932345  0.37219621  0.48913765  1
  O2-  O198  1  0.57767068  0.32959086  0.74356529  1
  O2-  O199  1  0.63415942  0.86040856  -0.03623844  1
  O2-  O200  1  0.65880511  0.83315720  0.21775370  1
  O2-  O201  1  0.66639987  0.85445661  0.51064439  1
  O2-  O202  1  0.67199987  0.86653269  0.73219194  1
  O2-  O203  1  0.83495766  0.38374098  -0.00904572  1
  O2-  O204  1  0.88430990  0.35714653  0.24738402  1
  O2-  O205  1  0.84768929  0.40769495  0.49877030  1
  O2-  O206  1  0.85790913  0.35441708  0.74606829  1
  O2-  O207  1  0.86067502  0.88663838  0.01020310  1
  O2-  O208  1  0.89551792  0.86285210  0.23338345  1
  O2-  O209  1  0.85618721  0.82854430  0.49649234  1
  O2-  O210  1  0.85012324  0.85475764  0.76201941  1
  O2-  O211  1  0.00922731  0.14527351  -0.15607549  1
  O2-  O212  1  0.01366177  0.13513086  0.36709251  1
  O2-  O213  1  -0.00705077  -0.09863470  0.40205597  1
  O2-  O214  1  -0.01096436  -0.12267365  0.87750188  1
  O2-  O215  1  -0.01340049  0.33767047  -0.12625411  1
  O2-  O216  1  -0.04736297  0.49088035  0.35843581  1
  O2-  O217  1  -0.00852469  0.70834665  0.62529333  1
  O2-  O218  1  -0.00721416  0.54270214  0.61931796  1
  O2-  O219  1  0.26302782  0.15039122  0.11036987  1
  O2-  O220  1  0.26659497  0.15066217  0.38387691  1
  O2-  O221  1  0.23520578  -0.13545232  0.38756195  1
  O2-  O222  1  0.19067987  0.00811951  0.60490176  1
  O2-  O223  1  0.25676277  0.33754934  0.10816684  1
  O2-  O224  1  0.23650973  0.52804774  0.36521469  1
  O2-  O225  1  0.23676179  0.68835746  0.38244921  1
  O2-  O226  1  0.20618788  0.39358774  0.76973761  1
  O2-  O227  1  0.51595646  0.11554558  0.15319887  1
  O2-  O228  1  0.51664451  0.10696727  0.34249231  1
  O2-  O229  1  0.49783067  -0.13769776  0.55160688  1
  O2-  O230  1  0.50326012  -0.12589368  0.71602715  1
  O2-  O231  1  0.50240901  0.37794904  0.15126797  1
  O2-  O232  1  0.50855216  0.36776881  0.34626948  1
  O2-  O233  1  0.48798627  0.60985197  0.61255276  1
  O2-  O234  1  0.48742337  0.61675511  0.85037892  1
  O2-  O235  1  0.75910794  0.12466418  0.07780193  1
  O2-  O236  1  0.76950953  0.16164906  0.38090180  1
  O2-  O237  1  0.79478572  -0.02362052  0.61975151  1
  O2-  O238  1  0.76008068  0.14408322  0.60782926  1
  O2-  O239  1  0.75156852  0.39895884  0.13495151  1
  O2-  O240  1  0.74978060  0.34921723  0.36855214  1
  O2-  O241  1  0.67742150  0.60008331  0.53195152  1
  O2-  O242  1  0.72486319  0.33885769  0.62005520  1
