# generated using pymatgen
data_Gd19Ta56(WO20)8
_symmetry_space_group_name_H-M   'P 1'
_cell_length_a   15.51816156
_cell_length_b   15.45492662
_cell_length_c   15.34394776
_cell_angle_alpha   90.09681083
_cell_angle_beta   89.90825141
_cell_angle_gamma   90.05691407
_symmetry_Int_Tables_number   1
_chemical_formula_structural   Gd19Ta56(WO20)8
_chemical_formula_sum   'Gd19 Ta56 W8 O160'
_cell_volume   3679.95864348
_cell_formula_units_Z   1
loop_
 _symmetry_equiv_pos_site_id
 _symmetry_equiv_pos_as_xyz
  1  'x, y, z'
loop_
 _atom_type_symbol
 _atom_type_oxidation_number
  Gd3+  3.0
  Ta5+  5.0
  W6+  6.0
  O2-  -2.0
loop_
 _atom_site_type_symbol
 _atom_site_label
 _atom_site_symmetry_multiplicity
 _atom_site_fract_x
 _atom_site_fract_y
 _atom_site_fract_z
 _atom_site_occupancy
  Gd3+  Gd0  1  0.24678600  0.25734895  0.25577030  1
  Gd3+  Gd1  1  0.74690388  0.26705955  0.00481952  1
  Gd3+  Gd2  1  -0.03145838  0.21994417  0.49904853  1
  Gd3+  Gd3  1  0.02485214  0.73745291  0.76505192  1
  Gd3+  Gd4  1  0.73805300  0.75952186  0.50165391  1
  Gd3+  Gd5  1  0.26035623  0.26929724  0.00891749  1
  Gd3+  Gd6  1  0.26373154  0.74302454  0.48754988  1
  Gd3+  Gd7  1  -0.00505415  0.27227174  -0.01630472  1
  Gd3+  Gd8  1  0.26064394  0.75364684  0.75164108  1
  Gd3+  Gd9  1  0.00651799  0.75900857  0.26028441  1
  Gd3+  Gd10  1  0.49771062  0.23149844  -0.02338016  1
  Gd3+  Gd11  1  0.72888847  0.75807758  0.78282100  1
  Gd3+  Gd12  1  0.26962454  0.75760523  -0.00039828  1
  Gd3+  Gd13  1  0.71722005  0.74761470  0.25595076  1
  Gd3+  Gd14  1  0.50470079  0.75539091  0.03084575  1
  Gd3+  Gd15  1  0.24066443  0.21824205  0.50802132  1
  Gd3+  Gd16  1  -0.02894892  0.25480764  0.75233223  1
  Gd3+  Gd17  1  0.73904847  0.22697604  0.49922652  1
  Gd3+  Gd18  1  0.02212844  0.75979886  0.50767364  1
  Ta5+  Ta19  1  0.38614300  0.37957653  0.86635342  1
  Ta5+  Ta20  1  0.91639126  0.12619673  0.12320719  1
  Ta5+  Ta21  1  0.82368975  0.11808850  0.67094711  1
  Ta5+  Ta22  1  0.61073354  0.62038903  0.38750775  1
  Ta5+  Ta23  1  0.12920907  0.37396466  0.61911139  1
  Ta5+  Ta24  1  0.40059455  0.88047850  0.87093506  1
  Ta5+  Ta25  1  0.39253728  0.86388291  0.37012835  1
  Ta5+  Ta26  1  0.36948006  0.10944213  0.37582193  1
  Ta5+  Ta27  1  0.87532481  0.62204881  0.88051618  1
  Ta5+  Ta28  1  0.37126020  0.60705640  0.37319176  1
  Ta5+  Ta29  1  0.91022757  0.87095465  0.88981153  1
  Ta5+  Ta30  1  0.60519240  0.13269854  0.36500278  1
  Ta5+  Ta31  1  0.85342835  0.43168880  0.87854668  1
  Ta5+  Ta32  1  0.09331804  0.36672658  0.37685112  1
  Ta5+  Ta33  1  0.41782493  0.36743550  0.13785052  1
  Ta5+  Ta34  1  0.10863210  0.89905379  0.64956298  1
  Ta5+  Ta35  1  0.87317210  0.12838953  0.32202874  1
  Ta5+  Ta36  1  0.08554334  0.12760068  0.12062486  1
  Ta5+  Ta37  1  0.88200939  0.38226057  0.13722572  1
  Ta5+  Ta38  1  0.58962633  0.36680826  0.12971494  1
  Ta5+  Ta39  1  0.12483984  0.62749916  0.09953599  1
  Ta5+  Ta40  1  0.83054882  0.37568608  0.64292332  1
  Ta5+  Ta41  1  0.63637361  0.37643579  0.36855224  1
  Ta5+  Ta42  1  0.40406278  0.62858449  0.87091637  1
  Ta5+  Ta43  1  0.37319265  0.10982905  0.12941729  1
  Ta5+  Ta44  1  0.33666011  0.36867089  0.63274560  1
  Ta5+  Ta45  1  0.61037406  0.11165985  0.11964707  1
  Ta5+  Ta46  1  0.64520000  0.12002926  0.86094001  1
  Ta5+  Ta47  1  0.56769707  0.88613801  0.87930753  1
  Ta5+  Ta48  1  0.13916744  0.88822513  0.88882821  1
  Ta5+  Ta49  1  0.38524108  0.61381789  0.62795371  1
  Ta5+  Ta50  1  0.13468989  0.12891748  0.87047364  1
  Ta5+  Ta51  1  0.57098086  0.62618384  0.87900348  1
  Ta5+  Ta52  1  0.66375560  0.37730374  0.62807797  1
  Ta5+  Ta53  1  0.11316356  0.11331306  0.63582134  1
  Ta5+  Ta54  1  0.62622120  0.38340849  0.87303528  1
  Ta5+  Ta55  1  0.11081422  0.10417072  0.36752153  1
  Ta5+  Ta56  1  0.39807962  0.87749132  0.62010674  1
  Ta5+  Ta57  1  0.37026304  0.87436274  0.13289354  1
  Ta5+  Ta58  1  0.34023545  0.11802539  0.85887752  1
  Ta5+  Ta59  1  0.86992498  0.63141538  0.12752888  1
  Ta5+  Ta60  1  0.15807981  0.90999570  0.40091274  1
  Ta5+  Ta61  1  0.58067407  0.13705585  0.62847757  1
  Ta5+  Ta62  1  0.41011476  0.12644071  0.62761835  1
  Ta5+  Ta63  1  0.64222540  0.88588221  0.12277110  1
  Ta5+  Ta64  1  0.89467866  0.61939695  0.63426598  1
  Ta5+  Ta65  1  0.86853301  0.62668731  0.38890486  1
  Ta5+  Ta66  1  0.10130563  0.88393139  0.08272228  1
  Ta5+  Ta67  1  0.39385976  0.36598398  0.39491287  1
  Ta5+  Ta68  1  0.85988190  0.11207835  0.88339769  1
  Ta5+  Ta69  1  0.12496249  0.37896285  0.12055750  1
  Ta5+  Ta70  1  0.62868925  0.89027408  0.38211693  1
  Ta5+  Ta71  1  0.88300810  0.87732462  0.12873758  1
  Ta5+  Ta72  1  0.14347285  0.61579835  0.89650799  1
  Ta5+  Ta73  1  0.62067319  0.61152473  0.13076840  1
  Ta5+  Ta74  1  0.89686099  0.88245220  0.64731925  1
  W6+  W75  1  0.63737608  0.62236064  0.63882663  1
  W6+  W76  1  0.11948389  0.62187903  0.36577230  1
  W6+  W77  1  0.63788465  0.89209875  0.63902953  1
  W6+  W78  1  0.14609553  0.37312031  0.83750724  1
  W6+  W79  1  0.88216204  0.37504351  0.39021956  1
  W6+  W80  1  0.10569103  0.62072151  0.62792474  1
  W6+  W81  1  0.88049026  0.88938865  0.38979518  1
  W6+  W82  1  0.37981146  0.61468040  0.12684039  1
  O2-  O83  1  0.09860422  0.00841143  0.09369223  1
  O2-  O84  1  0.06514450  -0.01924876  0.36269127  1
  O2-  O85  1  0.17287302  0.00323063  0.63343475  1
  O2-  O86  1  0.11140687  0.00975719  0.88143165  1
  O2-  O87  1  0.13830134  0.49890779  0.11493011  1
  O2-  O88  1  0.10582964  0.48389066  0.38291181  1
  O2-  O89  1  0.11796607  0.48964597  0.60182640  1
  O2-  O90  1  0.15574712  0.50292658  0.86570643  1
  O2-  O91  1  0.32886302  -0.00437457  0.12913476  1
  O2-  O92  1  0.38765942  -0.00559095  0.36946682  1
  O2-  O93  1  0.40411237  -0.00117879  0.61672846  1
  O2-  O94  1  0.37146939  0.00173653  0.88069197  1
  O2-  O95  1  0.40937286  0.48468975  0.12620779  1
  O2-  O96  1  0.35297969  0.48078469  0.38994316  1
  O2-  O97  1  0.35985590  0.49319724  0.63132445  1
  O2-  O98  1  0.39396179  0.49993487  0.87620246  1
  O2-  O99  1  0.67666871  0.00895650  0.11399884  1
  O2-  O100  1  0.64092669  0.01334114  0.37166351  1
  O2-  O101  1  0.60537716  0.02023840  0.63516249  1
  O2-  O102  1  0.60239327  0.00612367  0.86740406  1
  O2-  O103  1  0.60084580  0.49373500  0.13653607  1
  O2-  O104  1  0.64629893  0.49843220  0.36903885  1
  O2-  O105  1  0.62707145  0.49213655  0.62545331  1
  O2-  O106  1  0.60060811  0.50126694  0.87358464  1
  O2-  O107  1  0.90243214  -0.00395907  0.12442538  1
  O2-  O108  1  0.85266301  0.01914833  0.36541388  1
  O2-  O109  1  0.84147769  -0.00942587  0.65970962  1
  O2-  O110  1  0.89579761  -0.00643234  0.88389882  1
  O2-  O111  1  0.89832281  0.51349779  0.12845000  1
  O2-  O112  1  0.89419654  0.51245174  0.39560074  1
  O2-  O113  1  0.85082472  0.50592853  0.63157984  1
  O2-  O114  1  0.94760135  0.52409007  0.87801029  1
  O2-  O115  1  0.16127996  0.24741355  0.12580197  1
  O2-  O116  1  0.14947641  0.23810652  0.38228569  1
  O2-  O117  1  0.14253076  0.23434625  0.62668121  1
  O2-  O118  1  0.08667309  0.24784622  0.85219658  1
  O2-  O119  1  0.13956562  0.75442898  0.08034437  1
  O2-  O120  1  0.10363317  0.79222239  0.37807411  1
  O2-  O121  1  0.10870482  0.76741382  0.64140549  1
  O2-  O122  1  0.15589209  0.75579246  0.89098423  1
  O2-  O123  1  0.34694801  0.23841743  0.13310327  1
  O2-  O124  1  0.32929764  0.25409709  0.39013904  1
  O2-  O125  1  0.34232174  0.23949725  0.62583419  1
  O2-  O126  1  0.38331853  0.23488364  0.87980663  1
  O2-  O127  1  0.34483568  0.75106400  0.13271500  1
  O2-  O128  1  0.38798277  0.74101775  0.38661702  1
  O2-  O129  1  0.33469671  0.74800141  0.62196499  1
  O2-  O130  1  0.35277227  0.75450453  0.86975712  1
  O2-  O131  1  0.63249978  0.23700999  0.10249873  1
  O2-  O132  1  0.66439462  0.24349377  0.37186951  1
  O2-  O133  1  0.64926974  0.24714849  0.61951146  1
  O2-  O134  1  0.63008467  0.24210169  0.90281283  1
  O2-  O135  1  0.62112923  0.75377253  0.12436970  1
  O2-  O136  1  0.62037476  0.75145916  0.37843003  1
  O2-  O137  1  0.68889652  0.75826542  0.64130501  1
  O2-  O138  1  0.57934759  0.75592409  0.89973017  1
  O2-  O139  1  0.86824284  0.25677006  0.10237373  1
  O2-  O140  1  0.85044640  0.23572160  0.38901393  1
  O2-  O141  1  0.82917914  0.24879928  0.68334027  1
  O2-  O142  1  0.89438704  0.23884952  0.87871941  1
  O2-  O143  1  0.92813337  0.74789736  0.12508166  1
  O2-  O144  1  0.92324401  0.74911803  0.39584651  1
  O2-  O145  1  0.92328776  0.75297260  0.64669409  1
  O2-  O146  1  0.93256364  0.73870587  0.87916498  1
  O2-  O147  1  0.08605788  0.15580929  -0.00858378  1
  O2-  O148  1  0.12979253  0.12442471  0.24710167  1
  O2-  O149  1  0.08430505  0.12071159  0.50818542  1
  O2-  O150  1  0.07176629  0.11818474  0.75069707  1
  O2-  O151  1  0.21965443  0.61742476  -0.00033417  1
  O2-  O152  1  0.09157116  0.64111906  0.21914113  1
  O2-  O153  1  0.14451238  0.66082342  0.50178883  1
  O2-  O154  1  0.15144138  0.64863142  0.76720260  1
  O2-  O155  1  0.39284225  0.12443716  0.00741568  1
  O2-  O156  1  0.32379009  0.12737914  0.25801348  1
  O2-  O157  1  0.35768248  0.12358946  0.50012717  1
  O2-  O158  1  0.40432504  0.12031411  0.75003537  1
  O2-  O159  1  0.39717194  0.64985718  -0.00158354  1
  O2-  O160  1  0.39643311  0.60641347  0.25663947  1
  O2-  O161  1  0.34645005  0.62224649  0.50929111  1
  O2-  O162  1  0.34958296  0.63130088  0.74917690  1
  O2-  O163  1  0.58314680  0.11166823  -0.00575807  1
  O2-  O164  1  0.63330295  0.13026490  0.24315849  1
  O2-  O165  1  0.60964730  0.13927328  0.49429397  1
  O2-  O166  1  0.58486933  0.15227852  0.76006232  1
  O2-  O167  1  0.58981949  0.62397809  0.00957530  1
  O2-  O168  1  0.60873330  0.63602940  0.25637715  1
  O2-  O169  1  0.64953128  0.63480071  0.50383180  1
  O2-  O170  1  0.63133033  0.64629928  0.77119762  1
  O2-  O171  1  0.91548783  0.12653833  -0.00290876  1
  O2-  O172  1  0.81905054  0.13744304  0.21576256  1
  O2-  O173  1  0.85050268  0.13838998  0.55018842  1
  O2-  O174  1  0.91075327  0.11634939  0.76237412  1
  O2-  O175  1  0.85398267  0.63893979  0.00235439  1
  O2-  O176  1  0.89149533  0.64639907  0.25947444  1
  O2-  O177  1  0.83782514  0.64928626  0.51584533  1
  O2-  O178  1  0.83327402  0.64923728  0.75876367  1
  O2-  O179  1  0.12365386  0.35512079  -0.00942320  1
  O2-  O180  1  0.13144145  0.36215008  0.25259444  1
  O2-  O181  1  0.06671812  0.33920794  0.50531761  1
  O2-  O182  1  0.06109602  0.36856325  0.72521839  1
  O2-  O183  1  0.20467767  0.89683440  -0.00416094  1
  O2-  O184  1  0.07976377  0.86767082  0.19910327  1
  O2-  O185  1  0.16513081  0.87658858  0.51998990  1
  O2-  O186  1  0.17087117  0.87807718  0.76461936  1
  O2-  O187  1  0.39269299  0.34645245  0.00966592  1
  O2-  O188  1  0.37495065  0.35146212  0.26265568  1
  O2-  O189  1  0.40320207  0.36173143  0.51971986  1
  O2-  O190  1  0.39751852  0.36400450  0.74494265  1
  O2-  O191  1  0.39205552  0.86646298  0.00538938  1
  O2-  O192  1  0.41714627  0.87107963  0.24692604  1
  O2-  O193  1  0.35352508  0.86926329  0.50014136  1
  O2-  O194  1  0.36224150  0.87135188  0.74213231  1
  O2-  O195  1  0.63684703  0.37575156  0.00973673  1
  O2-  O196  1  0.63829963  0.35789000  0.24546962  1
  O2-  O197  1  0.67499439  0.36653651  0.49144399  1
  O2-  O198  1  0.63118298  0.36360527  0.75311508  1
  O2-  O199  1  0.57729833  0.88895096  0.01582514  1
  O2-  O200  1  0.61994026  0.88129503  0.24716088  1
  O2-  O201  1  0.65753438  0.88577481  0.50221601  1
  O2-  O202  1  0.62773831  0.86303259  0.77074536  1
  O2-  O203  1  0.88229058  0.38810267  -0.00713172  1
  O2-  O204  1  0.86480876  0.37685241  0.25350703  1
  O2-  O205  1  0.86829422  0.34178377  0.52821865  1
  O2-  O206  1  0.88603507  0.38958543  0.76693321  1
  O2-  O207  1  0.85640282  0.86055773  -0.00212693  1
  O2-  O208  1  0.90205824  0.86753097  0.25378050  1
  O2-  O209  1  0.84940267  0.86088336  0.53052359  1
  O2-  O210  1  0.84472705  0.85371590  0.77844101  1
  O2-  O211  1  0.02886369  -0.12894598  -0.04177302  1
  O2-  O212  1  -0.00801070  0.15164864  0.36504542  1
  O2-  O213  1  0.00477355  -0.09591325  0.57318424  1
  O2-  O214  1  0.00325020  -0.11241764  0.73632432  1
  O2-  O215  1  0.05577908  0.62027264  -0.00925271  1
  O2-  O216  1  0.00451050  0.36048906  0.12275757  1
  O2-  O217  1  -0.00859440  0.62086997  0.54904519  1
  O2-  O218  1  -0.00684350  0.60336251  0.71446908  1
  O2-  O219  1  0.24023257  0.14048553  -0.05527531  1
  O2-  O220  1  0.26126364  -0.12985095  0.34964665  1
  O2-  O221  1  0.21519195  0.04171059  0.40555274  1
  O2-  O222  1  0.23700146  0.12098104  0.78708174  1
  O2-  O223  1  0.26701928  0.35969276  -0.10779712  1
  O2-  O224  1  0.25320436  0.64354868  0.36574989  1
  O2-  O225  1  0.23864366  0.35998133  0.54321705  1
  O2-  O226  1  0.22680157  0.37657261  0.70732618  1
  O2-  O227  1  0.49146404  0.09311926  0.15482180  1
  O2-  O228  1  0.48412750  0.15102486  0.35528328  1
  O2-  O229  1  0.50897932  -0.11664248  0.40423942  1
  O2-  O230  1  0.50936477  -0.15733992  0.61881580  1
  O2-  O231  1  0.50627707  0.35100184  -0.11168165  1
  O2-  O232  1  0.51468903  0.36617786  0.38110271  1
  O2-  O233  1  0.49501032  0.59831016  0.40999509  1
  O2-  O234  1  0.50046246  0.62827413  0.62809920  1
  O2-  O235  1  0.75213234  0.12875184  -0.04995535  1
  O2-  O236  1  0.76237270  -0.15012301  0.14366532  1
  O2-  O237  1  0.75382567  -0.15518722  0.36310312  1
  O2-  O238  1  0.75242406  0.10708660  0.79052421  1
  O2-  O239  1  0.78185760  0.53132635  -0.11772140  1
  O2-  O240  1  0.74871795  0.63258564  0.14579237  1
  O2-  O241  1  0.75146191  0.64377049  0.36151175  1
  O2-  O242  1  0.75180330  0.35677210  0.88429837  1
