# generated using pymatgen
data_Gd19Ta56(WO20)8
_symmetry_space_group_name_H-M   'P 1'
_cell_length_a   15.49729126
_cell_length_b   15.54292047
_cell_length_c   15.28572664
_cell_angle_alpha   89.87480431
_cell_angle_beta   89.83144833
_cell_angle_gamma   90.00099844
_symmetry_Int_Tables_number   1
_chemical_formula_structural   Gd19Ta56(WO20)8
_chemical_formula_sum   'Gd19 Ta56 W8 O160'
_cell_volume   3681.89664342
_cell_formula_units_Z   1
loop_
 _symmetry_equiv_pos_site_id
 _symmetry_equiv_pos_as_xyz
  1  'x, y, z'
loop_
 _atom_type_symbol
 _atom_type_oxidation_number
  Gd3+  3.0
  Ta5+  5.0
  W6+  6.0
  O2-  -2.0
loop_
 _atom_site_type_symbol
 _atom_site_label
 _atom_site_symmetry_multiplicity
 _atom_site_fract_x
 _atom_site_fract_y
 _atom_site_fract_z
 _atom_site_occupancy
  Gd3+  Gd0  1  0.52352378  0.28060628  0.02694058  1
  Gd3+  Gd1  1  0.00223263  0.75462583  0.74591493  1
  Gd3+  Gd2  1  -0.01204907  0.74388065  0.49276103  1
  Gd3+  Gd3  1  0.50057300  0.75120860  0.74903585  1
  Gd3+  Gd4  1  0.25438141  0.24960861  0.01137020  1
  Gd3+  Gd5  1  -0.01303362  0.74691527  0.01172205  1
  Gd3+  Gd6  1  0.74359880  0.73556441  0.49911763  1
  Gd3+  Gd7  1  0.26442547  0.75424161  0.76962609  1
  Gd3+  Gd8  1  0.25393636  0.25240592  0.73281696  1
  Gd3+  Gd9  1  0.76363507  0.25699848  0.52266252  1
  Gd3+  Gd10  1  0.23888289  0.75070636  0.51020084  1
  Gd3+  Gd11  1  0.01595886  0.23751185  0.00450299  1
  Gd3+  Gd12  1  0.49285989  0.74762717  0.49657698  1
  Gd3+  Gd13  1  0.27415646  0.74937729  0.01050673  1
  Gd3+  Gd14  1  0.27106940  0.74375001  0.27694828  1
  Gd3+  Gd15  1  0.01078576  0.25315394  0.48667858  1
  Gd3+  Gd16  1  -0.03880103  0.74805713  0.25756516  1
  Gd3+  Gd17  1  0.49147324  0.26348402  0.45187185  1
  Gd3+  Gd18  1  0.74517939  0.25312493  0.00756177  1
  Ta5+  Ta19  1  0.16311483  0.13753545  0.38563426  1
  Ta5+  Ta20  1  0.86434146  0.61523108  0.63196785  1
  Ta5+  Ta21  1  0.88692995  0.37005822  0.36179901  1
  Ta5+  Ta22  1  0.38160778  0.37311804  0.14776934  1
  Ta5+  Ta23  1  0.11064418  0.60490407  0.32594359  1
  Ta5+  Ta24  1  0.41397472  0.14387564  0.62545557  1
  Ta5+  Ta25  1  0.13928120  0.88875322  0.64061828  1
  Ta5+  Ta26  1  0.86349533  0.60201508  0.37624406  1
  Ta5+  Ta27  1  0.38775609  0.88304263  0.14229646  1
  Ta5+  Ta28  1  0.88118656  0.11830293  0.87149251  1
  Ta5+  Ta29  1  0.61813255  0.88117562  0.88216057  1
  Ta5+  Ta30  1  0.84014737  0.60599618  0.12276065  1
  Ta5+  Ta31  1  0.38596470  0.13050505  0.88238375  1
  Ta5+  Ta32  1  0.63942752  0.14122712  0.36228672  1
  Ta5+  Ta33  1  0.13144990  0.60358601  0.64861823  1
  Ta5+  Ta34  1  0.86619365  0.11349037  0.11864802  1
  Ta5+  Ta35  1  0.14131013  0.61678143  0.86771954  1
  Ta5+  Ta36  1  0.10965649  0.37449273  0.87076517  1
  Ta5+  Ta37  1  0.84789257  0.90399648  0.63004005  1
  Ta5+  Ta38  1  0.38145339  0.11831167  0.13753341  1
  Ta5+  Ta39  1  0.15133935  0.37790857  0.39952182  1
  Ta5+  Ta40  1  0.89285078  0.37123611  0.86181090  1
  Ta5+  Ta41  1  0.34832408  0.90186186  0.63928615  1
  Ta5+  Ta42  1  0.12036212  0.89050642  0.38190475  1
  Ta5+  Ta43  1  0.13718358  0.89005722  0.87504671  1
  Ta5+  Ta44  1  0.33241537  0.13936962  0.38575403  1
  Ta5+  Ta45  1  0.61674029  0.60857275  0.36727039  1
  Ta5+  Ta46  1  0.87897804  0.13102583  0.37208519  1
  Ta5+  Ta47  1  0.64255235  0.37708854  0.34720510  1
  Ta5+  Ta48  1  0.39123115  0.88578834  0.88824226  1
  Ta5+  Ta49  1  0.39268820  0.61831293  0.89092603  1
  Ta5+  Ta50  1  0.10010785  0.12134467  0.83972670  1
  Ta5+  Ta51  1  0.41650139  0.36589562  0.62636002  1
  Ta5+  Ta52  1  0.85938390  0.61889279  0.87639840  1
  Ta5+  Ta53  1  0.62139150  0.89953155  0.38470722  1
  Ta5+  Ta54  1  0.08939436  0.12885603  0.63158552  1
  Ta5+  Ta55  1  0.64257731  0.91115004  0.62490632  1
  Ta5+  Ta56  1  0.62179696  0.09813899  0.11568049  1
  Ta5+  Ta57  1  0.38755677  0.37170315  0.87774375  1
  Ta5+  Ta58  1  0.84772031  0.86600037  0.12618028  1
  Ta5+  Ta59  1  0.12592370  0.61571989  0.11753195  1
  Ta5+  Ta60  1  0.32039815  0.37580815  0.39225216  1
  Ta5+  Ta61  1  0.37304799  0.89249952  0.39559300  1
  Ta5+  Ta62  1  0.41661169  0.59646036  0.13974132  1
  Ta5+  Ta63  1  0.34649760  0.60436158  0.64052268  1
  Ta5+  Ta64  1  0.58071710  0.14286608  0.61795240  1
  Ta5+  Ta65  1  0.58722893  0.36145117  0.61922925  1
  Ta5+  Ta66  1  0.91939439  0.13288082  0.64234235  1
  Ta5+  Ta67  1  0.90552460  0.36918100  0.63872331  1
  Ta5+  Ta68  1  0.86294916  0.88463403  0.38166525  1
  Ta5+  Ta69  1  0.13808173  0.37431964  0.14556204  1
  Ta5+  Ta70  1  0.86002408  0.87168140  0.87369948  1
  Ta5+  Ta71  1  0.11103071  0.87681085  0.12710805  1
  Ta5+  Ta72  1  0.63229315  0.87604468  0.13510278  1
  Ta5+  Ta73  1  0.07346232  0.36709674  0.65313663  1
  Ta5+  Ta74  1  0.61614226  0.62191364  0.88759834  1
  W6+  W75  1  0.60243690  0.60106123  0.62824338  1
  W6+  W76  1  0.38545600  0.60191500  0.39330719  1
  W6+  W77  1  0.63032011  0.68588442  0.13159495  1
  W6+  W78  1  0.11839100  0.12469810  0.14222538  1
  W6+  W79  1  0.61665727  0.46776617  0.10630981  1
  W6+  W80  1  0.63780299  0.37342360  0.86742695  1
  W6+  W81  1  0.61615736  0.11629894  0.86571870  1
  W6+  W82  1  0.88558037  0.37477445  0.10655974  1
  O2-  O83  1  0.13988757  -0.00996538  0.12658129  1
  O2-  O84  1  0.12560940  0.00615375  0.39277746  1
  O2-  O85  1  0.09796858  -0.00143909  0.62348326  1
  O2-  O86  1  0.14743207  0.00959814  0.88223252  1
  O2-  O87  1  0.12167199  0.49314110  0.10795218  1
  O2-  O88  1  0.12949809  0.51034279  0.39430146  1
  O2-  O89  1  0.11261149  0.48848981  0.64896672  1
  O2-  O90  1  0.12981576  0.49784327  0.87764913  1
  O2-  O91  1  0.34350414  -0.00725572  0.13097127  1
  O2-  O92  1  0.35672758  0.00754045  0.39771814  1
  O2-  O93  1  0.37531737  0.01563863  0.63405821  1
  O2-  O94  1  0.37762872  0.00670191  0.88515632  1
  O2-  O95  1  0.35377235  0.49711715  0.12142012  1
  O2-  O96  1  0.31576518  0.49979262  0.40432452  1
  O2-  O97  1  0.37255232  0.48918473  0.64147598  1
  O2-  O98  1  0.38473009  0.49674878  0.88606262  1
  O2-  O99  1  0.68065332  -0.01445614  0.13526820  1
  O2-  O100  1  0.63511239  0.01519865  0.39645608  1
  O2-  O101  1  0.58186738  0.01041657  0.59418149  1
  O2-  O102  1  0.56632655  -0.01287751  0.86371738  1
  O2-  O103  1  0.72598925  0.57004170  0.11144357  1
  O2-  O104  1  0.58873473  0.49036984  0.37130430  1
  O2-  O105  1  0.60587369  0.48192249  0.59047665  1
  O2-  O106  1  0.61702770  0.50458792  0.89396354  1
  O2-  O107  1  0.86026752  -0.01566157  0.11313814  1
  O2-  O108  1  0.86989022  0.00431740  0.38597615  1
  O2-  O109  1  0.91331623  0.00460365  0.62089017  1
  O2-  O110  1  0.89409298  -0.01665344  0.87901476  1
  O2-  O111  1  0.90521339  0.51033513  0.11051269  1
  O2-  O112  1  0.90844611  0.49119679  0.39079998  1
  O2-  O113  1  0.90269304  0.50247578  0.62870848  1
  O2-  O114  1  0.88613309  0.50476602  0.87317946  1
  O2-  O115  1  0.08083718  0.26419883  0.13781005  1
  O2-  O116  1  0.11936700  0.25666055  0.38088931  1
  O2-  O117  1  0.12061209  0.25076042  0.65665324  1
  O2-  O118  1  0.10667508  0.24200695  0.86119370  1
  O2-  O119  1  0.14402328  0.74945976  0.09951149  1
  O2-  O120  1  0.15639209  0.70910987  0.38305431  1
  O2-  O121  1  0.13996336  0.75824665  0.66094442  1
  O2-  O122  1  0.13410850  0.75301298  0.85481698  1
  O2-  O123  1  0.40974030  0.24412759  0.13469975  1
  O2-  O124  1  0.36869552  0.25631797  0.36465710  1
  O2-  O125  1  0.35388637  0.25462111  0.62563801  1
  O2-  O126  1  0.31870487  0.24835060  0.87551420  1
  O2-  O127  1  0.32050197  0.77530363  0.14260938  1
  O2-  O128  1  0.35209391  0.74276004  0.40943753  1
  O2-  O129  1  0.33123086  0.75240906  0.63762708  1
  O2-  O130  1  0.38069979  0.75155527  0.87724137  1
  O2-  O131  1  0.63489335  0.22051397  0.10796858  1
  O2-  O132  1  0.59398169  0.26143636  0.33072471  1
  O2-  O133  1  0.65744213  0.24918125  0.62043003  1
  O2-  O134  1  0.66652405  0.24090458  0.88612039  1
  O2-  O135  1  0.73328861  0.80027066  0.12506094  1
  O2-  O136  1  0.74327256  0.86342993  0.41319689  1
  O2-  O137  1  0.55527686  0.72690647  0.62360976  1
  O2-  O138  1  0.58343822  0.76313926  0.86848382  1
  O2-  O139  1  0.88824650  0.23606880  0.09260451  1
  O2-  O140  1  0.92863089  0.24849665  0.36072072  1
  O2-  O141  1  0.86413857  0.24691096  0.64365322  1
  O2-  O142  1  0.89471019  0.24366390  0.87118823  1
  O2-  O143  1  0.88760633  0.73003212  0.13147645  1
  O2-  O144  1  0.86025736  0.74340861  0.38152110  1
  O2-  O145  1  0.92229340  0.73404727  0.62457027  1
  O2-  O146  1  0.92674026  0.75142550  0.87492916  1
  O2-  O147  1  0.14076906  0.15546883  0.01319208  1
  O2-  O148  1  0.15980297  0.12986400  0.26266841  1
  O2-  O149  1  0.11594089  0.14260180  0.51138375  1
  O2-  O150  1  0.18079710  0.11838530  0.74180304  1
  O2-  O151  1  0.08824191  0.63402823  -0.01510334  1
  O2-  O152  1  0.19795256  0.61892344  0.22938359  1
  O2-  O153  1  0.05987106  0.64046614  0.55772407  1
  O2-  O154  1  0.06366400  0.62265565  0.76340403  1
  O2-  O155  1  0.34023586  0.12942415  0.01296521  1
  O2-  O156  1  0.34859435  0.12105286  0.25394486  1
  O2-  O157  1  0.39014566  0.14720101  0.49938683  1
  O2-  O158  1  0.39261459  0.14258599  0.76011305  1
  O2-  O159  1  0.38901403  0.64493514  0.02458977  1
  O2-  O160  1  0.37538114  0.63466674  0.24883859  1
  O2-  O161  1  0.41126361  0.62495854  0.53501256  1
  O2-  O162  1  0.39527860  0.63370069  0.75783469  1
  O2-  O163  1  0.64646188  0.09126259  -0.00518493  1
  O2-  O164  1  0.63544362  0.10664371  0.24542968  1
  O2-  O165  1  0.59472206  0.16010900  0.48192679  1
  O2-  O166  1  0.59204064  0.12896217  0.73868939  1
  O2-  O167  1  0.59141684  0.65409384  0.00246864  1
  O2-  O168  1  0.65542188  0.66938252  0.27023667  1
  O2-  O169  1  0.62497002  0.65147253  0.48845199  1
  O2-  O170  1  0.58099407  0.62494189  0.76421386  1
  O2-  O171  1  0.82312672  0.11886718  -0.01414286  1
  O2-  O172  1  0.87107135  0.12240138  0.24120593  1
  O2-  O173  1  0.88795537  0.15120690  0.50564973  1
  O2-  O174  1  0.84357726  0.10879159  0.75642219  1
  O2-  O175  1  0.88062315  0.64103603  -0.00111591  1
  O2-  O176  1  0.85813606  0.61802383  0.25049991  1
  O2-  O177  1  0.87148684  0.63642691  0.50335107  1
  O2-  O178  1  0.88520701  0.64314005  0.75536153  1
  O2-  O179  1  0.15382087  0.35318875  -0.00908109  1
  O2-  O180  1  0.13985853  0.38779820  0.26450401  1
  O2-  O181  1  0.10913231  0.36590025  0.52059389  1
  O2-  O182  1  0.17603450  0.37076540  0.76335239  1
  O2-  O183  1  0.08229737  0.87061467  -0.01416328  1
  O2-  O184  1  0.13450412  0.85439545  0.25633785  1
  O2-  O185  1  0.09954135  0.84635594  0.50601530  1
  O2-  O186  1  0.07151665  0.88764406  0.76572955  1
  O2-  O187  1  0.37007024  0.35183080  0.00483614  1
  O2-  O188  1  0.36496216  0.38894616  0.26598357  1
  O2-  O189  1  0.38162255  0.36401225  0.50350847  1
  O2-  O190  1  0.37153105  0.35862258  0.75493093  1
  O2-  O191  1  0.38964762  0.86211435  0.01404863  1
  O2-  O192  1  0.36238912  0.86948429  0.27092087  1
  O2-  O193  1  0.40366759  0.87099306  0.52568811  1
  O2-  O194  1  0.40246081  0.87257134  0.75429889  1
  O2-  O195  1  0.64361769  0.36852578  0.01124299  1
  O2-  O196  1  0.65043767  0.40848271  0.22964245  1
  O2-  O197  1  0.61737573  0.34478328  0.47913969  1
  O2-  O198  1  0.60332765  0.37065605  0.73911024  1
  O2-  O199  1  0.62065414  0.87804200  0.00443755  1
  O2-  O200  1  0.64032315  0.87061347  0.26781903  1
  O2-  O201  1  0.61130563  0.85208351  0.51085761  1
  O2-  O202  1  0.60041247  0.87243424  0.73285897  1
  O2-  O203  1  0.82844827  0.36850304  -0.02759151  1
  O2-  O204  1  0.89873788  0.37795681  0.24313944  1
  O2-  O205  1  0.88426462  0.34877382  0.50528080  1
  O2-  O206  1  0.83849097  0.38093297  0.75172087  1
  O2-  O207  1  0.86762050  0.84534366  -0.00265382  1
  O2-  O208  1  0.85360242  0.86730947  0.25677168  1
  O2-  O209  1  0.88712248  0.86481117  0.51294742  1
  O2-  O210  1  0.88338212  0.85998744  0.74303746  1
  O2-  O211  1  -0.00215920  0.11120133  -0.07899524  1
  O2-  O212  1  -0.01162759  -0.14457275  0.13787015  1
  O2-  O213  1  -0.00525756  -0.14407239  0.36827557  1
  O2-  O214  1  0.00989749  0.12381706  0.75048555  1
  O2-  O215  1  -0.00131027  0.37162897  -0.05863490  1
  O2-  O216  1  0.03935717  0.63308250  0.20833767  1
  O2-  O217  1  -0.00363940  0.64753548  0.37111128  1
  O2-  O218  1  0.00798564  0.37913686  0.77769784  1
  O2-  O219  1  0.25688074  -0.13707892  -0.09937218  1
  O2-  O220  1  0.24283905  -0.13640872  0.39521429  1
  O2-  O221  1  0.24245971  -0.10785466  0.56582002  1
  O2-  O222  1  0.23567082  -0.10307641  0.72759276  1
  O2-  O223  1  0.25856735  0.63567248  -0.09083295  1
  O2-  O224  1  0.25497904  0.33636756  0.13543600  1
  O2-  O225  1  0.23629178  0.61432891  0.57145134  1
  O2-  O226  1  0.22801194  0.61473919  0.73964396  1
  O2-  O227  1  0.49979681  0.08521230  0.12040116  1
  O2-  O228  1  0.50761748  -0.11447707  0.15302570  1
  O2-  O229  1  0.49821140  -0.12996271  0.38315728  1
  O2-  O230  1  0.49376623  0.16474844  0.92262211  1
  O2-  O231  1  0.50219637  0.39373200  0.12171679  1
  O2-  O232  1  0.53602266  0.57829019  0.15826228  1
  O2-  O233  1  0.50512371  0.66415212  0.37150632  1
  O2-  O234  1  0.50368440  0.34846486  0.88996246  1
  O2-  O235  1  0.74046037  -0.12478988  -0.14303782  1
  O2-  O236  1  0.75816637  0.16900817  0.39001787  1
  O2-  O237  1  0.74664558  -0.02534570  0.65118521  1
  O2-  O238  1  0.74615489  -0.17812367  0.61256484  1
  O2-  O239  1  0.74136822  0.64387260  -0.12483567  1
  O2-  O240  1  0.76143965  0.36018104  0.37681686  1
  O2-  O241  1  0.74526754  0.58419466  0.39325832  1
  O2-  O242  1  0.74635156  0.63324458  0.62567892  1
