# generated using pymatgen
data_Gd19Ta56(WO20)8
_symmetry_space_group_name_H-M   'P 1'
_cell_length_a   15.55862168
_cell_length_b   15.49995369
_cell_length_c   15.18423573
_cell_angle_alpha   89.89200650
_cell_angle_beta   89.77148703
_cell_angle_gamma   89.56924427
_symmetry_Int_Tables_number   1
_chemical_formula_structural   Gd19Ta56(WO20)8
_chemical_formula_sum   'Gd19 Ta56 W8 O160'
_cell_volume   3661.65972924
_cell_formula_units_Z   1
loop_
 _symmetry_equiv_pos_site_id
 _symmetry_equiv_pos_as_xyz
  1  'x, y, z'
loop_
 _atom_type_symbol
 _atom_type_oxidation_number
  Gd3+  3.0
  Ta5+  5.0
  W6+  6.0
  O2-  -2.0
loop_
 _atom_site_type_symbol
 _atom_site_label
 _atom_site_symmetry_multiplicity
 _atom_site_fract_x
 _atom_site_fract_y
 _atom_site_fract_z
 _atom_site_occupancy
  Gd3+  Gd0  1  0.24401780  0.75783843  0.25180270  1
  Gd3+  Gd1  1  0.00897989  0.75098193  0.51212927  1
  Gd3+  Gd2  1  0.22307361  0.73998556  -0.01162488  1
  Gd3+  Gd3  1  0.46595354  0.26154256  0.74812024  1
  Gd3+  Gd4  1  0.76708945  0.24339352  0.73978213  1
  Gd3+  Gd5  1  0.27392823  0.73634405  0.72891161  1
  Gd3+  Gd6  1  0.75861345  0.75740440  0.53589526  1
  Gd3+  Gd7  1  0.26096052  0.75043103  0.48783471  1
  Gd3+  Gd8  1  0.01357621  0.24264893  0.26026421  1
  Gd3+  Gd9  1  0.51333130  0.75869860  0.23687650  1
  Gd3+  Gd10  1  0.77711571  0.23054936  0.50623429  1
  Gd3+  Gd11  1  0.74594204  0.75882056  0.27657962  1
  Gd3+  Gd12  1  0.00239329  0.24774262  0.01198927  1
  Gd3+  Gd13  1  0.26320837  0.25545417  0.51301304  1
  Gd3+  Gd14  1  0.74107171  0.72351251  -0.01238020  1
  Gd3+  Gd15  1  -0.02936459  0.71326952  0.02034523  1
  Gd3+  Gd16  1  0.52398847  0.74879992  0.00163244  1
  Gd3+  Gd17  1  0.49999146  0.26404026  0.22946336  1
  Gd3+  Gd18  1  0.23600750  0.24187644  -0.02736279  1
  Ta5+  Ta19  1  0.85498651  0.37169317  0.16346004  1
  Ta5+  Ta20  1  0.36859106  0.87552124  0.86382401  1
  Ta5+  Ta21  1  0.40060740  0.62361452  0.85716835  1
  Ta5+  Ta22  1  0.14448368  0.37070174  0.13138196  1
  Ta5+  Ta23  1  0.37069576  0.61943654  0.35558853  1
  Ta5+  Ta24  1  0.85660236  0.37248435  0.88735089  1
  Ta5+  Ta25  1  0.64091345  0.37996608  0.40287293  1
  Ta5+  Ta26  1  0.33288403  0.13039887  0.35747569  1
  Ta5+  Ta27  1  0.54591000  0.41510978  0.61642343  1
  Ta5+  Ta28  1  0.35144774  0.12206979  0.85534710  1
  Ta5+  Ta29  1  0.15511314  0.12219888  0.62551384  1
  Ta5+  Ta30  1  0.15380946  0.37429698  0.36824410  1
  Ta5+  Ta31  1  0.40193651  0.12952993  0.60232856  1
  Ta5+  Ta32  1  0.16333807  0.07639504  0.11418430  1
  Ta5+  Ta33  1  0.61439754  0.87532117  0.64084190  1
  Ta5+  Ta34  1  0.09553699  0.37323790  0.86566643  1
  Ta5+  Ta35  1  0.31779545  0.37718470  0.12715963  1
  Ta5+  Ta36  1  0.64733263  0.61259643  0.13232039  1
  Ta5+  Ta37  1  0.37021731  0.89431605  0.36269659  1
  Ta5+  Ta38  1  0.88832981  0.10541803  0.38671707  1
  Ta5+  Ta39  1  0.60779303  0.37790918  0.86213160  1
  Ta5+  Ta40  1  0.13024516  0.87778424  0.64093297  1
  Ta5+  Ta41  1  0.32197014  0.38260683  0.35360760  1
  Ta5+  Ta42  1  0.85102397  0.87882775  0.90253898  1
  Ta5+  Ta43  1  0.66192471  0.89255989  0.10869069  1
  Ta5+  Ta44  1  0.10026112  0.86683335  0.85413350  1
  Ta5+  Ta45  1  0.13794901  0.60017989  0.61701523  1
  Ta5+  Ta46  1  0.86603363  0.11791377  0.13647440  1
  Ta5+  Ta47  1  0.61030269  0.88806834  0.86401458  1
  Ta5+  Ta48  1  0.36413424  0.91495733  0.10663562  1
  Ta5+  Ta49  1  0.39270250  0.60308819  0.10910537  1
  Ta5+  Ta50  1  0.66480301  0.13788454  0.11586402  1
  Ta5+  Ta51  1  0.15153448  0.57308436  0.12489801  1
  Ta5+  Ta52  1  0.87240385  0.86921809  0.13040554  1
  Ta5+  Ta53  1  0.10978586  0.35644013  0.61909627  1
  Ta5+  Ta54  1  0.12044407  0.61804385  0.36824018  1
  Ta5+  Ta55  1  0.37748827  0.14350622  0.11121917  1
  Ta5+  Ta56  1  0.59322993  0.88646426  0.42966991  1
  Ta5+  Ta57  1  0.16491892  0.12329129  0.36630191  1
  Ta5+  Ta58  1  0.64246750  0.12132860  0.36955218  1
  Ta5+  Ta59  1  0.94496871  0.36283267  0.64429951  1
  Ta5+  Ta60  1  0.10239355  0.11476542  0.85660425  1
  Ta5+  Ta61  1  0.09504333  0.87355569  0.12381648  1
  Ta5+  Ta62  1  0.60018537  0.13604866  0.87453064  1
  Ta5+  Ta63  1  0.91758737  0.87535936  0.66499437  1
  Ta5+  Ta64  1  0.67237981  0.37698197  0.09941665  1
  Ta5+  Ta65  1  0.37387761  0.39719361  0.60793187  1
  Ta5+  Ta66  1  0.10348076  0.60990766  0.82606520  1
  Ta5+  Ta67  1  0.89392329  0.37483590  0.40305856  1
  Ta5+  Ta68  1  0.57824330  0.12202734  0.61348902  1
  Ta5+  Ta69  1  0.62685304  0.59997936  0.61633772  1
  Ta5+  Ta70  1  0.40810535  0.88199233  0.61217239  1
  Ta5+  Ta71  1  0.86829842  0.60988080  0.87372295  1
  Ta5+  Ta72  1  0.92193277  0.61170830  0.64625697  1
  Ta5+  Ta73  1  0.12618900  0.89285108  0.37988499  1
  Ta5+  Ta74  1  0.33561863  0.38845365  0.86448176  1
  W6+  W75  1  0.60565438  0.62109481  0.85916610  1
  W6+  W76  1  0.86627504  0.61904705  0.39812683  1
  W6+  W77  1  0.81843199  0.60721210  0.14203256  1
  W6+  W78  1  0.84068829  0.12839248  0.91495274  1
  W6+  W79  1  0.91196866  0.12493531  0.65308628  1
  W6+  W80  1  0.60678194  0.63122960  0.40665429  1
  W6+  W81  1  0.87839669  0.87531944  0.39870505  1
  W6+  W82  1  0.42046232  0.58023821  0.59209413  1
  O2-  O83  1  0.07281814  -0.00975511  0.09457917  1
  O2-  O84  1  0.11434968  0.01094443  0.39470473  1
  O2-  O85  1  0.16786629  -0.00730905  0.63086139  1
  O2-  O86  1  0.09490817  -0.00942269  0.87272274  1
  O2-  O87  1  0.07924971  0.48530814  0.09154409  1
  O2-  O88  1  0.12038105  0.49915599  0.38467048  1
  O2-  O89  1  0.13175997  0.48092922  0.61599015  1
  O2-  O90  1  0.12164524  0.49806834  0.87168616  1
  O2-  O91  1  0.42547466  0.01958862  0.11299833  1
  O2-  O92  1  0.38282926  0.01110388  0.33931592  1
  O2-  O93  1  0.39116174  0.00008311  0.61707538  1
  O2-  O94  1  0.36286980  -0.00378307  0.86415850  1
  O2-  O95  1  0.40486033  0.48662087  0.11395649  1
  O2-  O96  1  0.37232479  0.50172703  0.33481719  1
  O2-  O97  1  0.31773297  0.50497255  0.62293143  1
  O2-  O98  1  0.36648126  0.50771935  0.87411764  1
  O2-  O99  1  0.65265737  0.01415716  0.13068101  1
  O2-  O100  1  0.62087049  -0.00986380  0.37365586  1
  O2-  O101  1  0.59369139  0.00586632  0.63109959  1
  O2-  O102  1  0.58871263  0.01418494  0.86705836  1
  O2-  O103  1  0.63460958  0.48773706  0.14118562  1
  O2-  O104  1  0.63180959  0.49810551  0.39765353  1
  O2-  O105  1  0.66027607  0.48381932  0.60252813  1
  O2-  O106  1  0.57253237  0.49016755  0.85637002  1
  O2-  O107  1  0.86509894  -0.00482247  0.13647797  1
  O2-  O108  1  0.93537828  -0.00306269  0.38737100  1
  O2-  O109  1  0.90933644  -0.00559094  0.66776052  1
  O2-  O110  1  0.83169140  -0.00527474  0.90523808  1
  O2-  O111  1  0.88046533  0.48499359  0.14674073  1
  O2-  O112  1  0.90611455  0.49265498  0.39871243  1
  O2-  O113  1  0.92082049  0.48672495  0.64701403  1
  O2-  O114  1  0.82957710  0.49406783  0.87506762  1
  O2-  O115  1  0.09005633  0.25470776  0.13468381  1
  O2-  O116  1  0.13239661  0.24420478  0.35216361  1
  O2-  O117  1  0.17143981  0.24532282  0.65051726  1
  O2-  O118  1  0.07353217  0.23935144  0.87127640  1
  O2-  O119  1  0.20378849  0.81090964  0.11883337  1
  O2-  O120  1  0.14078424  0.75592906  0.36612658  1
  O2-  O121  1  0.14733970  0.74566177  0.63149784  1
  O2-  O122  1  0.13519908  0.72927115  0.85629423  1
  O2-  O123  1  0.42142812  0.25727465  0.09946429  1
  O2-  O124  1  0.32563755  0.25623174  0.36774147  1
  O2-  O125  1  0.38322287  0.26180107  0.60707185  1
  O2-  O126  1  0.35722977  0.25518484  0.86265318  1
  O2-  O127  1  0.45692960  0.82977571  0.10379216  1
  O2-  O128  1  0.34410361  0.76003211  0.36270276  1
  O2-  O129  1  0.34263848  0.77397173  0.60490674  1
  O2-  O130  1  0.33176968  0.74514009  0.87164111  1
  O2-  O131  1  0.62218355  0.26529590  0.13238084  1
  O2-  O132  1  0.67324636  0.23967115  0.39633676  1
  O2-  O133  1  0.68786607  0.19491521  0.61736293  1
  O2-  O134  1  0.55138823  0.26187703  0.87350407  1
  O2-  O135  1  0.64279517  0.75443186  0.09696130  1
  O2-  O136  1  0.63834785  0.77457848  0.40034760  1
  O2-  O137  1  0.63899636  0.75548564  0.62284981  1
  O2-  O138  1  0.63612720  0.76190906  0.88562823  1
  O2-  O139  1  0.90669464  0.25630254  0.13466155  1
  O2-  O140  1  0.89341879  0.23757196  0.38786329  1
  O2-  O141  1  0.86914975  0.25778349  0.62503957  1
  O2-  O142  1  0.86541379  0.26025598  0.93900835  1
  O2-  O143  1  0.83232345  0.74647026  0.11665315  1
  O2-  O144  1  0.82173088  0.74931366  0.40197709  1
  O2-  O145  1  0.94493089  0.74208249  0.65058643  1
  O2-  O146  1  0.86272106  0.74105603  0.90281779  1
  O2-  O147  1  0.12722166  0.13341474  0.00067558  1
  O2-  O148  1  0.13780867  0.10343868  0.23154979  1
  O2-  O149  1  0.16153120  0.13867776  0.50193173  1
  O2-  O150  1  0.08060876  0.11548536  0.73489960  1
  O2-  O151  1  0.10616868  0.65924942  0.04272861  1
  O2-  O152  1  0.11044827  0.61888289  0.23196899  1
  O2-  O153  1  0.17028554  0.63218338  0.49393147  1
  O2-  O154  1  0.19717236  0.60895228  0.73464167  1
  O2-  O155  1  0.36453651  0.13008483  -0.01700373  1
  O2-  O156  1  0.39297405  0.15378231  0.23835012  1
  O2-  O157  1  0.36555086  0.12905542  0.47983888  1
  O2-  O158  1  0.38407949  0.13249186  0.73556556  1
  O2-  O159  1  0.41054772  0.64943852  -0.00956030  1
  O2-  O160  1  0.36864706  0.66895322  0.21685735  1
  O2-  O161  1  0.35261556  0.62725634  0.47773872  1
  O2-  O162  1  0.39440328  0.64411267  0.73552134  1
  O2-  O163  1  0.59994569  0.14139057  0.00342052  1
  O2-  O164  1  0.59330630  0.14123304  0.25526652  1
  O2-  O165  1  0.58259017  0.12213507  0.48003598  1
  O2-  O166  1  0.56911182  0.14852092  0.74495284  1
  O2-  O167  1  0.63477697  0.61558290  0.00250892  1
  O2-  O168  1  0.63434915  0.66049696  0.25550276  1
  O2-  O169  1  0.69811263  0.62783754  0.51088450  1
  O2-  O170  1  0.65460887  0.62422844  0.73243991  1
  O2-  O171  1  0.93406895  0.12091903  0.02776173  1
  O2-  O172  1  0.92431894  0.12254559  0.25306515  1
  O2-  O173  1  0.87593373  0.11807634  0.51272246  1
  O2-  O174  1  0.87647237  0.15488769  0.78083305  1
  O2-  O175  1  0.84417582  0.61116789  0.00173704  1
  O2-  O176  1  0.81526276  0.62831931  0.27850296  1
  O2-  O177  1  0.86519593  0.64172849  0.53841896  1
  O2-  O178  1  0.85110075  0.62746664  0.75040085  1
  O2-  O179  1  0.13214476  0.34659525  -0.00568439  1
  O2-  O180  1  0.10257703  0.38195706  0.25001236  1
  O2-  O181  1  0.13742041  0.34251166  0.49580609  1
  O2-  O182  1  0.05141823  0.37070006  0.74505765  1
  O2-  O183  1  0.10816327  0.84273301  -0.01675270  1
  O2-  O184  1  0.10508441  0.88931628  0.24685334  1
  O2-  O185  1  0.15935279  0.86163698  0.50435444  1
  O2-  O186  1  0.18949426  0.86425044  0.76261202  1
  O2-  O187  1  0.31789334  0.37011716  -0.00460515  1
  O2-  O188  1  0.37752358  0.35452574  0.23620618  1
  O2-  O189  1  0.34648307  0.38676956  0.47978489  1
  O2-  O190  1  0.37683861  0.38431476  0.74414551  1
  O2-  O191  1  0.32260782  0.86937537  -0.00783861  1
  O2-  O192  1  0.34837543  0.87084278  0.22270105  1
  O2-  O193  1  0.35488807  0.88906160  0.48608783  1
  O2-  O194  1  0.35240765  0.86902563  0.74049340  1
  O2-  O195  1  0.61329263  0.37934648  -0.00837770  1
  O2-  O196  1  0.57411133  0.35678588  0.30545619  1
  O2-  O197  1  0.57342270  0.35870281  0.50339387  1
  O2-  O198  1  0.57801643  0.36315468  0.73002545  1
  O2-  O199  1  0.59767657  0.89176382  0.00123855  1
  O2-  O200  1  0.63249550  0.85777600  0.22539003  1
  O2-  O201  1  0.68000459  0.89264503  0.52536033  1
  O2-  O202  1  0.66959771  0.88984258  0.75451482  1
  O2-  O203  1  0.97712738  0.38935302  -0.08063391  1
  O2-  O204  1  0.92204956  0.36079170  0.27516883  1
  O2-  O205  1  0.94787316  0.35989444  0.51343311  1
  O2-  O206  1  0.87934567  0.34816193  0.76896180  1
  O2-  O207  1  0.76965597  0.87865759  0.03745937  1
  O2-  O208  1  0.85823202  0.85990733  0.25448479  1
  O2-  O209  1  0.86413762  0.85864682  0.54855556  1
  O2-  O210  1  0.86189189  0.85992397  0.77871452  1
  O2-  O211  1  -0.07006255  -0.13847009  0.00395675  1
  O2-  O212  1  -0.00468101  -0.19511738  0.14047108  1
  O2-  O213  1  0.02176926  -0.11541529  0.58248898  1
  O2-  O214  1  0.03292103  -0.13143203  0.74441377  1
  O2-  O215  1  -0.00884453  0.62056324  -0.10568136  1
  O2-  O216  1  0.00380012  0.65485384  0.39011153  1
  O2-  O217  1  0.02545703  0.61585812  0.56399759  1
  O2-  O218  1  0.03586624  0.60024267  0.72343286  1
  O2-  O219  1  0.25034877  -0.01007155  0.11209615  1
  O2-  O220  1  0.25686655  0.16829935  0.11042461  1
  O2-  O221  1  0.24320026  -0.10678125  0.34648399  1
  O2-  O222  1  0.22613272  0.13037933  0.85430396  1
  O2-  O223  1  0.26656503  0.62874409  0.08375449  1
  O2-  O224  1  0.23469452  0.47558865  0.15120612  1
  O2-  O225  1  0.24455118  0.62661699  0.32788433  1
  O2-  O226  1  0.21723462  0.35135990  0.84023944  1
  O2-  O227  1  0.48578896  -0.14658170  -0.11732692  1
  O2-  O228  1  0.49162343  -0.13874055  0.34918562  1
  O2-  O229  1  0.51511023  -0.12095962  0.53019112  1
  O2-  O230  1  0.50367342  -0.14570493  0.69145133  1
  O2-  O231  1  0.51127892  0.64582089  0.12804517  1
  O2-  O232  1  0.48754218  0.65550769  0.34168304  1
  O2-  O233  1  0.53372481  0.63320464  0.53244427  1
  O2-  O234  1  0.52051732  0.53115931  0.67000534  1
  O2-  O235  1  0.76612113  0.12837191  0.04097720  1
  O2-  O236  1  0.76034370  0.15931958  0.19673521  1
  O2-  O237  1  0.76474391  0.09479764  0.37353760  1
  O2-  O238  1  0.71615602  0.15632892  0.85130991  1
  O2-  O239  1  0.78435842  0.37464174  0.04410177  1
  O2-  O240  1  0.74611209  0.36322107  0.21394229  1
  O2-  O241  1  0.77142231  0.36951221  0.43047022  1
  O2-  O242  1  0.72698212  0.34955342  0.84862291  1
