# generated using pymatgen
data_Gd19Ta56(WO20)8
_symmetry_space_group_name_H-M   'P 1'
_cell_length_a   15.53866183
_cell_length_b   15.60525877
_cell_length_c   15.27852347
_cell_angle_alpha   90.04355853
_cell_angle_beta   89.95301829
_cell_angle_gamma   89.71249806
_symmetry_Int_Tables_number   1
_chemical_formula_structural   Gd19Ta56(WO20)8
_chemical_formula_sum   'Gd19 Ta56 W8 O160'
_cell_volume   3704.76132978
_cell_formula_units_Z   1
loop_
 _symmetry_equiv_pos_site_id
 _symmetry_equiv_pos_as_xyz
  1  'x, y, z'
loop_
 _atom_type_symbol
 _atom_type_oxidation_number
  Gd3+  3.0
  Ta5+  5.0
  W6+  6.0
  O2-  -2.0
loop_
 _atom_site_type_symbol
 _atom_site_label
 _atom_site_symmetry_multiplicity
 _atom_site_fract_x
 _atom_site_fract_y
 _atom_site_fract_z
 _atom_site_occupancy
  Gd3+  Gd0  1  0.51417642  0.24696170  0.50085863  1
  Gd3+  Gd1  1  0.48349559  0.25279435  -0.01983279  1
  Gd3+  Gd2  1  0.22180782  0.76520556  0.49304862  1
  Gd3+  Gd3  1  0.73963063  0.24374122  0.76779064  1
  Gd3+  Gd4  1  0.23920373  0.76869983  0.23750039  1
  Gd3+  Gd5  1  0.72597535  0.26586736  0.24783479  1
  Gd3+  Gd6  1  0.74710906  0.75886615  0.00138637  1
  Gd3+  Gd7  1  0.01220563  0.25478815  0.25124825  1
  Gd3+  Gd8  1  -0.00400014  0.26202862  0.75254295  1
  Gd3+  Gd9  1  0.74856453  0.75451585  0.75070310  1
  Gd3+  Gd10  1  0.55675437  0.74610030  0.50756967  1
  Gd3+  Gd11  1  0.24316958  0.74831920  -0.00555939  1
  Gd3+  Gd12  1  0.01184935  0.72613235  0.00079528  1
  Gd3+  Gd13  1  0.00189815  0.71200318  0.25951043  1
  Gd3+  Gd14  1  0.23212271  0.74399947  0.74753707  1
  Gd3+  Gd15  1  0.46504445  0.74049859  0.04099433  1
  Gd3+  Gd16  1  0.75681879  0.75776990  0.25041703  1
  Gd3+  Gd17  1  0.29775933  0.24111608  0.73537375  1
  Gd3+  Gd18  1  0.01288613  0.24528829  0.49878342  1
  Ta5+  Ta19  1  0.07085074  0.87596819  0.37028100  1
  Ta5+  Ta20  1  0.10208630  0.88766637  0.86882203  1
  Ta5+  Ta21  1  0.32359248  0.63264047  0.36420235  1
  Ta5+  Ta22  1  0.90311765  0.87660761  0.36754494  1
  Ta5+  Ta23  1  0.19455004  0.36210965  0.87474829  1
  Ta5+  Ta24  1  0.61618014  0.37233066  0.65596332  1
  Ta5+  Ta25  1  0.86397561  0.37315886  0.08513566  1
  Ta5+  Ta26  1  0.88261021  0.40408573  0.87253141  1
  Ta5+  Ta27  1  0.89928985  0.91665950  0.86864340  1
  Ta5+  Ta28  1  0.41397999  0.62387162  0.84864424  1
  Ta5+  Ta29  1  0.88716862  0.61507943  0.85591608  1
  Ta5+  Ta30  1  0.15205195  0.36755512  0.37755132  1
  Ta5+  Ta31  1  0.60554101  0.87869019  0.87773237  1
  Ta5+  Ta32  1  0.12458178  0.59347152  0.12164780  1
  Ta5+  Ta33  1  0.36419770  0.62771432  0.61037461  1
  Ta5+  Ta34  1  0.37937332  0.36037700  0.13280046  1
  Ta5+  Ta35  1  0.60880703  0.87985824  0.14012788  1
  Ta5+  Ta36  1  0.87273243  0.38623323  0.41164023  1
  Ta5+  Ta37  1  0.35731498  0.12688826  0.11987235  1
  Ta5+  Ta38  1  0.08937704  0.57130722  0.86497130  1
  Ta5+  Ta39  1  0.37554186  0.38035997  0.60947913  1
  Ta5+  Ta40  1  0.59182231  0.88104005  0.66182795  1
  Ta5+  Ta41  1  0.66003892  0.37541882  0.91687342  1
  Ta5+  Ta42  1  0.62161623  0.61808973  0.88539101  1
  Ta5+  Ta43  1  0.09796761  0.88050793  0.12622676  1
  Ta5+  Ta44  1  0.38535854  0.11200443  0.86412601  1
  Ta5+  Ta45  1  0.14210830  0.09990890  0.37240649  1
  Ta5+  Ta46  1  0.83583388  0.12439578  0.11460754  1
  Ta5+  Ta47  1  0.87660864  0.12623593  0.62398012  1
  Ta5+  Ta48  1  0.70174346  0.61803626  0.40226001  1
  Ta5+  Ta49  1  0.88409288  0.12411424  0.36311829  1
  Ta5+  Ta50  1  0.86845558  0.60764565  0.11574473  1
  Ta5+  Ta51  1  0.15352441  0.61517319  0.37184516  1
  Ta5+  Ta52  1  0.85683489  0.38590459  0.61835923  1
  Ta5+  Ta53  1  0.14448351  0.11780981  0.86982552  1
  Ta5+  Ta54  1  0.62633383  0.12335828  0.13460915  1
  Ta5+  Ta55  1  0.59962135  0.61775105  0.66318449  1
  Ta5+  Ta56  1  0.14386566  0.36573907  0.11844763  1
  Ta5+  Ta57  1  0.09177720  0.87606244  0.62637842  1
  Ta5+  Ta58  1  0.35795283  0.88141858  0.61997019  1
  Ta5+  Ta59  1  0.32008379  0.92046876  0.36946577  1
  Ta5+  Ta60  1  0.86960545  0.63299231  0.60131834  1
  Ta5+  Ta61  1  0.62527490  0.61856219  0.14569007  1
  Ta5+  Ta62  1  0.88617757  0.88378955  0.11818470  1
  Ta5+  Ta63  1  0.40087885  0.87037623  0.86385647  1
  Ta5+  Ta64  1  0.36581279  0.58572555  0.13367789  1
  Ta5+  Ta65  1  0.38701202  0.38873259  0.36860100  1
  Ta5+  Ta66  1  0.65026452  0.12110606  0.38738886  1
  Ta5+  Ta67  1  0.13169426  0.37985456  0.63175762  1
  Ta5+  Ta68  1  0.35310235  0.90300673  0.11472047  1
  Ta5+  Ta69  1  0.86261368  0.61659737  0.37162337  1
  Ta5+  Ta70  1  0.63029888  0.11911069  0.64660857  1
  Ta5+  Ta71  1  0.87865395  0.14761160  0.88672396  1
  Ta5+  Ta72  1  0.66450363  0.38229064  0.40857720  1
  Ta5+  Ta73  1  0.37316754  0.13431973  0.37220240  1
  Ta5+  Ta74  1  0.11321895  0.11956399  0.62944011  1
  W6+  W75  1  0.58524133  0.38117533  0.15702518  1
  W6+  W76  1  0.37594213  0.11408228  0.60862168  1
  W6+  W77  1  0.10363400  0.12602865  0.11085702  1
  W6+  W78  1  0.67047894  0.87624624  0.40100878  1
  W6+  W79  1  0.35630232  0.38211449  0.87106389  1
  W6+  W80  1  0.10929536  0.61725689  0.62156163  1
  W6+  W81  1  0.66173075  0.11853294  0.91480460  1
  W6+  W82  1  0.85438168  0.87960014  0.61759182  1
  O2-  O83  1  0.10192978  -0.00408224  0.11500122  1
  O2-  O84  1  0.06902090  0.00260938  0.37774999  1
  O2-  O85  1  0.09894266  -0.00264824  0.62693106  1
  O2-  O86  1  0.15351822  -0.00816039  0.89739187  1
  O2-  O87  1  0.08864852  0.47355938  0.10292612  1
  O2-  O88  1  0.15276696  0.48669274  0.38112733  1
  O2-  O89  1  0.08032354  0.48645772  0.62832017  1
  O2-  O90  1  0.17306123  0.48705405  0.88523434  1
  O2-  O91  1  0.40506490  0.01307904  0.11277713  1
  O2-  O92  1  0.40535809  0.00409009  0.36483441  1
  O2-  O93  1  0.32806334  -0.00654396  0.64140552  1
  O2-  O94  1  0.41206321  -0.01022260  0.86630636  1
  O2-  O95  1  0.42154403  0.47940619  0.12703756  1
  O2-  O96  1  0.36129994  0.50506085  0.36088863  1
  O2-  O97  1  0.36694516  0.50733259  0.60958352  1
  O2-  O98  1  0.37207177  0.52042188  0.87763267  1
  O2-  O99  1  0.60432664  0.00051494  0.14063422  1
  O2-  O100  1  0.68199666  0.00821650  0.39444247  1
  O2-  O101  1  0.58283060  0.00546038  0.65276038  1
  O2-  O102  1  0.61685457  -0.00789806  0.90224848  1
  O2-  O103  1  0.63729952  0.50210754  0.13268932  1
  O2-  O104  1  0.66231564  0.50386538  0.42100575  1
  O2-  O105  1  0.59792239  0.49355006  0.66170651  1
  O2-  O106  1  0.62980085  0.49874843  0.89619507  1
  O2-  O107  1  0.86697051  0.00700766  0.11562255  1
  O2-  O108  1  0.88575849  0.00813381  0.35367313  1
  O2-  O109  1  0.88486168  0.00925751  0.62560644  1
  O2-  O110  1  0.85024200  0.02564062  0.89107908  1
  O2-  O111  1  0.83042553  0.49203352  0.10466546  1
  O2-  O112  1  0.90635912  0.49542049  0.38046921  1
  O2-  O113  1  0.84739370  0.50777002  0.61593040  1
  O2-  O114  1  0.81878765  0.51081503  0.85708568  1
  O2-  O115  1  0.08312135  0.26142855  0.11936723  1
  O2-  O116  1  0.09886053  0.24265380  0.37557212  1
  O2-  O117  1  0.08737096  0.25163228  0.63346297  1
  O2-  O118  1  0.18751192  0.23807648  0.84840894  1
  O2-  O119  1  0.14993442  0.72668135  0.11772292  1
  O2-  O120  1  0.11805916  0.74755315  0.35853121  1
  O2-  O121  1  0.14447044  0.75368328  0.62730742  1
  O2-  O122  1  0.16612210  0.77371044  0.87245937  1
  O2-  O123  1  0.41973117  0.23938829  0.12118536  1
  O2-  O124  1  0.42233859  0.24698253  0.37893985  1
  O2-  O125  1  0.39822131  0.25446012  0.60141579  1
  O2-  O126  1  0.38188703  0.24296800  0.86366013  1
  O2-  O127  1  0.33423166  0.77598569  0.11656553  1
  O2-  O128  1  0.31183153  0.77647413  0.36649767  1
  O2-  O129  1  0.31984703  0.75617157  0.61192192  1
  O2-  O130  1  0.36325609  0.73730643  0.88339656  1
  O2-  O131  1  0.61186750  0.24526169  0.15849162  1
  O2-  O132  1  0.63393621  0.25638115  0.40327537  1
  O2-  O133  1  0.59010963  0.24229291  0.64687458  1
  O2-  O134  1  0.68121231  0.25279890  0.90900136  1
  O2-  O135  1  0.64985170  0.74791688  0.13538873  1
  O2-  O136  1  0.66431899  0.74023382  0.40529058  1
  O2-  O137  1  0.61045489  0.75025985  0.67330110  1
  O2-  O138  1  0.64631556  0.75187420  0.87901643  1
  O2-  O139  1  0.80258075  0.26997437  0.11720945  1
  O2-  O140  1  0.91853911  0.27080538  0.37398812  1
  O2-  O141  1  0.90223564  0.25955129  0.62883977  1
  O2-  O142  1  0.86077731  0.27622912  0.85830636  1
  O2-  O143  1  0.83948916  0.73951445  0.11959804  1
  O2-  O144  1  0.88178171  0.74483445  0.35687109  1
  O2-  O145  1  0.81615433  0.74499690  0.61804429  1
  O2-  O146  1  0.81596442  0.71328985  0.87609439  1
  O2-  O147  1  0.09326941  0.14388580  -0.02534647  1
  O2-  O148  1  0.11421764  0.12822029  0.25391837  1
  O2-  O149  1  0.11586360  0.12635233  0.49966638  1
  O2-  O150  1  0.08415798  0.12675468  0.76064829  1
  O2-  O151  1  0.12080186  0.62247817  -0.01830563  1
  O2-  O152  1  0.11362516  0.60356362  0.24579318  1
  O2-  O153  1  0.14816267  0.63451541  0.49666629  1
  O2-  O154  1  0.13891787  0.61760177  0.76312350  1
  O2-  O155  1  0.39238751  0.13093680  -0.00956071  1
  O2-  O156  1  0.36743533  0.12946511  0.24602040  1
  O2-  O157  1  0.42598457  0.11868685  0.48750070  1
  O2-  O158  1  0.40198807  0.13029973  0.73956676  1
  O2-  O159  1  0.35761920  0.63845406  0.02145796  1
  O2-  O160  1  0.35565053  0.65012991  0.23790068  1
  O2-  O161  1  0.33752442  0.64067802  0.49009093  1
  O2-  O162  1  0.34617234  0.64218568  0.74138224  1
  O2-  O163  1  0.57004096  0.14169592  0.02253428  1
  O2-  O164  1  0.59022024  0.12295577  0.28048787  1
  O2-  O165  1  0.60855539  0.12677898  0.51038648  1
  O2-  O166  1  0.64920121  0.12818899  0.77182284  1
  O2-  O167  1  0.66502200  0.63324503  0.00839407  1
  O2-  O168  1  0.66434355  0.62715179  0.26484448  1
  O2-  O169  1  0.64140356  0.63239836  0.54612028  1
  O2-  O170  1  0.68246947  0.62086003  0.76696426  1
  O2-  O171  1  0.89691028  0.16293890  0.01301775  1
  O2-  O172  1  0.90122649  0.15237445  0.23179710  1
  O2-  O173  1  0.89898732  0.13779327  0.49210609  1
  O2-  O174  1  0.89414222  0.14224405  0.75462168  1
  O2-  O175  1  0.89659210  0.62312915  -0.01000672  1
  O2-  O176  1  0.86910200  0.61288860  0.24220511  1
  O2-  O177  1  0.80243267  0.62499656  0.49343390  1
  O2-  O178  1  0.87865084  0.63384134  0.73233344  1
  O2-  O179  1  0.17702990  0.34999000  0.00028798  1
  O2-  O180  1  0.11536829  0.36464608  0.25453734  1
  O2-  O181  1  0.11859152  0.35659595  0.49981155  1
  O2-  O182  1  0.12095283  0.36592207  0.75914738  1
  O2-  O183  1  0.13034991  0.85295025  0.00400618  1
  O2-  O184  1  0.13067707  0.87433890  0.25011023  1
  O2-  O185  1  0.10893135  0.86711349  0.49896739  1
  O2-  O186  1  0.14540421  0.87557278  0.74746820  1
  O2-  O187  1  0.38016207  0.36057773  0.00931207  1
  O2-  O188  1  0.42803487  0.36636957  0.25313521  1
  O2-  O189  1  0.43009791  0.38436219  0.48739834  1
  O2-  O190  1  0.37586208  0.37267552  0.73310468  1
  O2-  O191  1  0.33690668  0.87563907  -0.01930941  1
  O2-  O192  1  0.31873931  0.90176804  0.23740174  1
  O2-  O193  1  0.32158036  0.89056073  0.49659287  1
  O2-  O194  1  0.33967482  0.85249181  0.75429170  1
  O2-  O195  1  0.58056265  0.36328323  0.00975341  1
  O2-  O196  1  0.61304190  0.38328755  0.29501854  1
  O2-  O197  1  0.60489961  0.37039757  0.52771589  1
  O2-  O198  1  0.63472972  0.35903677  0.78945474  1
  O2-  O199  1  0.64961614  0.86835098  0.01903600  1
  O2-  O200  1  0.66305992  0.87117484  0.25221583  1
  O2-  O201  1  0.63749356  0.86557643  0.54473074  1
  O2-  O202  1  0.67297855  0.88394739  0.76378732  1
  O2-  O203  1  0.93877530  0.37811902  -0.01486299  1
  O2-  O204  1  0.94000675  0.36225683  0.17581674  1
  O2-  O205  1  0.94271192  0.38029942  0.52242248  1
  O2-  O206  1  0.90833783  0.38921164  0.74304870  1
  O2-  O207  1  0.85133180  0.87308215  -0.01177206  1
  O2-  O208  1  0.85335046  0.87209002  0.23863271  1
  O2-  O209  1  0.88031198  0.87399361  0.48651767  1
  O2-  O210  1  0.84848885  0.86778949  0.77026846  1
  O2-  O211  1  -0.00817336  -0.16313292  -0.08807414  1
  O2-  O212  1  -0.00953040  -0.19219100  0.13288224  1
  O2-  O213  1  -0.01771340  -0.15446317  0.64792973  1
  O2-  O214  1  0.00408496  -0.04229552  0.81677452  1
  O2-  O215  1  0.00122802  0.66952376  -0.13772286  1
  O2-  O216  1  -0.00283360  0.63268277  0.12656933  1
  O2-  O217  1  -0.01810334  0.64493461  0.57232014  1
  O2-  O218  1  -0.01583788  0.50488224  0.86073304  1
  O2-  O219  1  0.24217158  0.13190518  0.10542622  1
  O2-  O220  1  0.23145462  0.00099968  0.36994253  1
  O2-  O221  1  0.25870821  0.15851861  0.39442384  1
  O2-  O222  1  0.26751305  0.09607541  0.84810480  1
  O2-  O223  1  0.24564420  0.55946978  0.12828498  1
  O2-  O224  1  0.26088660  0.36451059  0.16150635  1
  O2-  O225  1  0.27131951  0.34592222  0.37289151  1
  O2-  O226  1  0.25207411  0.35804847  0.61508305  1
  O2-  O227  1  0.50024736  -0.16098118  -0.05945189  1
  O2-  O228  1  0.48812615  -0.14085982  0.13360278  1
  O2-  O229  1  0.47657535  -0.14706903  0.60672035  1
  O2-  O230  1  0.51349899  -0.13031065  0.78436052  1
  O2-  O231  1  0.50918667  0.64490411  -0.06192988  1
  O2-  O232  1  0.50268628  0.63396334  0.13654317  1
  O2-  O233  1  0.48402976  0.65340599  0.61040908  1
  O2-  O234  1  0.52071748  0.61476345  0.78151892  1
  O2-  O235  1  0.72469524  0.11005632  0.04525897  1
  O2-  O236  1  0.73759714  0.12503144  0.20174646  1
  O2-  O237  1  0.76622910  0.16683503  0.36717790  1
  O2-  O238  1  0.75156545  0.15057897  0.63002843  1
  O2-  O239  1  0.77361325  0.39028959  -0.03754418  1
  O2-  O240  1  0.77491595  0.37451098  0.33147586  1
  O2-  O241  1  0.77940229  0.37475107  0.49725256  1
  O2-  O242  1  0.74292779  0.35036802  0.66046761  1
