# generated using pymatgen
data_Gd19Ta56(WO20)8
_symmetry_space_group_name_H-M   'P 1'
_cell_length_a   15.59172743
_cell_length_b   15.51725894
_cell_length_c   15.17050249
_cell_angle_alpha   89.94465291
_cell_angle_beta   90.05400360
_cell_angle_gamma   90.01693286
_symmetry_Int_Tables_number   1
_chemical_formula_structural   Gd19Ta56(WO20)8
_chemical_formula_sum   'Gd19 Ta56 W8 O160'
_cell_volume   3670.36109802
_cell_formula_units_Z   1
loop_
 _symmetry_equiv_pos_site_id
 _symmetry_equiv_pos_as_xyz
  1  'x, y, z'
loop_
 _atom_type_symbol
 _atom_type_oxidation_number
  Gd3+  3.0
  Ta5+  5.0
  W6+  6.0
  O2-  -2.0
loop_
 _atom_site_type_symbol
 _atom_site_label
 _atom_site_symmetry_multiplicity
 _atom_site_fract_x
 _atom_site_fract_y
 _atom_site_fract_z
 _atom_site_occupancy
  Gd3+  Gd0  1  0.74834906  0.25158804  0.02141289  1
  Gd3+  Gd1  1  0.46635480  0.75704780  0.26004485  1
  Gd3+  Gd2  1  0.00718928  0.23769749  0.75093092  1
  Gd3+  Gd3  1  0.76705843  0.74723866  0.73394050  1
  Gd3+  Gd4  1  0.40489485  0.78943863  0.75479774  1
  Gd3+  Gd5  1  0.48621370  0.24951765  0.47019172  1
  Gd3+  Gd6  1  0.04020169  0.74680315  0.50727363  1
  Gd3+  Gd7  1  -0.00018533  0.74650444  0.02524468  1
  Gd3+  Gd8  1  0.26048391  0.23604916  0.75057715  1
  Gd3+  Gd9  1  0.74481990  0.25352349  0.27787413  1
  Gd3+  Gd10  1  0.49255310  0.24996220  -0.00476666  1
  Gd3+  Gd11  1  0.51318099  0.24213331  0.73259081  1
  Gd3+  Gd12  1  0.23585278  0.25320354  0.00926430  1
  Gd3+  Gd13  1  0.75714830  0.74709093  -0.01297867  1
  Gd3+  Gd14  1  -0.00771542  0.24874325  0.00791240  1
  Gd3+  Gd15  1  0.26956430  0.74927491  0.49137755  1
  Gd3+  Gd16  1  0.24102449  0.73141172  -0.00428654  1
  Gd3+  Gd17  1  0.00858218  0.73190952  0.26785250  1
  Gd3+  Gd18  1  0.74870577  0.75234158  0.48684362  1
  Ta5+  Ta19  1  0.93666925  0.36978889  0.37634795  1
  Ta5+  Ta20  1  0.13716501  0.10909507  0.89750780  1
  Ta5+  Ta21  1  0.61514535  0.12103960  0.13771644  1
  Ta5+  Ta22  1  0.09559362  0.62612781  0.85791327  1
  Ta5+  Ta23  1  0.85549851  0.87256727  0.14442875  1
  Ta5+  Ta24  1  0.32864260  0.13451457  0.35841227  1
  Ta5+  Ta25  1  0.89012744  0.61178064  0.38877353  1
  Ta5+  Ta26  1  0.37650113  0.62199417  0.62104790  1
  Ta5+  Ta27  1  0.88385159  0.11929838  0.14750698  1
  Ta5+  Ta28  1  0.11905058  0.60435742  0.13459490  1
  Ta5+  Ta29  1  0.86763673  0.61620027  0.13496532  1
  Ta5+  Ta30  1  0.33190220  0.37231690  0.36802450  1
  Ta5+  Ta31  1  0.59414746  0.38691516  0.35679902  1
  Ta5+  Ta32  1  0.61902556  0.63358347  0.35643897  1
  Ta5+  Ta33  1  0.36055417  0.62273504  0.13322029  1
  Ta5+  Ta34  1  0.61554250  0.38140777  0.13381564  1
  Ta5+  Ta35  1  0.35327358  0.38473413  0.87253092  1
  Ta5+  Ta36  1  0.88690522  0.60867107  0.61019715  1
  Ta5+  Ta37  1  0.40993631  0.87793847  0.95164950  1
  Ta5+  Ta38  1  0.62473580  0.88031293  0.85818907  1
  Ta5+  Ta39  1  0.65950073  0.12399180  0.60879440  1
  Ta5+  Ta40  1  0.93809124  0.12711756  0.38033390  1
  Ta5+  Ta41  1  0.63067535  0.37675500  0.60787080  1
  Ta5+  Ta42  1  0.10195361  0.87244236  0.87855117  1
  Ta5+  Ta43  1  0.14347051  0.37983023  0.64521590  1
  Ta5+  Ta44  1  0.14046067  0.87110085  0.15052058  1
  Ta5+  Ta45  1  0.61421919  0.88480948  0.61490668  1
  Ta5+  Ta46  1  0.38019148  0.11796198  0.61003074  1
  Ta5+  Ta47  1  0.38130986  0.37733729  0.61816013  1
  Ta5+  Ta48  1  0.11114448  0.36521858  0.15648296  1
  Ta5+  Ta49  1  0.13826422  0.10823885  0.62103064  1
  Ta5+  Ta50  1  0.61720446  0.62465699  0.61551984  1
  Ta5+  Ta51  1  0.40832168  0.62126402  0.88207426  1
  Ta5+  Ta52  1  0.39308531  0.88910901  0.58342037  1
  Ta5+  Ta53  1  0.87394122  0.12648703  0.87565813  1
  Ta5+  Ta54  1  0.30760771  0.88028047  0.15232510  1
  Ta5+  Ta55  1  0.11837897  0.62667147  0.65867986  1
  Ta5+  Ta56  1  0.60115072  0.11323344  0.36117544  1
  Ta5+  Ta57  1  0.60923875  0.62421136  0.86528367  1
  Ta5+  Ta58  1  0.37752555  0.37609629  0.12813539  1
  Ta5+  Ta59  1  0.88613953  0.89417525  0.60559603  1
  Ta5+  Ta60  1  0.33192221  0.61192284  0.36206138  1
  Ta5+  Ta61  1  0.15015230  0.87836647  0.36904708  1
  Ta5+  Ta62  1  0.85921264  0.12707623  0.61706725  1
  Ta5+  Ta63  1  0.87095001  0.36236498  0.61923347  1
  Ta5+  Ta64  1  0.16267281  0.61150612  0.38761456  1
  Ta5+  Ta65  1  0.64648707  0.37968199  0.86981891  1
  Ta5+  Ta66  1  0.16253754  0.12200700  0.39098731  1
  Ta5+  Ta67  1  0.90118571  0.88511425  0.39648961  1
  Ta5+  Ta68  1  0.85043966  0.37459687  0.87405890  1
  Ta5+  Ta69  1  0.31401267  0.89011282  0.34004882  1
  Ta5+  Ta70  1  0.16642429  0.37231197  0.40297261  1
  Ta5+  Ta71  1  0.38048901  0.11286494  0.12080078  1
  Ta5+  Ta72  1  0.14040146  0.38555090  0.87734792  1
  Ta5+  Ta73  1  0.62937063  0.62903496  0.10826295  1
  Ta5+  Ta74  1  0.60873922  0.87358342  0.10090227  1
  W6+  W75  1  0.87400711  0.87786273  0.86953386  1
  W6+  W76  1  0.62729047  0.13158836  0.87056031  1
  W6+  W77  1  0.88756562  0.61570905  0.86650474  1
  W6+  W78  1  0.61882912  0.86658363  0.35471014  1
  W6+  W79  1  0.17588413  0.86398449  0.64760645  1
  W6+  W80  1  0.34979845  0.10600899  0.87784964  1
  W6+  W81  1  0.86613507  0.37534154  0.14476490  1
  W6+  W82  1  0.13620122  0.11666808  0.14678059  1
  O2-  O83  1  0.11556809  -0.01357908  0.13039908  1
  O2-  O84  1  0.13686200  -0.00530299  0.39417372  1
  O2-  O85  1  0.17152167  -0.00623550  0.62417384  1
  O2-  O86  1  0.12792243  -0.00953504  0.91465822  1
  O2-  O87  1  0.13812713  0.48164086  0.11853594  1
  O2-  O88  1  0.14100993  0.49651904  0.41400815  1
  O2-  O89  1  0.14687914  0.50352389  0.65135513  1
  O2-  O90  1  0.11540937  0.50354005  0.88396208  1
  O2-  O91  1  0.34133564  0.00109592  0.12144019  1
  O2-  O92  1  0.33066192  0.01346509  0.35447006  1
  O2-  O93  1  0.42853605  0.00785621  0.59918868  1
  O2-  O94  1  0.37404590  -0.03009482  0.88646148  1
  O2-  O95  1  0.36966946  0.49624376  0.11650205  1
  O2-  O96  1  0.35575405  0.49118700  0.36016317  1
  O2-  O97  1  0.38782793  0.49804708  0.63600634  1
  O2-  O98  1  0.38101538  0.50529900  0.85328885  1
  O2-  O99  1  0.61836361  -0.00018742  0.11816156  1
  O2-  O100  1  0.58022066  -0.00180372  0.35560650  1
  O2-  O101  1  0.60293414  0.00214411  0.61390044  1
  O2-  O102  1  0.62851190  -0.00240921  0.86068687  1
  O2-  O103  1  0.61790113  0.50517744  0.11477889  1
  O2-  O104  1  0.60078360  0.51484688  0.35780927  1
  O2-  O105  1  0.62526706  0.50243833  0.60563416  1
  O2-  O106  1  0.61483456  0.49647249  0.85308812  1
  O2-  O107  1  0.86887187  -0.00305673  0.13742918  1
  O2-  O108  1  0.94020657  0.00064588  0.38360887  1
  O2-  O109  1  0.91493834  0.00992043  0.61661826  1
  O2-  O110  1  0.85949608  0.01112549  0.88894451  1
  O2-  O111  1  0.83682992  0.50226186  0.12741234  1
  O2-  O112  1  0.93496628  0.49825576  0.38394436  1
  O2-  O113  1  0.89532352  0.48452769  0.61106288  1
  O2-  O114  1  0.90310865  0.48034972  0.87643520  1
  O2-  O115  1  0.17081775  0.25852174  0.14371927  1
  O2-  O116  1  0.17289920  0.24767674  0.40737380  1
  O2-  O117  1  0.13517252  0.24768335  0.66815650  1
  O2-  O118  1  0.14904085  0.24767877  0.86464574  1
  O2-  O119  1  0.09412562  0.74011369  0.14561416  1
  O2-  O120  1  0.11621948  0.73904203  0.37533121  1
  O2-  O121  1  0.10080207  0.75390958  0.64810318  1
  O2-  O122  1  0.05683743  0.74683291  0.87749034  1
  O2-  O123  1  0.36333295  0.25087117  0.08640369  1
  O2-  O124  1  0.38426555  0.25392277  0.36076584  1
  O2-  O125  1  0.41637668  0.24865861  0.61074509  1
  O2-  O126  1  0.34243118  0.25146052  0.88406267  1
  O2-  O127  1  0.37283051  0.75129345  0.13716934  1
  O2-  O128  1  0.34445843  0.74645078  0.35633271  1
  O2-  O129  1  0.37196563  0.75357942  0.60195966  1
  O2-  O130  1  0.37136137  0.76207124  0.89942247  1
  O2-  O131  1  0.65427957  0.25304443  0.14963079  1
  O2-  O132  1  0.59027797  0.25005325  0.34893897  1
  O2-  O133  1  0.59163916  0.25340613  0.60060899  1
  O2-  O134  1  0.57787803  0.26869164  0.86705909  1
  O2-  O135  1  0.59628433  0.74523768  0.07322551  1
  O2-  O136  1  0.68791681  0.74216856  0.35124132  1
  O2-  O137  1  0.66851008  0.74682906  0.61837364  1
  O2-  O138  1  0.66293422  0.74673896  0.85998994  1
  O2-  O139  1  0.82681440  0.23805050  0.15224252  1
  O2-  O140  1  0.97050408  0.24738491  0.36344878  1
  O2-  O141  1  0.92533795  0.24492342  0.62343095  1
  O2-  O142  1  0.91566966  0.26288959  0.87340605  1
  O2-  O143  1  0.90924841  0.75576108  0.15133587  1
  O2-  O144  1  0.90155404  0.74558264  0.40730742  1
  O2-  O145  1  0.86259116  0.74549401  0.60218700  1
  O2-  O146  1  0.84246424  0.74623302  0.86347650  1
  O2-  O147  1  0.10813797  0.15771214  0.01637629  1
  O2-  O148  1  0.12690930  0.12890147  0.27535033  1
  O2-  O149  1  0.09307920  0.12659816  0.50914477  1
  O2-  O150  1  0.05042015  0.10669426  0.70251214  1
  O2-  O151  1  0.11738863  0.64222454  -0.00345085  1
  O2-  O152  1  0.12064955  0.60745099  0.26104967  1
  O2-  O153  1  0.16318485  0.64438685  0.52565882  1
  O2-  O154  1  0.18266541  0.64364072  0.77242005  1
  O2-  O155  1  0.42954736  0.11757061  -0.00520668  1
  O2-  O156  1  0.32909061  0.14700332  0.22856699  1
  O2-  O157  1  0.38637085  0.13559472  0.48329457  1
  O2-  O158  1  0.40352075  0.13522052  0.73990291  1
  O2-  O159  1  0.34412512  0.62596288  -0.00885746  1
  O2-  O160  1  0.40755086  0.61750163  0.24895698  1
  O2-  O161  1  0.35051467  0.61606090  0.49755567  1
  O2-  O162  1  0.36046117  0.64942195  0.75003610  1
  O2-  O163  1  0.62609354  0.15506423  0.01300138  1
  O2-  O164  1  0.67628162  0.11953727  0.25277530  1
  O2-  O165  1  0.61175809  0.12938730  0.48808392  1
  O2-  O166  1  0.62215935  0.13884878  0.72785738  1
  O2-  O167  1  0.67665788  0.62105871  -0.02543470  1
  O2-  O168  1  0.59238733  0.64804137  0.22787968  1
  O2-  O169  1  0.63429781  0.64221852  0.48922964  1
  O2-  O170  1  0.65675373  0.62414054  0.73968156  1
  O2-  O171  1  0.87585026  0.14704007  0.01628532  1
  O2-  O172  1  0.86256632  0.12882908  0.27820363  1
  O2-  O173  1  0.88525584  0.13616752  0.48993992  1
  O2-  O174  1  0.87272842  0.13534618  0.74780108  1
  O2-  O175  1  0.87900567  0.64965780  0.00758984  1
  O2-  O176  1  0.87636592  0.62872903  0.26542002  1
  O2-  O177  1  0.81922663  0.60992582  0.50307857  1
  O2-  O178  1  0.84438480  0.61714046  0.72639746  1
  O2-  O179  1  0.09846315  0.35018021  -0.00395947  1
  O2-  O180  1  0.12785775  0.37574062  0.27623325  1
  O2-  O181  1  0.10533634  0.36864699  0.53092993  1
  O2-  O182  1  0.07489641  0.37472022  0.76104626  1
  O2-  O183  1  0.12403372  0.83811179  0.00799473  1
  O2-  O184  1  0.06950464  0.86557507  0.26349828  1
  O2-  O185  1  0.15810062  0.84613276  0.50355736  1
  O2-  O186  1  0.18005644  0.85925711  0.78964489  1
  O2-  O187  1  0.42189850  0.37889726  -0.02129990  1
  O2-  O188  1  0.32109683  0.36199529  0.23387195  1
  O2-  O189  1  0.39157085  0.37131279  0.49238034  1
  O2-  O190  1  0.40398987  0.35147353  0.75206476  1
  O2-  O191  1  0.30554801  0.86273715  0.01701041  1
  O2-  O192  1  0.40510692  0.88529925  0.24443909  1
  O2-  O193  1  0.35127711  0.88313002  0.46903601  1
  O2-  O194  1  0.31597073  0.89295585  0.68129013  1
  O2-  O195  1  0.61072426  0.35101469  0.00439190  1
  O2-  O196  1  0.66958907  0.38523903  0.25315061  1
  O2-  O197  1  0.58535919  0.37667367  0.48455060  1
  O2-  O198  1  0.59292160  0.37218088  0.72801500  1
  O2-  O199  1  0.67126442  0.87200058  -0.02321768  1
  O2-  O200  1  0.58158612  0.84950633  0.21926081  1
  O2-  O201  1  0.63838414  0.86240150  0.49586080  1
  O2-  O202  1  0.66645032  0.87139143  0.73524515  1
  O2-  O203  1  0.87707289  0.34375666  0.00679374  1
  O2-  O204  1  0.85286704  0.36292678  0.28658153  1
  O2-  O205  1  0.89675497  0.35586707  0.49041665  1
  O2-  O206  1  0.89390658  0.36266996  0.74185057  1
  O2-  O207  1  0.87935940  0.85033113  0.01323916  1
  O2-  O208  1  0.87416323  0.87133995  0.27526180  1
  O2-  O209  1  0.81362281  0.88997837  0.49927505  1
  O2-  O210  1  0.85040382  0.87364930  0.72415712  1
  O2-  O211  1  0.00931903  0.13213337  -0.12050706  1
  O2-  O212  1  -0.00129114  0.13890630  0.14772849  1
  O2-  O213  1  -0.02593909  -0.12573354  0.51494769  1
  O2-  O214  1  -0.00111493  -0.09396294  0.82975845  1
  O2-  O215  1  -0.00674703  0.60181145  0.13163044  1
  O2-  O216  1  -0.00361429  0.32951808  0.14425842  1
  O2-  O217  1  0.00473908  0.62111346  0.58512973  1
  O2-  O218  1  0.02514054  0.60731977  0.75529146  1
  O2-  O219  1  0.24968670  0.11278059  -0.02973261  1
  O2-  O220  1  0.22538003  -0.17525526  0.25170980  1
  O2-  O221  1  0.26176052  0.14870475  0.62262097  1
  O2-  O222  1  0.22219131  0.10400172  0.80209135  1
  O2-  O223  1  0.25211351  0.39331687  -0.04857572  1
  O2-  O224  1  0.23934113  0.64185295  0.12574796  1
  O2-  O225  1  0.26269117  0.35396838  0.62362155  1
  O2-  O226  1  0.23887487  0.38182561  0.79059662  1
  O2-  O227  1  0.49771329  -0.10842500  0.03788724  1
  O2-  O228  1  0.50004927  0.15040624  0.15607212  1
  O2-  O229  1  0.50407462  -0.15444800  0.65119012  1
  O2-  O230  1  0.50559264  -0.14339161  0.85516130  1
  O2-  O231  1  0.51056908  0.59720130  -0.05158924  1
  O2-  O232  1  0.49782080  0.35171499  0.14749858  1
  O2-  O233  1  0.50047531  0.63917274  0.62204060  1
  O2-  O234  1  0.50663570  0.67916372  0.81247663  1
  O2-  O235  1  0.75956102  0.17354424  -0.10856971  1
  O2-  O236  1  0.73829453  -0.14626165  0.13200980  1
  O2-  O237  1  0.75812696  0.04765983  0.61101249  1
  O2-  O238  1  0.75787245  0.20406894  0.60968304  1
  O2-  O239  1  0.74550928  0.40532952  -0.05454128  1
  O2-  O240  1  0.74645474  0.66225028  0.13016264  1
  O2-  O241  1  0.75049385  0.37208319  0.60924988  1
  O2-  O242  1  0.74338721  0.34313256  0.80219161  1
