# generated using pymatgen
data_Gd19Ta56(WO20)8
_symmetry_space_group_name_H-M   'P 1'
_cell_length_a   15.59619191
_cell_length_b   15.44467274
_cell_length_c   15.10956741
_cell_angle_alpha   90.31785431
_cell_angle_beta   90.22928202
_cell_angle_gamma   89.88146285
_symmetry_Int_Tables_number   1
_chemical_formula_structural   Gd19Ta56(WO20)8
_chemical_formula_sum   'Gd19 Ta56 W8 O160'
_cell_volume   3639.47081816
_cell_formula_units_Z   1
loop_
 _symmetry_equiv_pos_site_id
 _symmetry_equiv_pos_as_xyz
  1  'x, y, z'
loop_
 _atom_type_symbol
 _atom_type_oxidation_number
  Gd3+  3.0
  Ta5+  5.0
  W6+  6.0
  O2-  -2.0
loop_
 _atom_site_type_symbol
 _atom_site_label
 _atom_site_symmetry_multiplicity
 _atom_site_fract_x
 _atom_site_fract_y
 _atom_site_fract_z
 _atom_site_occupancy
  Gd3+  Gd0  1  0.49432522  0.22040973  0.23204166  1
  Gd3+  Gd1  1  0.23898845  0.23980086  0.50275610  1
  Gd3+  Gd2  1  0.73115698  0.74114865  0.75891369  1
  Gd3+  Gd3  1  0.23434928  0.24208122  0.74510364  1
  Gd3+  Gd4  1  0.25882442  0.25589851  0.23229524  1
  Gd3+  Gd5  1  0.50030422  0.26277577  0.74763188  1
  Gd3+  Gd6  1  0.23160727  0.75430022  0.74340714  1
  Gd3+  Gd7  1  0.00822360  0.23691953  0.53513465  1
  Gd3+  Gd8  1  -0.00321830  0.73683612  0.02247914  1
  Gd3+  Gd9  1  0.50596528  0.74790467  -0.01739815  1
  Gd3+  Gd10  1  0.46784775  0.23950895  0.46139583  1
  Gd3+  Gd11  1  0.49269911  0.77456729  0.26502384  1
  Gd3+  Gd12  1  -0.01611956  0.75011927  0.76798594  1
  Gd3+  Gd13  1  0.50007872  0.74906532  0.72953311  1
  Gd3+  Gd14  1  0.72415295  0.76192685  0.51986104  1
  Gd3+  Gd15  1  0.75842342  0.24028057  0.25225688  1
  Gd3+  Gd16  1  0.49025117  0.22545126  -0.00239364  1
  Gd3+  Gd17  1  -0.03045173  0.25614131  -0.02710184  1
  Gd3+  Gd18  1  0.50585767  0.81744336  0.50381767  1
  Ta5+  Ta19  1  0.65084457  0.11380567  0.09277464  1
  Ta5+  Ta20  1  0.87328459  0.60976303  0.88428172  1
  Ta5+  Ta21  1  0.10982535  0.88123017  0.88266325  1
  Ta5+  Ta22  1  0.41761574  0.39858173  0.13126033  1
  Ta5+  Ta23  1  0.87397169  0.38287283  0.38779054  1
  Ta5+  Ta24  1  0.65345308  0.35653803  0.85665129  1
  Ta5+  Ta25  1  0.15276526  0.36973914  0.89567220  1
  Ta5+  Ta26  1  0.32354454  0.06752117  0.07535816  1
  Ta5+  Ta27  1  0.59780005  0.38108628  0.35460179  1
  Ta5+  Ta28  1  0.89416412  0.87435976  0.16015731  1
  Ta5+  Ta29  1  0.36293249  0.64383910  0.38502118  1
  Ta5+  Ta30  1  0.88008234  0.37111235  0.64533784  1
  Ta5+  Ta31  1  0.36583937  0.63726725  0.59877325  1
  Ta5+  Ta32  1  0.14035666  0.62848867  0.14201026  1
  Ta5+  Ta33  1  0.85061905  0.61669540  0.62016667  1
  Ta5+  Ta34  1  0.83135223  0.88912333  0.37839543  1
  Ta5+  Ta35  1  0.65680914  0.58868200  0.91911835  1
  Ta5+  Ta36  1  0.11208954  0.41784857  0.37766275  1
  Ta5+  Ta37  1  0.92796409  0.12073041  0.13468198  1
  Ta5+  Ta38  1  0.62413154  0.13031841  0.60611922  1
  Ta5+  Ta39  1  0.61453366  0.92710004  0.70988256  1
  Ta5+  Ta40  1  0.61706154  0.10744410  0.35762915  1
  Ta5+  Ta41  1  0.64984067  0.37160257  0.10401597  1
  Ta5+  Ta42  1  0.86722948  0.87821314  0.90551662  1
  Ta5+  Ta43  1  0.11566236  0.61428343  0.88174412  1
  Ta5+  Ta44  1  0.66918116  0.86963496  0.34981164  1
  Ta5+  Ta45  1  0.38366670  0.40742255  0.87996596  1
  Ta5+  Ta46  1  0.09532307  0.88254794  0.61384731  1
  Ta5+  Ta47  1  0.60387045  0.60000035  0.61064718  1
  Ta5+  Ta48  1  0.64653249  0.12067707  0.86888758  1
  Ta5+  Ta49  1  0.16257217  0.88089198  0.37188880  1
  Ta5+  Ta50  1  0.16686618  0.88576770  0.11776937  1
  Ta5+  Ta51  1  0.37094473  0.38788116  0.61118049  1
  Ta5+  Ta52  1  0.62195536  0.62286870  0.36017731  1
  Ta5+  Ta53  1  0.87776857  0.13283490  0.38900441  1
  Ta5+  Ta54  1  0.64780337  0.36125555  0.59441695  1
  Ta5+  Ta55  1  0.10856997  0.11609845  0.36378769  1
  Ta5+  Ta56  1  0.84397072  0.61498100  0.12005227  1
  Ta5+  Ta57  1  0.37813026  0.63620438  0.12951185  1
  Ta5+  Ta58  1  0.15296278  0.10975663  0.89818008  1
  Ta5+  Ta59  1  0.88379027  0.37323259  0.13247003  1
  Ta5+  Ta60  1  0.38738690  0.12481413  0.62676080  1
  Ta5+  Ta61  1  0.64445955  0.61901993  0.13143622  1
  Ta5+  Ta62  1  0.66190108  0.86767112  0.09914385  1
  Ta5+  Ta63  1  0.38747034  0.07039241  0.84306429  1
  Ta5+  Ta64  1  0.81075936  0.12132441  0.90010325  1
  Ta5+  Ta65  1  0.09678322  0.11706913  0.11031066  1
  Ta5+  Ta66  1  0.12468873  0.39420174  0.64079696  1
  Ta5+  Ta67  1  0.85632929  0.13043061  0.65230557  1
  Ta5+  Ta68  1  0.09966245  0.63626156  0.60543674  1
  Ta5+  Ta69  1  0.19952127  0.65116888  0.38097638  1
  Ta5+  Ta70  1  0.85001711  0.88144477  0.64132012  1
  Ta5+  Ta71  1  0.35746202  0.63196644  0.86839641  1
  Ta5+  Ta72  1  0.33188338  0.88501097  0.37353527  1
  Ta5+  Ta73  1  0.15279959  0.06841818  0.63187181  1
  Ta5+  Ta74  1  0.81233415  0.37163176  0.88915608  1
  W6+  W75  1  0.78280194  0.62138157  0.36102792  1
  W6+  W76  1  0.10919981  0.37066368  0.13273099  1
  W6+  W77  1  0.40865592  0.89119107  0.11058907  1
  W6+  W78  1  0.59119178  0.95658136  0.93848202  1
  W6+  W79  1  0.42461582  0.02974694  0.45260558  1
  W6+  W80  1  0.35963322  0.90295356  0.64606833  1
  W6+  W81  1  0.38228058  0.39445433  0.34620075  1
  W6+  W82  1  0.32061492  0.92299234  0.90603577  1
  O2-  O83  1  0.09860694  -0.01830211  0.09969029  1
  O2-  O84  1  0.14628759  0.00520205  0.38733317  1
  O2-  O85  1  0.21155695  -0.04311645  0.62370307  1
  O2-  O86  1  0.09604949  0.00318319  0.87704020  1
  O2-  O87  1  0.10524115  0.51614941  0.15525664  1
  O2-  O88  1  0.17411530  0.51744649  0.37345601  1
  O2-  O89  1  0.14258073  0.51874884  0.62590512  1
  O2-  O90  1  0.15579746  0.49984796  0.88716507  1
  O2-  O91  1  0.43279831  0.02385978  0.10115005  1
  O2-  O92  1  0.32651673  0.00539340  0.36087200  1
  O2-  O93  1  0.37870633  0.02666312  0.70680219  1
  O2-  O94  1  0.45726422  -0.02328923  0.88043338  1
  O2-  O95  1  0.42905794  0.52776676  0.13925109  1
  O2-  O96  1  0.38162854  0.52602480  0.37632076  1
  O2-  O97  1  0.36708714  0.50697568  0.59440349  1
  O2-  O98  1  0.41632437  0.52444496  0.85084054  1
  O2-  O99  1  0.66440875  -0.00537121  0.11747481  1
  O2-  O100  1  0.64252241  -0.00849274  0.33576541  1
  O2-  O101  1  0.64089414  0.01106068  0.62046935  1
  O2-  O102  1  0.63717661  0.00034184  0.80906050  1
  O2-  O103  1  0.65820648  0.49044084  0.13485409  1
  O2-  O104  1  0.60421579  0.50043412  0.33120825  1
  O2-  O105  1  0.60270126  0.47409931  0.61516552  1
  O2-  O106  1  0.63044752  0.48653394  0.85912205  1
  O2-  O107  1  0.91008858  -0.00642410  0.15602265  1
  O2-  O108  1  0.84884444  0.01534897  0.38580326  1
  O2-  O109  1  0.85830634  0.00280161  0.64591296  1
  O2-  O110  1  0.83394597  -0.00727192  0.90461910  1
  O2-  O111  1  0.87813107  0.50274460  0.15466818  1
  O2-  O112  1  0.81286187  0.48268434  0.38384823  1
  O2-  O113  1  0.85753560  0.49498872  0.62421688  1
  O2-  O114  1  0.81180484  0.50580874  0.88953591  1
  O2-  O115  1  0.14264722  0.23397333  0.12905055  1
  O2-  O116  1  0.20274148  0.19497495  0.36434487  1
  O2-  O117  1  0.12667606  0.26477455  0.62415481  1
  O2-  O118  1  0.17394340  0.23900692  0.88363619  1
  O2-  O119  1  0.12162175  0.76469576  0.10750952  1
  O2-  O120  1  0.23098556  0.77784902  0.40445831  1
  O2-  O121  1  0.14602986  0.75476473  0.61676114  1
  O2-  O122  1  0.08125744  0.75048965  0.89139093  1
  O2-  O123  1  0.41071550  0.27095937  0.11747101  1
  O2-  O124  1  0.38459295  0.25709089  0.32272971  1
  O2-  O125  1  0.41594218  0.26019898  0.61312395  1
  O2-  O126  1  0.44509270  0.30272961  0.88247897  1
  O2-  O127  1  0.44572346  0.74352753  0.12061293  1
  O2-  O128  1  0.40803003  0.77117812  0.40050533  1
  O2-  O129  1  0.39176377  0.76413064  0.61327604  1
  O2-  O130  1  0.42704021  0.72838340  0.85198762  1
  O2-  O131  1  0.60368459  0.23981296  0.10060790  1
  O2-  O132  1  0.58627236  0.24672059  0.35759745  1
  O2-  O133  1  0.58199505  0.25835665  0.57558252  1
  O2-  O134  1  0.60337101  0.24377663  0.89012999  1
  O2-  O135  1  0.63941554  0.73826706  0.08466673  1
  O2-  O136  1  0.58891167  0.74807190  0.38021625  1
  O2-  O137  1  0.60240823  0.73309810  0.60640729  1
  O2-  O138  1  0.58890246  0.66038343  0.84881439  1
  O2-  O139  1  0.93865436  0.25833417  0.12415359  1
  O2-  O140  1  0.82100276  0.25367820  0.39186925  1
  O2-  O141  1  0.91940608  0.24389371  0.65392804  1
  O2-  O142  1  0.83785484  0.24923812  0.90573488  1
  O2-  O143  1  0.90243504  0.72336594  0.14338241  1
  O2-  O144  1  0.76778293  0.77104164  0.36834306  1
  O2-  O145  1  0.82442394  0.74723752  0.63360067  1
  O2-  O146  1  0.90131961  0.74064267  0.89862879  1
  O2-  O147  1  0.06171484  0.14441953  -0.01822116  1
  O2-  O148  1  0.09211121  0.10432347  0.24371504  1
  O2-  O149  1  0.12227367  0.12526998  0.51902278  1
  O2-  O150  1  0.14223677  0.12088060  0.74785236  1
  O2-  O151  1  0.10276369  0.62561157  0.00845704  1
  O2-  O152  1  0.15853893  0.66234278  0.26341877  1
  O2-  O153  1  0.11626416  0.63811255  0.48483256  1
  O2-  O154  1  0.10890044  0.65336775  0.74843140  1
  O2-  O155  1  0.37603752  0.12935205  -0.03505949  1
  O2-  O156  1  0.30623393  0.13187403  0.17651860  1
  O2-  O157  1  0.35422175  0.15047030  0.49361285  1
  O2-  O158  1  0.37032167  0.18021611  0.75956676  1
  O2-  O159  1  0.38629464  0.63799964  -0.00747583  1
  O2-  O160  1  0.37690721  0.66655056  0.25314944  1
  O2-  O161  1  0.29057919  0.65145519  0.50192069  1
  O2-  O162  1  0.33258624  0.63964807  0.72968210  1
  O2-  O163  1  0.71976701  0.14404883  -0.00806287  1
  O2-  O164  1  0.64249625  0.13938065  0.22900284  1
  O2-  O165  1  0.65283706  0.12332229  0.47675231  1
  O2-  O166  1  0.60250746  0.15195837  0.73261228  1
  O2-  O167  1  0.57588005  0.60001045  0.01652206  1
  O2-  O168  1  0.57462505  0.64447012  0.23220164  1
  O2-  O169  1  0.60759918  0.60174738  0.48777535  1
  O2-  O170  1  0.71807328  0.61410600  0.66412389  1
  O2-  O171  1  0.88728248  0.12719769  0.01745175  1
  O2-  O172  1  0.88260602  0.14701122  0.25983149  1
  O2-  O173  1  0.90137686  0.13474357  0.52285240  1
  O2-  O174  1  0.85527248  0.12597211  0.77600174  1
  O2-  O175  1  0.91243171  0.61139837  0.00896579  1
  O2-  O176  1  0.75277566  0.63483160  0.20821024  1
  O2-  O177  1  0.81090254  0.63334894  0.50316329  1
  O2-  O178  1  0.87102611  0.64122527  0.75436671  1
  O2-  O179  1  0.07771296  0.36073031  -0.00861949  1
  O2-  O180  1  0.14374588  0.35351065  0.27913543  1
  O2-  O181  1  0.13179065  0.37121922  0.49430237  1
  O2-  O182  1  0.12459675  0.37266914  0.76540372  1
  O2-  O183  1  0.19410268  0.87792096  -0.02571057  1
  O2-  O184  1  0.16057530  0.87787156  0.24365067  1
  O2-  O185  1  0.09568383  0.87418974  0.49193849  1
  O2-  O186  1  0.11817887  0.85538873  0.75280324  1
  O2-  O187  1  0.36994083  0.41590498  0.00451947  1
  O2-  O188  1  0.32074052  0.39488409  0.21127070  1
  O2-  O189  1  0.33770105  0.35048677  0.48729908  1
  O2-  O190  1  0.41490833  0.38866491  0.73276171  1
  O2-  O191  1  0.38705861  0.83841545  -0.01303761  1
  O2-  O192  1  0.38537840  0.87600998  0.25582365  1
  O2-  O193  1  0.37905286  0.90914361  0.50487114  1
  O2-  O194  1  0.31762588  0.86620958  0.77406151  1
  O2-  O195  1  0.69840370  0.37128336  -0.01481716  1
  O2-  O196  1  0.65516189  0.34727118  0.24059587  1
  O2-  O197  1  0.66210103  0.37881056  0.46322659  1
  O2-  O198  1  0.63069459  0.34146081  0.72585462  1
  O2-  O199  1  0.54036028  0.88024092  0.05128913  1
  O2-  O200  1  0.62099197  0.84554926  0.22692004  1
  O2-  O201  1  0.63794585  0.87354962  0.47668518  1
  O2-  O202  1  0.61297474  0.82347709  0.78587107  1
  O2-  O203  1  0.88511319  0.38543546  0.00600032  1
  O2-  O204  1  0.87288778  0.35036274  0.26447357  1
  O2-  O205  1  0.91107761  0.34923212  0.50688915  1
  O2-  O206  1  0.85343275  0.37384743  0.76576502  1
  O2-  O207  1  0.91329709  0.86381401  0.02543240  1
  O2-  O208  1  0.90766482  0.85752703  0.28387723  1
  O2-  O209  1  0.83076845  0.87387553  0.51520286  1
  O2-  O210  1  0.83633142  0.84749090  0.77629222  1
  O2-  O211  1  -0.01982204  -0.11654258  -0.14497014  1
  O2-  O212  1  0.00246035  0.17886121  0.39199882  1
  O2-  O213  1  0.05024467  0.00101516  0.63612880  1
  O2-  O214  1  -0.02755792  -0.15740366  0.64604910  1
  O2-  O215  1  -0.00431120  0.58790723  -0.14109879  1
  O2-  O216  1  -0.00789112  0.43007749  0.37248751  1
  O2-  O217  1  0.00418367  0.39899984  0.63931912  1
  O2-  O218  1  -0.02251028  0.63730529  0.61292046  1
  O2-  O219  1  0.20810797  0.09151091  0.01266087  1
  O2-  O220  1  0.27672350  -0.04880902  0.11854961  1
  O2-  O221  1  0.25838308  0.14983496  0.62673503  1
  O2-  O222  1  0.26366957  0.05518544  0.85123323  1
  O2-  O223  1  0.23781287  0.66457941  -0.12499213  1
  O2-  O224  1  0.25909953  0.62023471  0.11291657  1
  O2-  O225  1  0.25603006  0.36325359  0.64578737  1
  O2-  O226  1  0.27514938  0.36954348  0.84428237  1
  O2-  O227  1  0.56847875  0.09676419  -0.01326799  1
  O2-  O228  1  0.49288482  0.11407213  0.35697104  1
  O2-  O229  1  0.49861082  0.10105864  0.56835248  1
  O2-  O230  1  0.50428223  -0.11225913  0.65792116  1
  O2-  O231  1  0.53230048  0.38480281  0.06494312  1
  O2-  O232  1  0.48794321  0.37795329  0.24364380  1
  O2-  O233  1  0.49444488  0.38102761  0.42582347  1
  O2-  O234  1  0.49075148  0.61477737  0.66025304  1
  O2-  O235  1  0.70259656  -0.11912221  -0.02351745  1
  O2-  O236  1  0.77746901  -0.14585671  0.14551809  1
  O2-  O237  1  0.74512888  0.16225564  0.62546059  1
  O2-  O238  1  0.71933020  -0.12830932  0.65979510  1
  O2-  O239  1  0.74482135  0.60370217  0.03912119  1
  O2-  O240  1  0.77149215  0.31938897  0.12565402  1
  O2-  O241  1  0.76532772  0.34189743  0.60486948  1
  O2-  O242  1  0.75316508  0.66413296  0.88271508  1
