# generated using pymatgen
data_Gd19Ta56(WO20)8
_symmetry_space_group_name_H-M   'P 1'
_cell_length_a   15.55134587
_cell_length_b   15.54844417
_cell_length_c   15.26489402
_cell_angle_alpha   90.09507170
_cell_angle_beta   89.76156218
_cell_angle_gamma   90.10227882
_symmetry_Int_Tables_number   1
_chemical_formula_structural   Gd19Ta56(WO20)8
_chemical_formula_sum   'Gd19 Ta56 W8 O160'
_cell_volume   3690.99678943
_cell_formula_units_Z   1
loop_
 _symmetry_equiv_pos_site_id
 _symmetry_equiv_pos_as_xyz
  1  'x, y, z'
loop_
 _atom_type_symbol
 _atom_type_oxidation_number
  Gd3+  3.0
  Ta5+  5.0
  W6+  6.0
  O2-  -2.0
loop_
 _atom_site_type_symbol
 _atom_site_label
 _atom_site_symmetry_multiplicity
 _atom_site_fract_x
 _atom_site_fract_y
 _atom_site_fract_z
 _atom_site_occupancy
  Gd3+  Gd0  1  0.76011849  0.24940858  0.75254084  1
  Gd3+  Gd1  1  0.26753392  0.25083278  -0.01704008  1
  Gd3+  Gd2  1  0.21059831  0.72517593  0.50774628  1
  Gd3+  Gd3  1  0.49349585  0.74801071  0.50335996  1
  Gd3+  Gd4  1  0.49047643  0.24207884  0.76006951  1
  Gd3+  Gd5  1  0.76525275  0.74863128  -0.00169246  1
  Gd3+  Gd6  1  0.49415444  0.23167492  0.00183489  1
  Gd3+  Gd7  1  0.49234005  0.75826505  0.74747982  1
  Gd3+  Gd8  1  0.21772143  0.74183293  0.00592558  1
  Gd3+  Gd9  1  0.50084669  0.76341824  0.24985568  1
  Gd3+  Gd10  1  -0.01638910  0.75760365  0.50097976  1
  Gd3+  Gd11  1  -0.01669147  0.25643687  0.74066451  1
  Gd3+  Gd12  1  0.23494573  0.25331508  0.73916153  1
  Gd3+  Gd13  1  0.74933366  0.23555586  0.44530310  1
  Gd3+  Gd14  1  0.78328650  0.75893705  0.24714108  1
  Gd3+  Gd15  1  -0.01529010  0.75624452  0.01307695  1
  Gd3+  Gd16  1  0.52750999  0.26723131  0.51898029  1
  Gd3+  Gd17  1  0.75674962  0.24877597  0.00583411  1
  Gd3+  Gd18  1  0.25551015  0.25092097  0.47884818  1
  Ta5+  Ta19  1  0.62804152  0.10433725  0.86150686  1
  Ta5+  Ta20  1  0.61113757  0.62493984  0.12312559  1
  Ta5+  Ta21  1  0.41059137  0.39727290  0.88495547  1
  Ta5+  Ta22  1  0.36949042  0.37559587  0.13533524  1
  Ta5+  Ta23  1  0.88545658  0.37814715  0.35503706  1
  Ta5+  Ta24  1  0.86066522  0.60583764  0.12124283  1
  Ta5+  Ta25  1  0.10022992  0.61634310  0.13721992  1
  Ta5+  Ta26  1  0.08850650  0.61650578  0.88132544  1
  Ta5+  Ta27  1  0.11388237  0.11131031  0.60748253  1
  Ta5+  Ta28  1  0.10526807  0.36862182  0.36849962  1
  Ta5+  Ta29  1  0.90293168  0.11362591  0.91611735  1
  Ta5+  Ta30  1  0.61820221  0.61376287  0.37078903  1
  Ta5+  Ta31  1  0.59512772  0.37938158  0.36372994  1
  Ta5+  Ta32  1  0.86928797  0.87663252  0.85214626  1
  Ta5+  Ta33  1  0.11050336  0.61411914  0.37106223  1
  Ta5+  Ta34  1  0.58233618  0.12489987  0.37310034  1
  Ta5+  Ta35  1  0.36301836  0.87684763  0.88419621  1
  Ta5+  Ta36  1  0.39144349  0.06635276  0.87948327  1
  Ta5+  Ta37  1  0.84531498  0.62269637  0.39645474  1
  Ta5+  Ta38  1  0.34425848  0.62010432  0.63277297  1
  Ta5+  Ta39  1  0.66942645  0.62833396  0.59751468  1
  Ta5+  Ta40  1  0.18929924  0.12760221  0.14042409  1
  Ta5+  Ta41  1  0.12526981  0.88926586  0.12585314  1
  Ta5+  Ta42  1  0.09552070  0.87606778  0.87621379  1
  Ta5+  Ta43  1  0.12369262  0.88001971  0.37334340  1
  Ta5+  Ta44  1  0.64553422  0.87204556  0.62517071  1
  Ta5+  Ta45  1  0.10257685  0.11345131  0.91320968  1
  Ta5+  Ta46  1  0.62241793  0.38279567  0.87444043  1
  Ta5+  Ta47  1  0.63287522  0.87646428  0.11586894  1
  Ta5+  Ta48  1  0.36980914  0.88306235  0.38156050  1
  Ta5+  Ta49  1  0.35725356  0.62312296  0.13251425  1
  Ta5+  Ta50  1  0.12821846  0.38634754  0.60911880  1
  Ta5+  Ta51  1  0.62434961  0.62601622  0.88312042  1
  Ta5+  Ta52  1  0.61337113  0.38042343  0.11861562  1
  Ta5+  Ta53  1  0.33938313  0.89133023  0.63225164  1
  Ta5+  Ta54  1  0.35897718  0.62259066  0.36992422  1
  Ta5+  Ta55  1  0.36493673  0.38708791  0.63542015  1
  Ta5+  Ta56  1  0.92435950  0.62442782  0.85272423  1
  Ta5+  Ta57  1  0.87421430  0.90055623  0.37331458  1
  Ta5+  Ta58  1  0.13530215  0.88270904  0.63407586  1
  Ta5+  Ta59  1  0.41094692  0.37915680  0.37697211  1
  Ta5+  Ta60  1  0.09648549  0.12481144  0.36878343  1
  Ta5+  Ta61  1  0.87449686  0.13214799  0.59537189  1
  Ta5+  Ta62  1  0.10667242  0.36496113  0.87875677  1
  Ta5+  Ta63  1  0.36077002  0.63346022  0.88553990  1
  Ta5+  Ta64  1  0.37613285  0.11854744  0.62801175  1
  Ta5+  Ta65  1  0.41392374  0.12751682  0.38082237  1
  Ta5+  Ta66  1  0.61464957  0.11974415  0.12566934  1
  Ta5+  Ta67  1  0.36012376  0.11498867  0.13853962  1
  Ta5+  Ta68  1  0.08190187  0.62241074  0.65416526  1
  Ta5+  Ta69  1  0.90097841  0.37849963  0.10863478  1
  Ta5+  Ta70  1  0.87525897  0.14460715  0.16111884  1
  Ta5+  Ta71  1  0.62853652  0.88362663  0.38232188  1
  Ta5+  Ta72  1  0.87954472  0.89979931  0.12372362  1
  Ta5+  Ta73  1  0.61842996  0.11587324  0.64218348  1
  Ta5+  Ta74  1  0.92846466  0.13936906  0.34436195  1
  W6+  W75  1  0.34062861  0.86563497  0.13479840  1
  W6+  W76  1  0.85479943  0.62762332  0.61992912  1
  W6+  W77  1  0.69815573  0.86444333  0.84545141  1
  W6+  W78  1  0.14914914  0.37909685  0.12012519  1
  W6+  W79  1  0.84856246  0.88487849  0.61962976  1
  W6+  W80  1  0.65986333  0.38582286  0.62721661  1
  W6+  W81  1  0.83353914  0.37748662  0.59799166  1
  W6+  W82  1  0.96647370  0.44322084  0.93905744  1
  O2-  O83  1  0.15301476  0.00354012  0.13482665  1
  O2-  O84  1  0.09083971  -0.00430008  0.37746857  1
  O2-  O85  1  0.07750095  -0.00355539  0.62541081  1
  O2-  O86  1  0.11357806  0.00475272  0.86558249  1
  O2-  O87  1  0.15806456  0.51445066  0.15177345  1
  O2-  O88  1  0.09088767  0.49716564  0.36141655  1
  O2-  O89  1  0.07993482  0.49827071  0.62822622  1
  O2-  O90  1  0.09397628  0.48804438  0.87532987  1
  O2-  O91  1  0.35830678  -0.00248618  0.13290787  1
  O2-  O92  1  0.39631814  -0.00133340  0.39049870  1
  O2-  O93  1  0.40327742  -0.00115002  0.63231086  1
  O2-  O94  1  0.45678892  -0.04330308  0.89118998  1
  O2-  O95  1  0.35902049  0.49949947  0.13755453  1
  O2-  O96  1  0.37950563  0.50622301  0.37406480  1
  O2-  O97  1  0.39647176  0.51016749  0.62771858  1
  O2-  O98  1  0.41052558  0.52031821  0.88321442  1
  O2-  O99  1  0.61542623  -0.00429219  0.10663559  1
  O2-  O100  1  0.61217034  0.00088537  0.39178960  1
  O2-  O101  1  0.62558590  -0.00496845  0.61986654  1
  O2-  O102  1  0.66223254  -0.00585567  0.86545326  1
  O2-  O103  1  0.61191030  0.50255483  0.10446153  1
  O2-  O104  1  0.64691971  0.49856105  0.37678221  1
  O2-  O105  1  0.63128414  0.51946459  0.62063240  1
  O2-  O106  1  0.64565100  0.50681668  0.88800026  1
  O2-  O107  1  0.87976835  0.01600737  0.14957765  1
  O2-  O108  1  0.89731237  0.01481265  0.35196790  1
  O2-  O109  1  0.83664987  0.02096460  0.60049922  1
  O2-  O110  1  0.86618794  0.00682133  0.88271227  1
  O2-  O111  1  0.83486751  0.48554864  0.11530359  1
  O2-  O112  1  0.85880224  0.50496305  0.37018778  1
  O2-  O113  1  0.83435523  0.49364018  0.61323372  1
  O2-  O114  1  0.89776317  0.50886427  0.84176302  1
  O2-  O115  1  0.18393631  0.24984632  0.11047028  1
  O2-  O116  1  0.13339160  0.24804850  0.39578459  1
  O2-  O117  1  0.16379822  0.25584649  0.60079067  1
  O2-  O118  1  0.16043881  0.22778162  0.87052060  1
  O2-  O119  1  0.10537775  0.74797951  0.10799199  1
  O2-  O120  1  0.10266201  0.75246551  0.39457269  1
  O2-  O121  1  0.08682005  0.74459542  0.61549533  1
  O2-  O122  1  0.09325957  0.75060273  0.89875744  1
  O2-  O123  1  0.37335990  0.24872665  0.09650728  1
  O2-  O124  1  0.40673492  0.25435386  0.40408501  1
  O2-  O125  1  0.36340592  0.25328458  0.65334827  1
  O2-  O126  1  0.40325395  0.26222888  0.88513190  1
  O2-  O127  1  0.29307035  0.73022930  0.13723712  1
  O2-  O128  1  0.40425036  0.75027725  0.37933369  1
  O2-  O129  1  0.41360246  0.72686727  0.62857184  1
  O2-  O130  1  0.40978853  0.75163508  0.87580120  1
  O2-  O131  1  0.62746134  0.24959722  0.10643231  1
  O2-  O132  1  0.59042492  0.25366898  0.36529415  1
  O2-  O133  1  0.61268393  0.25005749  0.66003737  1
  O2-  O134  1  0.61863269  0.24927549  0.86004080  1
  O2-  O135  1  0.63167915  0.75098080  0.15274475  1
  O2-  O136  1  0.58555559  0.75329058  0.37143148  1
  O2-  O137  1  0.60274236  0.73910452  0.61984739  1
  O2-  O138  1  0.70276408  0.71701842  0.86548853  1
  O2-  O139  1  0.83752494  0.26839397  0.13793711  1
  O2-  O140  1  0.85464162  0.25874758  0.33452346  1
  O2-  O141  1  0.79369988  0.23428547  0.58967666  1
  O2-  O142  1  0.82120343  0.20087634  0.88028847  1
  O2-  O143  1  0.86967510  0.74722456  0.11783065  1
  O2-  O144  1  0.87760392  0.74756234  0.37887621  1
  O2-  O145  1  0.88583507  0.75899643  0.60728661  1
  O2-  O146  1  0.89863461  0.75458999  0.85802430  1
  O2-  O147  1  0.18716973  0.11768697  0.00350374  1
  O2-  O148  1  0.14128220  0.13531332  0.25614958  1
  O2-  O149  1  0.15844124  0.11249792  0.49309755  1
  O2-  O150  1  0.18023407  0.12573109  0.70892375  1
  O2-  O151  1  0.10995978  0.61683230  0.00829672  1
  O2-  O152  1  0.06924644  0.64786317  0.26000653  1
  O2-  O153  1  0.09930045  0.62468555  0.49865807  1
  O2-  O154  1  0.13702591  0.62771921  0.76006614  1
  O2-  O155  1  0.36009199  0.11738034  -0.01244231  1
  O2-  O156  1  0.38751970  0.13812120  0.25978186  1
  O2-  O157  1  0.34436965  0.13186007  0.50770421  1
  O2-  O158  1  0.36908119  0.12394871  0.76783204  1
  O2-  O159  1  0.38540273  0.63992565  0.01161609  1
  O2-  O160  1  0.40398545  0.64090787  0.25117483  1
  O2-  O161  1  0.34776391  0.64483749  0.49895889  1
  O2-  O162  1  0.35157551  0.63415094  0.75605687  1
  O2-  O163  1  0.65474462  0.13302821  -0.01209371  1
  O2-  O164  1  0.62157981  0.12058522  0.24757861  1
  O2-  O165  1  0.62879291  0.15011368  0.50719532  1
  O2-  O166  1  0.69886650  0.11817475  0.74391116  1
  O2-  O167  1  0.58489762  0.65178041  -0.00329099  1
  O2-  O168  1  0.57989569  0.61725532  0.24870976  1
  O2-  O169  1  0.57021576  0.62359065  0.48740904  1
  O2-  O170  1  0.53747877  0.63377268  0.80258861  1
  O2-  O171  1  0.84860201  0.13385876  0.03094934  1
  O2-  O172  1  0.97364270  0.17311877  0.22086418  1
  O2-  O173  1  0.88005306  0.15238963  0.46812523  1
  O2-  O174  1  0.87633815  0.15908970  0.71804461  1
  O2-  O175  1  0.88085184  0.63950712  -0.01435434  1
  O2-  O176  1  0.85380487  0.62848505  0.24545003  1
  O2-  O177  1  0.92476499  0.62319177  0.49220091  1
  O2-  O178  1  0.96958677  0.62835027  0.71174632  1
  O2-  O179  1  0.17589385  0.36873579  -0.01898500  1
  O2-  O180  1  0.12013903  0.35707659  0.25023511  1
  O2-  O181  1  0.16240987  0.39195892  0.48721731  1
  O2-  O182  1  0.11453766  0.34724018  0.74316994  1
  O2-  O183  1  0.14408776  0.88092782  -0.00433188  1
  O2-  O184  1  0.11560485  0.86476797  0.25139863  1
  O2-  O185  1  0.11571611  0.86821759  0.50922235  1
  O2-  O186  1  0.10640190  0.85883661  0.75150764  1
  O2-  O187  1  0.34949896  0.38582186  -0.00388644  1
  O2-  O188  1  0.36889293  0.35746980  0.25748171  1
  O2-  O189  1  0.35137354  0.36810949  0.51066688  1
  O2-  O190  1  0.34793412  0.38113413  0.77304764  1
  O2-  O191  1  0.32046661  0.85025072  -0.00391203  1
  O2-  O192  1  0.39956290  0.87000198  0.26104145  1
  O2-  O193  1  0.38004143  0.86127880  0.51550169  1
  O2-  O194  1  0.37610019  0.85887404  0.74760394  1
  O2-  O195  1  0.67386204  0.37054775  -0.00287715  1
  O2-  O196  1  0.64056941  0.37875761  0.23812078  1
  O2-  O197  1  0.64971593  0.34180102  0.49165000  1
  O2-  O198  1  0.69241475  0.38215291  0.77137563  1
  O2-  O199  1  0.65793134  0.85026605  -0.00434843  1
  O2-  O200  1  0.59955241  0.88115970  0.25561743  1
  O2-  O201  1  0.57611251  0.86713443  0.50095165  1
  O2-  O202  1  0.58545070  0.86147184  0.74332407  1
  O2-  O203  1  0.85904920  0.35968599  -0.00831316  1
  O2-  O204  1  0.92046698  0.39212492  0.23658509  1
  O2-  O205  1  0.82000826  0.36166506  0.46707226  1
  O2-  O206  1  0.87203544  0.33770184  0.71674268  1
  O2-  O207  1  0.86483480  0.86614586  -0.00531323  1
  O2-  O208  1  0.89430460  0.86268345  0.25018779  1
  O2-  O209  1  0.92211476  0.89021616  0.48730926  1
  O2-  O210  1  0.91258417  0.89815293  0.74111205  1
  O2-  O211  1  0.00813311  0.09884422  -0.00816606  1
  O2-  O212  1  0.00019926  -0.11642688  0.10008506  1
  O2-  O213  1  0.00214862  0.16275741  0.60428453  1
  O2-  O214  1  0.00047019  0.14560379  0.83660027  1
  O2-  O215  1  0.01625109  0.39557145  0.07413775  1
  O2-  O216  1  -0.01760781  0.58976218  0.12154214  1
  O2-  O217  1  -0.00930227  0.35831142  0.41233191  1
  O2-  O218  1  -0.00458647  0.31484487  0.87683130  1
  O2-  O219  1  0.29850821  -0.01598930  -0.13469631  1
  O2-  O220  1  0.24757977  -0.13030776  0.39182847  1
  O2-  O221  1  0.24400634  -0.19571133  0.62443719  1
  O2-  O222  1  0.23691721  -0.03980506  0.64194967  1
  O2-  O223  1  0.24242477  0.63456895  -0.09876270  1
  O2-  O224  1  0.23337023  0.62810947  0.36486774  1
  O2-  O225  1  0.22407612  0.62131592  0.61636905  1
  O2-  O226  1  0.24348282  0.40653880  0.64514206  1
  O2-  O227  1  0.50797123  0.11617849  -0.09130531  1
  O2-  O228  1  0.49542389  0.12834725  0.10947042  1
  O2-  O229  1  0.49328246  0.14740177  0.60785536  1
  O2-  O230  1  0.54584987  0.10469721  0.75438953  1
  O2-  O231  1  0.51721041  0.37467591  -0.04105802  1
  O2-  O232  1  0.49420854  0.36827536  0.12787579  1
  O2-  O233  1  0.50671277  0.40772531  0.45444158  1
  O2-  O234  1  0.51728202  0.38494008  0.79888985  1
  O2-  O235  1  0.75438228  -0.12288080  0.14567451  1
  O2-  O236  1  0.74959285  -0.12755513  0.35813269  1
  O2-  O237  1  0.73737581  -0.14323041  0.54350562  1
  O2-  O238  1  0.74174797  -0.12543397  0.70751720  1
  O2-  O239  1  0.73609458  0.63358822  0.09457253  1
  O2-  O240  1  0.72919819  0.66101873  0.35060105  1
  O2-  O241  1  0.75733118  0.62922126  0.50778163  1
  O2-  O242  1  0.73874466  0.64425357  0.69425007  1
