# generated using pymatgen
data_Gd19Ta56(WO20)8
_symmetry_space_group_name_H-M   'P 1'
_cell_length_a   15.59632590
_cell_length_b   15.55644694
_cell_length_c   15.37146269
_cell_angle_alpha   90.10081411
_cell_angle_beta   89.57006115
_cell_angle_gamma   90.12829799
_symmetry_Int_Tables_number   1
_chemical_formula_structural   Gd19Ta56(WO20)8
_chemical_formula_sum   'Gd19 Ta56 W8 O160'
_cell_volume   3729.35678089
_cell_formula_units_Z   1
loop_
 _symmetry_equiv_pos_site_id
 _symmetry_equiv_pos_as_xyz
  1  'x, y, z'
loop_
 _atom_type_symbol
 _atom_type_oxidation_number
  Gd3+  3.0
  Ta5+  5.0
  W6+  6.0
  O2-  -2.0
loop_
 _atom_site_type_symbol
 _atom_site_label
 _atom_site_symmetry_multiplicity
 _atom_site_fract_x
 _atom_site_fract_y
 _atom_site_fract_z
 _atom_site_occupancy
  Gd3+  Gd0  1  0.23786906  0.26853742  0.24451768  1
  Gd3+  Gd1  1  0.01689597  0.73969203  0.23593994  1
  Gd3+  Gd2  1  0.50383715  0.73949678  0.25188180  1
  Gd3+  Gd3  1  0.24939665  0.76519850  -0.00812676  1
  Gd3+  Gd4  1  0.47818285  0.25207918  0.25552672  1
  Gd3+  Gd5  1  0.75917656  0.73204951  0.51714459  1
  Gd3+  Gd6  1  0.75671488  0.25123429  -0.00122616  1
  Gd3+  Gd7  1  0.76313506  0.25116959  0.75708540  1
  Gd3+  Gd8  1  0.00238195  0.25535875  0.00281461  1
  Gd3+  Gd9  1  0.25644512  0.76117076  0.74515229  1
  Gd3+  Gd10  1  0.48940245  0.25024171  0.49967320  1
  Gd3+  Gd11  1  0.72812909  0.24959952  0.52403235  1
  Gd3+  Gd12  1  0.74895627  0.74441397  0.22689648  1
  Gd3+  Gd13  1  0.47528646  0.24422300  0.76070421  1
  Gd3+  Gd14  1  0.24975052  0.25944689  -0.01646004  1
  Gd3+  Gd15  1  -0.02055722  0.24642237  0.51694232  1
  Gd3+  Gd16  1  0.48511699  0.75004596  0.02056605  1
  Gd3+  Gd17  1  -0.00776619  0.26720570  0.76138320  1
  Gd3+  Gd18  1  -0.01025616  0.74620585  0.49227176  1
  Ta5+  Ta19  1  0.38179676  0.11452918  0.12800450  1
  Ta5+  Ta20  1  0.10569703  0.87856566  0.87142200  1
  Ta5+  Ta21  1  0.64938815  0.37932614  0.33065180  1
  Ta5+  Ta22  1  0.88565150  0.37616015  0.14584922  1
  Ta5+  Ta23  1  0.38756966  0.86991982  0.61373248  1
  Ta5+  Ta24  1  0.59752120  0.37430014  0.11084652  1
  Ta5+  Ta25  1  0.09200104  0.39543636  0.13942231  1
  Ta5+  Ta26  1  0.36388276  0.11845633  0.37827514  1
  Ta5+  Ta27  1  0.87894823  0.41212282  0.89879250  1
  Ta5+  Ta28  1  0.56721590  0.87520103  0.87850550  1
  Ta5+  Ta29  1  0.87034585  0.36292981  0.37445457  1
  Ta5+  Ta30  1  0.11806379  0.39079920  0.37986682  1
  Ta5+  Ta31  1  0.54664214  0.39623966  0.90882267  1
  Ta5+  Ta32  1  0.39933967  0.87476305  0.87214284  1
  Ta5+  Ta33  1  0.12996034  0.39285011  0.87792095  1
  Ta5+  Ta34  1  0.62385476  0.85612657  0.63493516  1
  Ta5+  Ta35  1  0.63029906  0.61669964  0.10335441  1
  Ta5+  Ta36  1  0.60766739  0.61056774  0.63024570  1
  Ta5+  Ta37  1  0.85978187  0.12335337  0.37892871  1
  Ta5+  Ta38  1  0.87423172  0.11693507  0.12924868  1
  Ta5+  Ta39  1  0.12468170  0.88567699  0.61927706  1
  Ta5+  Ta40  1  0.39062174  0.39190143  0.12154278  1
  Ta5+  Ta41  1  0.58535587  0.11590175  0.12545614  1
  Ta5+  Ta42  1  0.37719165  0.39194212  0.88172131  1
  Ta5+  Ta43  1  0.88691401  0.87800110  0.36625654  1
  Ta5+  Ta44  1  0.88743911  0.86939394  0.11598444  1
  Ta5+  Ta45  1  0.36129865  0.38447061  0.62907415  1
  Ta5+  Ta46  1  0.63255156  0.87922918  0.11588151  1
  Ta5+  Ta47  1  0.36502497  0.86961542  0.36257721  1
  Ta5+  Ta48  1  0.65566360  0.61806217  0.36929838  1
  Ta5+  Ta49  1  0.61231329  0.09450273  0.63410426  1
  Ta5+  Ta50  1  0.36843769  0.10495625  0.62732581  1
  Ta5+  Ta51  1  0.14148867  0.62508487  0.37469746  1
  Ta5+  Ta52  1  0.96508535  0.60264776  0.88482623  1
  Ta5+  Ta53  1  0.37018730  0.61391387  0.36628998  1
  Ta5+  Ta54  1  0.54885292  0.62649340  0.87040869  1
  Ta5+  Ta55  1  0.12246890  0.38861876  0.62420818  1
  Ta5+  Ta56  1  0.17236916  0.62813515  0.12400811  1
  Ta5+  Ta57  1  0.34163690  0.62827173  0.12998417  1
  Ta5+  Ta58  1  0.11047694  0.12583271  0.87551521  1
  Ta5+  Ta59  1  0.61563207  0.11479912  0.88582724  1
  Ta5+  Ta60  1  0.88748199  0.60966171  0.36390322  1
  Ta5+  Ta61  1  0.13416506  0.62910330  0.87340119  1
  Ta5+  Ta62  1  0.13378658  0.13328011  0.62802945  1
  Ta5+  Ta63  1  0.89640422  0.09758991  0.88700919  1
  Ta5+  Ta64  1  0.65036804  0.86546045  0.37750774  1
  Ta5+  Ta65  1  0.11426259  0.12633994  0.13231830  1
  Ta5+  Ta66  1  0.13287840  0.63544681  0.62160854  1
  Ta5+  Ta67  1  0.12819503  0.88322047  0.36954481  1
  Ta5+  Ta68  1  0.12771399  0.13037353  0.38069387  1
  Ta5+  Ta69  1  0.88791073  0.86078758  0.64548354  1
  Ta5+  Ta70  1  0.61825135  0.10729632  0.37138918  1
  Ta5+  Ta71  1  0.35481362  0.39068658  0.38648154  1
  Ta5+  Ta72  1  0.38088983  0.62921042  0.87052096  1
  Ta5+  Ta73  1  0.88140868  0.60821557  0.12183903  1
  Ta5+  Ta74  1  0.38785501  0.63177150  0.61395780  1
  W6+  W75  1  0.12079080  0.87618518  0.11592799  1
  W6+  W76  1  0.86788804  0.39055443  0.63662366  1
  W6+  W77  1  0.86051900  0.10386624  0.64578278  1
  W6+  W78  1  0.94771722  0.85350684  0.89319747  1
  W6+  W79  1  0.36424580  0.12037733  0.88708097  1
  W6+  W80  1  0.37795818  0.87897759  0.13812968  1
  W6+  W81  1  0.64201833  0.42480723  0.62554078  1
  W6+  W82  1  0.89758110  0.60100118  0.63947042  1
  O2-  O83  1  0.12031845  0.01175917  0.12030640  1
  O2-  O84  1  0.11568363  0.00760673  0.37027197  1
  O2-  O85  1  0.11617049  0.01259619  0.62284298  1
  O2-  O86  1  0.11129335  0.00540711  0.87320662  1
  O2-  O87  1  0.13016582  0.50773804  0.12410884  1
  O2-  O88  1  0.09042045  0.51292995  0.38338981  1
  O2-  O89  1  0.13720128  0.50618368  0.62031046  1
  O2-  O90  1  0.15968988  0.50748768  0.86510395  1
  O2-  O91  1  0.33625591  0.00880514  0.14611726  1
  O2-  O92  1  0.36385886  0.00097453  0.36360452  1
  O2-  O93  1  0.33703952  -0.01403789  0.61844892  1
  O2-  O94  1  0.37579065  -0.00921992  0.88077672  1
  O2-  O95  1  0.34400053  0.50213682  0.13355187  1
  O2-  O96  1  0.41697197  0.49532719  0.37906697  1
  O2-  O97  1  0.36028401  0.50557251  0.62547456  1
  O2-  O98  1  0.35114744  0.50918999  0.87028070  1
  O2-  O99  1  0.62925513  0.00129611  0.14373474  1
  O2-  O100  1  0.61126270  -0.01095265  0.37334814  1
  O2-  O101  1  0.65074689  -0.01768632  0.63175989  1
  O2-  O102  1  0.61492647  -0.00277882  0.87717011  1
  O2-  O103  1  0.63471194  0.49244422  0.11500556  1
  O2-  O104  1  0.62565740  0.49421673  0.34733168  1
  O2-  O105  1  0.70922678  0.54364184  0.64547277  1
  O2-  O106  1  0.57817113  0.50306160  0.86942184  1
  O2-  O107  1  0.88299806  -0.00174240  0.11938578  1
  O2-  O108  1  0.89460569  0.00819791  0.37988403  1
  O2-  O109  1  0.84057921  -0.03029726  0.63132262  1
  O2-  O110  1  0.89975872  -0.01764948  0.89207592  1
  O2-  O111  1  0.84606265  0.49091424  0.14497756  1
  O2-  O112  1  0.88969557  0.48074655  0.37372728  1
  O2-  O113  1  0.95360680  0.47999457  0.61761183  1
  O2-  O114  1  0.85208591  0.52629610  0.89992306  1
  O2-  O115  1  0.12935416  0.27118090  0.14314647  1
  O2-  O116  1  0.12402165  0.26266072  0.36778651  1
  O2-  O117  1  0.07789811  0.25319546  0.63104004  1
  O2-  O118  1  0.08252354  0.26171317  0.87901760  1
  O2-  O119  1  0.11400625  0.74151832  0.11441010  1
  O2-  O120  1  0.09403727  0.74886597  0.38311927  1
  O2-  O121  1  0.15623395  0.76187286  0.62598897  1
  O2-  O122  1  0.15899747  0.75864640  0.86667437  1
  O2-  O123  1  0.37577249  0.26185797  0.13880030  1
  O2-  O124  1  0.38069739  0.26583255  0.38267364  1
  O2-  O125  1  0.40920138  0.25316820  0.62662680  1
  O2-  O126  1  0.38861815  0.25677627  0.88337783  1
  O2-  O127  1  0.40348028  0.74397759  0.14581236  1
  O2-  O128  1  0.38987464  0.74091547  0.35996609  1
  O2-  O129  1  0.33694306  0.75538213  0.61087684  1
  O2-  O130  1  0.33785553  0.75523173  0.87079219  1
  O2-  O131  1  0.57212608  0.24543008  0.13097235  1
  O2-  O132  1  0.49814458  0.14514104  0.37609719  1
  O2-  O133  1  0.60391130  0.31664109  0.55318245  1
  O2-  O134  1  0.70187017  0.20400885  0.87550450  1
  O2-  O135  1  0.61345670  0.74854566  0.10569927  1
  O2-  O136  1  0.69404786  0.74221805  0.37407917  1
  O2-  O137  1  0.66093287  0.73707263  0.62675056  1
  O2-  O138  1  0.57560842  0.74961687  0.89562456  1
  O2-  O139  1  0.87065992  0.25232482  0.10693206  1
  O2-  O140  1  0.92026129  0.23675119  0.37019741  1
  O2-  O141  1  0.89196910  0.24326164  0.65571756  1
  O2-  O142  1  0.89499996  0.26252537  0.90111778  1
  O2-  O143  1  0.89293304  0.73923270  0.14234916  1
  O2-  O144  1  0.90931448  0.74325678  0.35518606  1
  O2-  O145  1  0.85020201  0.74119766  0.63305948  1
  O2-  O146  1  0.96103596  0.72016202  0.89570499  1
  O2-  O147  1  0.13743351  0.16390895  0.01474572  1
  O2-  O148  1  0.15619842  0.13940676  0.24987458  1
  O2-  O149  1  0.08467747  0.14069356  0.49928458  1
  O2-  O150  1  0.13523897  0.14365739  0.74800557  1
  O2-  O151  1  0.16624035  0.63124466  -0.00504476  1
  O2-  O152  1  0.12601139  0.63939845  0.25003523  1
  O2-  O153  1  0.16610191  0.63568382  0.49983697  1
  O2-  O154  1  0.17085579  0.63661860  0.74191093  1
  O2-  O155  1  0.32597007  0.14086305  0.02129104  1
  O2-  O156  1  0.33807797  0.15527438  0.25758296  1
  O2-  O157  1  0.38928402  0.13206141  0.50147089  1
  O2-  O158  1  0.37718377  0.12695526  0.74737716  1
  O2-  O159  1  0.36331564  0.64294084  0.00369196  1
  O2-  O160  1  0.41670905  0.61514381  0.24779459  1
  O2-  O161  1  0.35733186  0.62327678  0.49247263  1
  O2-  O162  1  0.36381287  0.64625305  0.73780657  1
  O2-  O163  1  0.64440458  0.13083346  0.01304565  1
  O2-  O164  1  0.63657654  0.14138133  0.25655047  1
  O2-  O165  1  0.61144898  0.13974378  0.50808771  1
  O2-  O166  1  0.58976533  0.13269995  0.75531521  1
  O2-  O167  1  0.55524593  0.61432122  0.00790260  1
  O2-  O168  1  0.62450072  0.64450184  0.23980501  1
  O2-  O169  1  0.64515185  0.62118801  0.49155333  1
  O2-  O170  1  0.57839510  0.63402516  0.74751369  1
  O2-  O171  1  0.83446490  0.12350059  0.00371862  1
  O2-  O172  1  0.83981195  0.12756691  0.24693184  1
  O2-  O173  1  0.87465781  0.13887462  0.50572958  1
  O2-  O174  1  0.82782853  0.11941035  0.78383579  1
  O2-  O175  1  0.95004512  0.59454664  0.02569727  1
  O2-  O176  1  0.93738869  0.60729170  0.23848102  1
  O2-  O177  1  0.87936349  0.63440543  0.49052475  1
  O2-  O178  1  0.94663461  0.59518891  0.76460613  1
  O2-  O179  1  0.13614962  0.36895449  0.00394238  1
  O2-  O180  1  0.15519069  0.39477199  0.25714814  1
  O2-  O181  1  0.07805101  0.37061524  0.50628575  1
  O2-  O182  1  0.09537888  0.37728160  0.74705745  1
  O2-  O183  1  0.16140403  0.88043442  -0.01695288  1
  O2-  O184  1  0.09111014  0.86864997  0.25177240  1
  O2-  O185  1  0.15224420  0.88357846  0.49739723  1
  O2-  O186  1  0.14802224  0.88158627  0.74605307  1
  O2-  O187  1  0.33486513  0.37926948  0.00892788  1
  O2-  O188  1  0.34271316  0.37664632  0.26042566  1
  O2-  O189  1  0.40439758  0.37573950  0.50846896  1
  O2-  O190  1  0.39629927  0.37520397  0.74724461  1
  O2-  O191  1  0.36962472  0.85414817  0.00199798  1
  O2-  O192  1  0.44412435  0.87707242  0.26833534  1
  O2-  O193  1  0.38091756  0.87312763  0.48318125  1
  O2-  O194  1  0.38623612  0.86228471  0.73958701  1
  O2-  O195  1  0.64146199  0.34490890  -0.00424988  1
  O2-  O196  1  0.67275845  0.35540694  0.21536443  1
  O2-  O197  1  0.55492503  0.31583693  0.36748643  1
  O2-  O198  1  0.57932261  0.32892143  0.81303507  1
  O2-  O199  1  0.56832595  0.88833551  0.01283740  1
  O2-  O200  1  0.62688523  0.84217758  0.24885766  1
  O2-  O201  1  0.66549757  0.85706673  0.50272728  1
  O2-  O202  1  0.60094178  0.85712075  0.75326329  1
  O2-  O203  1  0.82743160  0.38237930  0.01130205  1
  O2-  O204  1  0.83284346  0.34600571  0.25590494  1
  O2-  O205  1  0.86835988  0.34298248  0.50176147  1
  O2-  O206  1  0.85510100  0.37764028  0.77978238  1
  O2-  O207  1  0.97392021  0.86132858  0.03225117  1
  O2-  O208  1  0.91067559  0.87675856  0.24158293  1
  O2-  O209  1  0.87114892  0.84114550  0.49332265  1
  O2-  O210  1  0.91687815  0.85696539  0.75926003  1
  O2-  O211  1  0.00046178  0.11720086  -0.03868527  1
  O2-  O212  1  -0.00612541  0.14556281  0.14261298  1
  O2-  O213  1  0.00590252  -0.14139584  0.59977551  1
  O2-  O214  1  -0.00842522  0.12913276  0.80403481  1
  O2-  O215  1  -0.01326000  0.38724541  0.06471766  1
  O2-  O216  1  -0.00917896  0.38758652  0.22094759  1
  O2-  O217  1  0.01628095  0.65870815  0.60473139  1
  O2-  O218  1  -0.00081004  0.43033134  0.88958530  1
  O2-  O219  1  0.22999694  0.15359205  -0.12086968  1
  O2-  O220  1  0.24716453  -0.14271305  0.34379650  1
  O2-  O221  1  0.24510811  0.13521952  0.40847472  1
  O2-  O222  1  0.25006989  0.14817787  0.60697492  1
  O2-  O223  1  0.24305690  0.35112788  -0.14012119  1
  O2-  O224  1  0.25579021  0.58607291  0.34683675  1
  O2-  O225  1  0.23968151  0.40271315  0.41819797  1
  O2-  O226  1  0.24208190  0.35602519  0.62201520  1
  O2-  O227  1  0.48447177  0.09288413  0.05405150  1
  O2-  O228  1  0.48404581  0.11320009  0.20931394  1
  O2-  O229  1  0.50726968  -0.13150993  0.60046978  1
  O2-  O230  1  0.49248204  0.07731122  0.62171071  1
  O2-  O231  1  0.49284363  0.39864559  0.03756833  1
  O2-  O232  1  0.49912278  0.38985200  0.19894019  1
  O2-  O233  1  0.49670163  0.67461928  0.59488998  1
  O2-  O234  1  0.54132356  0.50920797  0.60937357  1
  O2-  O235  1  0.75971237  -0.14232533  0.12577431  1
  O2-  O236  1  0.76735392  -0.10953761  0.34407472  1
  O2-  O237  1  0.73864152  0.14009165  0.40013809  1
  O2-  O238  1  0.72347630  0.15831477  0.64207084  1
  O2-  O239  1  0.75901215  0.64124285  0.11365453  1
  O2-  O240  1  0.77515042  0.60955753  0.31544170  1
  O2-  O241  1  0.74050117  0.33294887  0.39660361  1
  O2-  O242  1  0.74337829  0.33911650  0.64095373  1
