# generated using pymatgen
data_Gd19Ta56(WO20)8
_symmetry_space_group_name_H-M   'P 1'
_cell_length_a   15.49905312
_cell_length_b   15.45233973
_cell_length_c   15.22524940
_cell_angle_alpha   89.69104578
_cell_angle_beta   89.95791662
_cell_angle_gamma   90.11322872
_symmetry_Int_Tables_number   1
_chemical_formula_structural   Gd19Ta56(WO20)8
_chemical_formula_sum   'Gd19 Ta56 W8 O160'
_cell_volume   3646.33484393
_cell_formula_units_Z   1
loop_
 _symmetry_equiv_pos_site_id
 _symmetry_equiv_pos_as_xyz
  1  'x, y, z'
loop_
 _atom_type_symbol
 _atom_type_oxidation_number
  Gd3+  3.0
  Ta5+  5.0
  W6+  6.0
  O2-  -2.0
loop_
 _atom_site_type_symbol
 _atom_site_label
 _atom_site_symmetry_multiplicity
 _atom_site_fract_x
 _atom_site_fract_y
 _atom_site_fract_z
 _atom_site_occupancy
  Gd3+  Gd0  1  0.24076713  0.24959337  0.50213042  1
  Gd3+  Gd1  1  0.03851581  0.24017323  0.02323547  1
  Gd3+  Gd2  1  0.77873394  0.25525070  0.51222600  1
  Gd3+  Gd3  1  0.01577216  0.26558590  0.51325856  1
  Gd3+  Gd4  1  0.54802797  0.21500035  0.50041795  1
  Gd3+  Gd5  1  -0.00751174  0.74386695  0.22456658  1
  Gd3+  Gd6  1  0.48602172  0.25329376  -0.00983275  1
  Gd3+  Gd7  1  0.74165069  0.74882093  -0.00265405  1
  Gd3+  Gd8  1  0.75554826  0.22816674  0.74959267  1
  Gd3+  Gd9  1  0.74705348  0.24905075  0.27319445  1
  Gd3+  Gd10  1  0.76888765  0.25404836  0.00127887  1
  Gd3+  Gd11  1  0.51455751  0.23660132  0.74070263  1
  Gd3+  Gd12  1  -0.00880838  0.74031235  0.75875368  1
  Gd3+  Gd13  1  0.52137467  0.76877591  0.21495513  1
  Gd3+  Gd14  1  0.50412566  0.77916136  0.49989878  1
  Gd3+  Gd15  1  0.23467891  0.74866139  0.72056011  1
  Gd3+  Gd16  1  0.21498545  0.73371288  0.27173790  1
  Gd3+  Gd17  1  0.76256822  0.76174674  0.24014206  1
  Gd3+  Gd18  1  0.46405078  0.76162448  0.75855814  1
  Ta5+  Ta19  1  0.32115667  0.86188504  0.88643617  1
  Ta5+  Ta20  1  0.62248418  0.36897559  0.13814875  1
  Ta5+  Ta21  1  0.38931266  0.39153428  0.62921408  1
  Ta5+  Ta22  1  0.87961709  0.61510839  0.88624709  1
  Ta5+  Ta23  1  0.88289410  0.87070037  0.88137965  1
  Ta5+  Ta24  1  0.62256184  0.11581607  0.14312848  1
  Ta5+  Ta25  1  0.84324997  0.62562419  0.62580663  1
  Ta5+  Ta26  1  0.05872821  0.61000785  0.37776501  1
  Ta5+  Ta27  1  0.37010206  0.62774468  0.12730585  1
  Ta5+  Ta28  1  0.32211094  0.63317157  0.87800223  1
  Ta5+  Ta29  1  0.37447210  0.10681163  0.62490307  1
  Ta5+  Ta30  1  0.09818006  0.87158942  0.61839969  1
  Ta5+  Ta31  1  0.12515161  0.87900840  0.12173550  1
  Ta5+  Ta32  1  0.89478817  0.87226873  0.37874187  1
  Ta5+  Ta33  1  0.15246549  0.85289078  0.88095314  1
  Ta5+  Ta34  1  0.37032687  0.10622008  0.86853660  1
  Ta5+  Ta35  1  0.12767326  0.12132486  0.37853670  1
  Ta5+  Ta36  1  0.63961956  0.37985419  0.88242249  1
  Ta5+  Ta37  1  0.15058912  0.63349314  0.88125334  1
  Ta5+  Ta38  1  0.13335962  0.10163465  0.88580326  1
  Ta5+  Ta39  1  0.84535474  0.86281070  0.62291850  1
  Ta5+  Ta40  1  0.89970691  0.41209829  0.37671683  1
  Ta5+  Ta41  1  0.65736288  0.44437143  0.63580215  1
  Ta5+  Ta42  1  0.11803321  0.62307534  0.61382912  1
  Ta5+  Ta43  1  0.89043491  0.11781577  0.88522183  1
  Ta5+  Ta44  1  0.11185922  0.39837822  0.37364698  1
  Ta5+  Ta45  1  0.15202650  0.38248149  0.12722250  1
  Ta5+  Ta46  1  0.64368317  0.88271586  0.37428510  1
  Ta5+  Ta47  1  0.62853691  0.64145444  0.37857312  1
  Ta5+  Ta48  1  0.34618573  0.88091189  0.60747265  1
  Ta5+  Ta49  1  0.69074375  0.06602098  0.58483656  1
  Ta5+  Ta50  1  0.63010963  0.11360192  0.88827867  1
  Ta5+  Ta51  1  0.38867633  0.37955634  0.35389986  1
  Ta5+  Ta52  1  0.67693386  0.86462208  0.62980664  1
  Ta5+  Ta53  1  0.89174862  0.12382973  0.14375297  1
  Ta5+  Ta54  1  0.06292161  0.87789005  0.37393594  1
  Ta5+  Ta55  1  0.88403763  0.88394740  0.10990894  1
  Ta5+  Ta56  1  0.87286697  0.60636201  0.11338713  1
  Ta5+  Ta57  1  0.88624309  0.38826135  0.64304231  1
  Ta5+  Ta58  1  0.58381112  0.06070412  0.34641671  1
  Ta5+  Ta59  1  0.61109255  0.60884353  0.12068116  1
  Ta5+  Ta60  1  0.88739163  0.09746198  0.63471841  1
  Ta5+  Ta61  1  0.12801907  0.11326844  0.63891660  1
  Ta5+  Ta62  1  0.38332914  0.39257195  0.11690296  1
  Ta5+  Ta63  1  0.87959499  0.62201671  0.37610852  1
  Ta5+  Ta64  1  0.61355254  0.86662803  0.87398779  1
  Ta5+  Ta65  1  0.34063649  0.13676376  0.12091458  1
  Ta5+  Ta66  1  0.37004247  0.88682993  0.13294165  1
  Ta5+  Ta67  1  0.62544341  0.65064520  0.63721339  1
  Ta5+  Ta68  1  0.10041268  0.61343282  0.11390306  1
  Ta5+  Ta69  1  0.39999157  0.42343273  0.87798690  1
  Ta5+  Ta70  1  0.56622684  0.61689178  0.88111731  1
  Ta5+  Ta71  1  0.90724634  0.11468223  0.34178048  1
  Ta5+  Ta72  1  0.88510619  0.37555975  0.13972533  1
  Ta5+  Ta73  1  0.62572099  0.39530406  0.39337951  1
  Ta5+  Ta74  1  0.34971277  0.88360072  0.34850262  1
  W6+  W75  1  0.35172539  0.13409721  0.35775642  1
  W6+  W76  1  0.18189009  0.12553945  0.14672526  1
  W6+  W77  1  0.14182593  0.37500056  0.64530822  1
  W6+  W78  1  0.35602299  0.62239970  0.37301906  1
  W6+  W79  1  0.89161608  0.37984806  0.88688070  1
  W6+  W80  1  0.19326272  0.40724923  0.89003124  1
  W6+  W81  1  0.37488735  0.63294666  0.60277606  1
  W6+  W82  1  0.61328508  0.93852709  0.11172945  1
  O2-  O83  1  0.16393016  -0.00987464  0.12948906  1
  O2-  O84  1  0.09532452  0.00352889  0.36925435  1
  O2-  O85  1  0.09697021  -0.00572677  0.62268785  1
  O2-  O86  1  0.13177909  -0.01597871  0.88697751  1
  O2-  O87  1  0.09146366  0.48852124  0.10776458  1
  O2-  O88  1  0.15283438  0.51550690  0.38455723  1
  O2-  O89  1  0.13063279  0.50675899  0.63254747  1
  O2-  O90  1  0.12387580  0.51400369  0.88652405  1
  O2-  O91  1  0.35911128  0.01055224  0.13243731  1
  O2-  O92  1  0.33348206  0.00100515  0.36205977  1
  O2-  O93  1  0.40395834  -0.01081589  0.62675820  1
  O2-  O94  1  0.36527757  -0.01120359  0.86119866  1
  O2-  O95  1  0.41440170  0.51181482  0.14905863  1
  O2-  O96  1  0.35640575  0.48371912  0.39649559  1
  O2-  O97  1  0.38701043  0.50098192  0.58726749  1
  O2-  O98  1  0.45514055  0.55908152  0.87529422  1
  O2-  O99  1  0.70887886  0.04202417  0.10555494  1
  O2-  O100  1  0.53578468  -0.05084576  0.38591863  1
  O2-  O101  1  0.61205500  -0.01278850  0.63337480  1
  O2-  O102  1  0.60019650  -0.00386504  0.87958131  1
  O2-  O103  1  0.64631388  0.49052664  0.12302128  1
  O2-  O104  1  0.62643152  0.51662871  0.38480980  1
  O2-  O105  1  0.56885266  0.52979354  0.63697427  1
  O2-  O106  1  0.61656418  0.49792426  0.87097026  1
  O2-  O107  1  0.90628857  0.00530831  0.11358795  1
  O2-  O108  1  0.88788389  0.00409715  0.38235015  1
  O2-  O109  1  0.90794403  -0.01999054  0.63565440  1
  O2-  O110  1  0.90715666  -0.00275446  0.89508657  1
  O2-  O111  1  0.84121361  0.48635378  0.11537078  1
  O2-  O112  1  0.82066787  0.50490135  0.38917340  1
  O2-  O113  1  0.89941590  0.50982688  0.62629732  1
  O2-  O114  1  0.92842639  0.50668943  0.89734580  1
  O2-  O115  1  0.12725551  0.26143220  0.14284784  1
  O2-  O116  1  0.14758356  0.25540045  0.38749493  1
  O2-  O117  1  0.13697722  0.23957603  0.61254107  1
  O2-  O118  1  0.01327023  0.15034755  0.90399869  1
  O2-  O119  1  0.13306197  0.74249805  0.14926806  1
  O2-  O120  1  0.08237153  0.73941422  0.35543124  1
  O2-  O121  1  0.06586707  0.74704932  0.62998546  1
  O2-  O122  1  0.08234278  0.74425413  0.88225442  1
  O2-  O123  1  0.36965745  0.26807988  0.08657071  1
  O2-  O124  1  0.34186947  0.27649884  0.39692093  1
  O2-  O125  1  0.47788755  0.31708342  0.59466337  1
  O2-  O126  1  0.49431328  0.15689531  0.87220132  1
  O2-  O127  1  0.37191395  0.75281386  0.15308123  1
  O2-  O128  1  0.32891108  0.75687533  0.36106003  1
  O2-  O129  1  0.40214700  0.76802382  0.61570044  1
  O2-  O130  1  0.37743588  0.74910301  0.88790206  1
  O2-  O131  1  0.67334102  0.24817759  0.13133420  1
  O2-  O132  1  0.67071400  0.27776146  0.41202691  1
  O2-  O133  1  0.66654072  0.20107686  0.59463977  1
  O2-  O134  1  0.66583529  0.24960825  0.88656672  1
  O2-  O135  1  0.67643122  0.71574057  0.12765196  1
  O2-  O136  1  0.56715632  0.75876883  0.36336811  1
  O2-  O137  1  0.57598036  0.76646190  0.63798373  1
  O2-  O138  1  0.55345540  0.75289937  0.88364057  1
  O2-  O139  1  0.84868965  0.25071754  0.15064266  1
  O2-  O140  1  0.84191401  0.21221123  0.38231014  1
  O2-  O141  1  0.85877217  0.24853825  0.63867225  1
  O2-  O142  1  0.84966843  0.24512146  0.87192347  1
  O2-  O143  1  0.85012454  0.74962662  0.11540197  1
  O2-  O144  1  0.88962187  0.74689978  0.34298595  1
  O2-  O145  1  0.88388357  0.74136453  0.64267263  1
  O2-  O146  1  0.89456792  0.74512124  0.90526648  1
  O2-  O147  1  0.14606156  0.13818649  0.00624878  1
  O2-  O148  1  0.21873047  0.12327515  0.29436304  1
  O2-  O149  1  0.16141851  0.11686043  0.49840035  1
  O2-  O150  1  0.10561072  0.12173538  0.75984777  1
  O2-  O151  1  0.15958928  0.63695795  0.00972381  1
  O2-  O152  1  0.07482404  0.61064935  0.24453390  1
  O2-  O153  1  0.06025699  0.62291559  0.50396560  1
  O2-  O154  1  0.12312551  0.64491983  0.74792110  1
  O2-  O155  1  0.37895106  0.13105702  -0.00838082  1
  O2-  O156  1  0.38739564  0.16288262  0.22929376  1
  O2-  O157  1  0.34609197  0.14089510  0.50877355  1
  O2-  O158  1  0.38464211  0.16213329  0.74652447  1
  O2-  O159  1  0.33545202  0.61924161  0.01184332  1
  O2-  O160  1  0.29652182  0.61752978  0.23223890  1
  O2-  O161  1  0.43198345  0.65381180  0.48028702  1
  O2-  O162  1  0.35133845  0.65417781  0.74564954  1
  O2-  O163  1  0.59253821  0.14573345  0.01394151  1
  O2-  O164  1  0.63283480  0.15716421  0.27109538  1
  O2-  O165  1  0.63136904  0.09245780  0.46984803  1
  O2-  O166  1  0.62497637  0.14808210  0.76704485  1
  O2-  O167  1  0.62907808  0.63010463  -0.01106964  1
  O2-  O168  1  0.59445487  0.62774313  0.24896736  1
  O2-  O169  1  0.62452721  0.65522904  0.50448323  1
  O2-  O170  1  0.60214349  0.64488292  0.76531279  1
  O2-  O171  1  0.88445539  0.15458345  0.01765570  1
  O2-  O172  1  0.81495163  0.11244873  0.24571141  1
  O2-  O173  1  0.81441294  0.11149736  0.52955538  1
  O2-  O174  1  0.90453588  0.12320235  0.76202991  1
  O2-  O175  1  0.81067923  0.61426174  -0.00132622  1
  O2-  O176  1  0.87846359  0.61651615  0.23896033  1
  O2-  O177  1  0.85259823  0.63655042  0.50304554  1
  O2-  O178  1  0.86750918  0.62492480  0.76309941  1
  O2-  O179  1  0.12863788  0.34996327  -0.00608253  1
  O2-  O180  1  0.15455913  0.39493007  0.25360448  1
  O2-  O181  1  0.12059692  0.37494008  0.50102545  1
  O2-  O182  1  0.18234826  0.36868008  0.77184854  1
  O2-  O183  1  0.16067266  0.84754549  0.00766311  1
  O2-  O184  1  0.07940823  0.87050732  0.24510307  1
  O2-  O185  1  0.08476924  0.85904144  0.49476548  1
  O2-  O186  1  0.12608086  0.85688145  0.74855093  1
  O2-  O187  1  0.43576653  0.41585142  0.00014560  1
  O2-  O188  1  0.35043262  0.37315199  0.24033295  1
  O2-  O189  1  0.28016249  0.34530934  0.60804320  1
  O2-  O190  1  0.41160706  0.39522099  0.74881109  1
  O2-  O191  1  0.33630852  0.87446695  0.01523721  1
  O2-  O192  1  0.43810184  0.87808970  0.26615441  1
  O2-  O193  1  0.38243193  0.87366545  0.48008797  1
  O2-  O194  1  0.34161990  0.85731592  0.74393789  1
  O2-  O195  1  0.60791238  0.35504592  0.00864885  1
  O2-  O196  1  0.65409451  0.37355900  0.26564804  1
  O2-  O197  1  0.61614284  0.40114716  0.52508273  1
  O2-  O198  1  0.64337701  0.36652374  0.73854034  1
  O2-  O199  1  0.64399084  0.86136207  -0.00072644  1
  O2-  O200  1  0.64411838  0.85358069  0.24154272  1
  O2-  O201  1  0.64217411  0.84926045  0.49630627  1
  O2-  O202  1  0.66203649  0.85786904  0.76202670  1
  O2-  O203  1  0.92390924  0.34466783  0.02056762  1
  O2-  O204  1  0.84797936  0.37445098  0.26900192  1
  O2-  O205  1  0.89694494  0.35972866  0.49664923  1
  O2-  O206  1  0.84354549  0.38379589  0.75726203  1
  O2-  O207  1  0.82047549  0.88022562  0.00029439  1
  O2-  O208  1  0.86160767  0.87873396  0.23762409  1
  O2-  O209  1  0.87371797  0.85124904  0.49786633  1
  O2-  O210  1  0.87713601  0.86078971  0.76050674  1
  O2-  O211  1  0.00072630  -0.14743951  0.09236374  1
  O2-  O212  1  -0.02011650  0.13324346  0.23691772  1
  O2-  O213  1  0.00459307  0.15159512  0.41255672  1
  O2-  O214  1  -0.00021815  0.14069956  0.59966123  1
  O2-  O215  1  -0.01342306  0.65949505  0.08760833  1
  O2-  O216  1  0.00269828  0.33286072  0.36012506  1
  O2-  O217  1  -0.00149363  0.48847183  0.38476683  1
  O2-  O218  1  0.00327673  0.35523232  0.64284506  1
  O2-  O219  1  0.25136512  0.13612958  -0.13821761  1
  O2-  O220  1  0.27548424  -0.12919887  0.23366767  1
  O2-  O221  1  0.22744541  -0.14143925  0.60003171  1
  O2-  O222  1  0.25070603  0.09868918  0.65409123  1
  O2-  O223  1  0.32047238  0.33537178  -0.10105922  1
  O2-  O224  1  0.26421938  0.41860644  0.09169083  1
  O2-  O225  1  0.23362869  0.66426846  0.59682560  1
  O2-  O226  1  0.30306293  0.50000289  0.85456523  1
  O2-  O227  1  0.49224924  -0.12742934  0.10811134  1
  O2-  O228  1  0.56016995  0.02693811  0.21268807  1
  O2-  O229  1  0.49024765  0.13447755  0.38724952  1
  O2-  O230  1  0.49184250  0.14846137  0.61835728  1
  O2-  O231  1  0.49713591  0.65605477  0.10503085  1
  O2-  O232  1  0.50583022  0.35393502  0.15813731  1
  O2-  O233  1  0.50818312  0.35659291  0.37945627  1
  O2-  O234  1  0.51233128  0.33833454  0.86461946  1
  O2-  O235  1  0.75439013  0.10425709  -0.10139428  1
  O2-  O236  1  0.69483746  -0.00857325  0.34946832  1
  O2-  O237  1  0.75640371  -0.04437096  0.56999688  1
  O2-  O238  1  0.76458092  0.09327784  0.68716832  1
  O2-  O239  1  0.75528624  0.38860235  -0.07248439  1
  O2-  O240  1  0.74355010  0.66430544  0.35452020  1
  O2-  O241  1  0.76388612  0.38887012  0.59445193  1
  O2-  O242  1  0.72806939  0.55480737  0.64266696  1
