# generated using pymatgen
data_Gd19Ta56(WO20)8
_symmetry_space_group_name_H-M   'P 1'
_cell_length_a   15.49836035
_cell_length_b   15.54820751
_cell_length_c   15.38645502
_cell_angle_alpha   89.96681430
_cell_angle_beta   89.85238190
_cell_angle_gamma   90.04739235
_symmetry_Int_Tables_number   1
_chemical_formula_structural   Gd19Ta56(WO20)8
_chemical_formula_sum   'Gd19 Ta56 W8 O160'
_cell_volume   3707.68637379
_cell_formula_units_Z   1
loop_
 _symmetry_equiv_pos_site_id
 _symmetry_equiv_pos_as_xyz
  1  'x, y, z'
loop_
 _atom_type_symbol
 _atom_type_oxidation_number
  Gd3+  3.0
  Ta5+  5.0
  W6+  6.0
  O2-  -2.0
loop_
 _atom_site_type_symbol
 _atom_site_label
 _atom_site_symmetry_multiplicity
 _atom_site_fract_x
 _atom_site_fract_y
 _atom_site_fract_z
 _atom_site_occupancy
  Gd3+  Gd0  1  0.28990135  0.24668063  0.50549161  1
  Gd3+  Gd1  1  -0.01508386  0.75965406  -0.01905470  1
  Gd3+  Gd2  1  0.50026188  0.75429839  0.25827789  1
  Gd3+  Gd3  1  -0.00926130  0.25275047  0.74084098  1
  Gd3+  Gd4  1  0.23754910  0.74634707  0.73889238  1
  Gd3+  Gd5  1  0.70954709  0.24734317  0.49466099  1
  Gd3+  Gd6  1  -0.01047168  0.75857858  0.50884379  1
  Gd3+  Gd7  1  0.75044290  0.73906942  0.51484845  1
  Gd3+  Gd8  1  0.74405590  0.76334890  0.26099511  1
  Gd3+  Gd9  1  -0.00818407  0.75455743  0.25671793  1
  Gd3+  Gd10  1  0.49715260  0.24785129  0.77625802  1
  Gd3+  Gd11  1  -0.01325425  0.25342493  0.01020994  1
  Gd3+  Gd12  1  0.23748878  0.74762582  0.24442237  1
  Gd3+  Gd13  1  0.48029809  0.75523280  0.48976694  1
  Gd3+  Gd14  1  0.72661383  0.26092964  0.74166100  1
  Gd3+  Gd15  1  0.74740145  0.74570867  0.75884515  1
  Gd3+  Gd16  1  0.24140243  0.73603639  0.49777220  1
  Gd3+  Gd17  1  0.50681298  0.75675225  -0.00648638  1
  Gd3+  Gd18  1  0.23172531  0.73799298  -0.00405081  1
  Ta5+  Ta19  1  0.63688758  0.88685775  0.87537911  1
  Ta5+  Ta20  1  0.12059980  0.59913413  0.37507963  1
  Ta5+  Ta21  1  0.59626018  0.37641396  0.37467630  1
  Ta5+  Ta22  1  0.10049695  0.12857753  0.13441096  1
  Ta5+  Ta23  1  0.87735623  0.59870345  0.87825269  1
  Ta5+  Ta24  1  0.18153433  0.12572529  0.37000515  1
  Ta5+  Ta25  1  0.60941410  0.88083584  0.62590777  1
  Ta5+  Ta26  1  0.65530767  0.59622723  0.12709122  1
  Ta5+  Ta27  1  0.58771137  0.38207248  0.62417044  1
  Ta5+  Ta28  1  0.83478245  0.13649734  0.12545556  1
  Ta5+  Ta29  1  0.66722074  0.13749958  0.14380171  1
  Ta5+  Ta30  1  0.85597810  0.37155505  0.36945427  1
  Ta5+  Ta31  1  0.87271774  0.61181211  0.37250432  1
  Ta5+  Ta32  1  0.41875454  0.37610197  0.62472069  1
  Ta5+  Ta33  1  0.59822956  0.61635619  0.63585907  1
  Ta5+  Ta34  1  0.42870341  0.36922854  0.37429377  1
  Ta5+  Ta35  1  0.12493472  0.88276086  0.38226254  1
  Ta5+  Ta36  1  0.12382625  0.37315159  0.87433452  1
  Ta5+  Ta37  1  0.37082807  0.60720797  0.37583754  1
  Ta5+  Ta38  1  0.62143121  0.88722748  0.41064803  1
  Ta5+  Ta39  1  0.62578822  0.89582758  0.13260866  1
  Ta5+  Ta40  1  0.36585418  0.37401236  0.87981857  1
  Ta5+  Ta41  1  0.35346149  0.12285369  0.87778223  1
  Ta5+  Ta42  1  0.43277697  0.12304689  0.62497323  1
  Ta5+  Ta43  1  0.12899445  0.88354701  0.11571641  1
  Ta5+  Ta44  1  0.62641864  0.61646982  0.38586947  1
  Ta5+  Ta45  1  0.62193593  0.62501319  0.88222966  1
  Ta5+  Ta46  1  0.89220902  0.59453964  0.62893322  1
  Ta5+  Ta47  1  0.87105586  0.88752143  0.39082292  1
  Ta5+  Ta48  1  0.58114382  0.12750738  0.37557649  1
  Ta5+  Ta49  1  0.87187826  0.38253331  0.61232694  1
  Ta5+  Ta50  1  0.67671882  0.36466826  0.14830454  1
  Ta5+  Ta51  1  0.15738268  0.35984339  0.62102138  1
  Ta5+  Ta52  1  0.62394279  0.37639773  0.90091200  1
  Ta5+  Ta53  1  0.10198756  0.58510056  0.62409826  1
  Ta5+  Ta54  1  0.37054493  0.61810573  0.87371775  1
  Ta5+  Ta55  1  0.38273752  0.87879420  0.87109025  1
  Ta5+  Ta56  1  0.12676147  0.92964914  0.61952207  1
  Ta5+  Ta57  1  0.41016893  0.12606688  0.37308338  1
  Ta5+  Ta58  1  0.63627684  0.13111514  0.89579696  1
  Ta5+  Ta59  1  0.87374309  0.89503979  0.12632187  1
  Ta5+  Ta60  1  0.83963343  0.12434660  0.62175342  1
  Ta5+  Ta61  1  0.38462357  0.87866048  0.62852976  1
  Ta5+  Ta62  1  0.34209908  0.88722599  0.11630308  1
  Ta5+  Ta63  1  0.37020651  0.88295847  0.36680585  1
  Ta5+  Ta64  1  0.12300148  0.37349189  0.13238158  1
  Ta5+  Ta65  1  0.87242640  0.92698604  0.88569926  1
  Ta5+  Ta66  1  0.86332647  0.36505402  0.88170225  1
  Ta5+  Ta67  1  0.11699587  0.12538351  0.87477315  1
  Ta5+  Ta68  1  0.11705593  0.61255202  0.87296794  1
  Ta5+  Ta69  1  0.84558353  0.35967764  0.13714397  1
  Ta5+  Ta70  1  0.85991722  0.11863380  0.87891526  1
  Ta5+  Ta71  1  0.36092182  0.60862851  0.12396488  1
  Ta5+  Ta72  1  0.39332938  0.61279363  0.63379889  1
  Ta5+  Ta73  1  0.85100547  0.58985890  0.11833679  1
  Ta5+  Ta74  1  0.38173066  0.12796199  0.12898383  1
  W6+  W75  1  0.92283178  0.96643094  0.59848891  1
  W6+  W76  1  0.59701720  0.12646721  0.62846535  1
  W6+  W77  1  0.13252546  0.13458793  0.62195850  1
  W6+  W78  1  0.10233717  0.61817183  0.12779841  1
  W6+  W79  1  0.11084742  0.87710226  0.86038998  1
  W6+  W80  1  0.85168329  0.13731289  0.36941020  1
  W6+  W81  1  0.42519337  0.36351507  0.12612476  1
  W6+  W82  1  0.17613574  0.36062856  0.35694297  1
  O2-  O83  1  0.09387515  -0.00059638  0.12313620  1
  O2-  O84  1  0.15470960  -0.00206686  0.37314623  1
  O2-  O85  1  0.20669997  0.01919144  0.63760024  1
  O2-  O86  1  0.11493777  0.00864372  0.87851106  1
  O2-  O87  1  0.08332743  0.48572204  0.13737608  1
  O2-  O88  1  0.13851089  0.48753407  0.34631450  1
  O2-  O89  1  0.17240813  0.48404795  0.63184908  1
  O2-  O90  1  0.09002389  0.49194156  0.88343175  1
  O2-  O91  1  0.39216453  -0.00272878  0.11887067  1
  O2-  O92  1  0.37140899  -0.00028965  0.38240205  1
  O2-  O93  1  0.40636928  -0.00563839  0.62594745  1
  O2-  O94  1  0.34633390  -0.00726408  0.87735085  1
  O2-  O95  1  0.40352195  0.49958367  0.12235960  1
  O2-  O96  1  0.37309397  0.48876249  0.36922451  1
  O2-  O97  1  0.36882010  0.49649586  0.62708119  1
  O2-  O98  1  0.38744556  0.50119165  0.87941797  1
  O2-  O99  1  0.61491623  0.01083756  0.14934849  1
  O2-  O100  1  0.61094471  -0.00159144  0.37145518  1
  O2-  O101  1  0.59819080  -0.00640262  0.65065366  1
  O2-  O102  1  0.62514268  0.00796488  0.86584106  1
  O2-  O103  1  0.62356348  0.48742060  0.16314386  1
  O2-  O104  1  0.63135616  0.50204043  0.35976196  1
  O2-  O105  1  0.63052861  0.50118219  0.64462260  1
  O2-  O106  1  0.61837797  0.50418952  0.88411441  1
  O2-  O107  1  0.87473837  0.01011464  0.11745133  1
  O2-  O108  1  0.86432041  0.00383394  0.38644578  1
  O2-  O109  1  0.80013166  0.01279602  0.63774873  1
  O2-  O110  1  0.93397372  0.02405227  0.83717436  1
  O2-  O111  1  0.89551692  0.48069544  0.13001621  1
  O2-  O112  1  0.83579630  0.49772977  0.37339869  1
  O2-  O113  1  0.82032963  0.49458780  0.60626681  1
  O2-  O114  1  0.89628674  0.48405854  0.90301411  1
  O2-  O115  1  0.07354542  0.25400335  0.13821307  1
  O2-  O116  1  0.22828389  0.23987622  0.36290838  1
  O2-  O117  1  0.21076992  0.24876560  0.63937241  1
  O2-  O118  1  0.07710799  0.25655785  0.87561820  1
  O2-  O119  1  0.14846475  0.75265055  0.12411015  1
  O2-  O120  1  0.10798907  0.74564965  0.41578634  1
  O2-  O121  1  0.17242967  0.69607291  0.61877689  1
  O2-  O122  1  0.14777172  0.74242397  0.85927602  1
  O2-  O123  1  0.43863260  0.23156561  0.12283135  1
  O2-  O124  1  0.39796499  0.24952692  0.37995461  1
  O2-  O125  1  0.40445079  0.24682844  0.63849330  1
  O2-  O126  1  0.38237720  0.24715563  0.87196556  1
  O2-  O127  1  0.33065338  0.75309165  0.12216469  1
  O2-  O128  1  0.38270200  0.74425602  0.37792574  1
  O2-  O129  1  0.34853200  0.73719017  0.61996152  1
  O2-  O130  1  0.33601264  0.75809635  0.87728289  1
  O2-  O131  1  0.63416113  0.25176212  0.12481419  1
  O2-  O132  1  0.59033673  0.25156138  0.39806491  1
  O2-  O133  1  0.63200139  0.26128045  0.62085434  1
  O2-  O134  1  0.58232172  0.25314196  0.90397716  1
  O2-  O135  1  0.52748408  0.81310307  0.12637188  1
  O2-  O136  1  0.61373593  0.75279377  0.41528500  1
  O2-  O137  1  0.64046435  0.73859491  0.61976741  1
  O2-  O138  1  0.62618758  0.75578667  0.89732423  1
  O2-  O139  1  0.89349632  0.24561168  0.13623915  1
  O2-  O140  1  0.79936840  0.26329688  0.37326927  1
  O2-  O141  1  0.81673712  0.26671339  0.61577863  1
  O2-  O142  1  0.91235681  0.24849308  0.87102911  1
  O2-  O143  1  0.98991292  0.83861570  0.13049214  1
  O2-  O144  1  0.89910870  0.74846322  0.37488390  1
  O2-  O145  1  0.81504165  0.69769008  0.64189466  1
  O2-  O146  1  0.75996434  0.64368368  0.88223397  1
  O2-  O147  1  0.09197671  0.14234504  0.00130974  1
  O2-  O148  1  0.14466002  0.12848049  0.24608444  1
  O2-  O149  1  0.17970911  0.13714607  0.49332350  1
  O2-  O150  1  0.08064326  0.13785041  0.75469089  1
  O2-  O151  1  0.10032309  0.64952333  -0.00474296  1
  O2-  O152  1  0.10895984  0.65931283  0.26128956  1
  O2-  O153  1  0.13393875  0.59330938  0.49894221  1
  O2-  O154  1  0.12298823  0.60503297  0.74903605  1
  O2-  O155  1  0.35188965  0.12470672  0.00072011  1
  O2-  O156  1  0.37128336  0.12287216  0.25103816  1
  O2-  O157  1  0.39332061  0.13122630  0.50665673  1
  O2-  O158  1  0.41441612  0.11730512  0.76175042  1
  O2-  O159  1  0.38798468  0.64849628  0.00478449  1
  O2-  O160  1  0.39231227  0.63987048  0.24322654  1
  O2-  O161  1  0.34432259  0.62223268  0.49896049  1
  O2-  O162  1  0.33496394  0.63054892  0.75297188  1
  O2-  O163  1  0.64718464  0.11607908  0.01392516  1
  O2-  O164  1  0.63483900  0.14172114  0.26568185  1
  O2-  O165  1  0.62626885  0.12137032  0.49438066  1
  O2-  O166  1  0.61740334  0.15847041  0.76368502  1
  O2-  O167  1  0.59854306  0.63642232  0.02314194  1
  O2-  O168  1  0.62035050  0.65647110  0.24514371  1
  O2-  O169  1  0.65891966  0.61203775  0.50725584  1
  O2-  O170  1  0.64720909  0.64098803  0.75875476  1
  O2-  O171  1  0.88929888  0.14260738  -0.00142415  1
  O2-  O172  1  0.82310871  0.12089118  0.24770079  1
  O2-  O173  1  0.81984737  0.14351187  0.49960766  1
  O2-  O174  1  0.86361593  0.15849497  0.74383472  1
  O2-  O175  1  0.89381140  0.63866049  0.00955212  1
  O2-  O176  1  0.88530699  0.63420677  0.24142671  1
  O2-  O177  1  0.87159705  0.63483343  0.49993028  1
  O2-  O178  1  0.87599124  0.58592226  0.75382866  1
  O2-  O179  1  0.12768697  0.35989101  0.00310382  1
  O2-  O180  1  0.20100664  0.36258245  0.22126125  1
  O2-  O181  1  0.16993717  0.35361910  0.49820184  1
  O2-  O182  1  0.10249093  0.36033846  0.74254425  1
  O2-  O183  1  0.08991742  0.85767715  -0.00340134  1
  O2-  O184  1  0.10172579  0.85190119  0.26095640  1
  O2-  O185  1  0.16594040  0.87620836  0.51231186  1
  O2-  O186  1  0.14976878  0.86775867  0.72371819  1
  O2-  O187  1  0.38898868  0.36776982  -0.00216634  1
  O2-  O188  1  0.45116463  0.36972405  0.25326165  1
  O2-  O189  1  0.38899995  0.36436759  0.50341918  1
  O2-  O190  1  0.41686987  0.37556273  0.76229551  1
  O2-  O191  1  0.40128601  0.86214891  -0.00171340  1
  O2-  O192  1  0.38566042  0.86064089  0.24139805  1
  O2-  O193  1  0.35802587  0.85850124  0.50371058  1
  O2-  O194  1  0.33791008  0.86595005  0.74578453  1
  O2-  O195  1  0.64978686  0.38199840  0.01634034  1
  O2-  O196  1  0.65836456  0.35032123  0.26998444  1
  O2-  O197  1  0.62238809  0.38720547  0.50248262  1
  O2-  O198  1  0.60402529  0.35503100  0.75911094  1
  O2-  O199  1  0.62179511  0.88615363  0.00356858  1
  O2-  O200  1  0.62541701  0.84923671  0.25708706  1
  O2-  O201  1  0.69246915  0.87705915  0.52964014  1
  O2-  O202  1  0.64620286  0.85343243  0.74750084  1
  O2-  O203  1  0.85322466  0.34936110  0.00565823  1
  O2-  O204  1  0.89838514  0.36574255  0.25761545  1
  O2-  O205  1  0.89991510  0.37157072  0.49240518  1
  O2-  O206  1  0.88843175  0.36914671  0.74169095  1
  O2-  O207  1  0.87307524  0.86200271  0.00432836  1
  O2-  O208  1  0.87481439  0.86217074  0.25480282  1
  O2-  O209  1  0.86700347  0.84944340  0.51211893  1
  O2-  O210  1  0.76370338  0.86236462  0.86048932  1
  O2-  O211  1  -0.03134323  -0.15229433  -0.13783627  1
  O2-  O212  1  0.00184850  -0.11511495  0.40179710  1
  O2-  O213  1  0.04471685  0.02428937  0.60466952  1
  O2-  O214  1  0.01497340  -0.13513389  0.60336286  1
  O2-  O215  1  -0.01109711  0.65415901  -0.13221397  1
  O2-  O216  1  -0.00390671  0.60056688  0.38202569  1
  O2-  O217  1  -0.00774827  0.51058047  0.61905374  1
  O2-  O218  1  -0.00184554  0.66961734  0.62311905  1
  O2-  O219  1  0.24157792  -0.11637597  0.03403463  1
  O2-  O220  1  0.23684760  -0.10333151  0.18888150  1
  O2-  O221  1  0.24816338  -0.16074637  0.36430745  1
  O2-  O222  1  0.23600958  0.14747072  0.85741001  1
  O2-  O223  1  0.24326416  0.60745675  -0.09660647  1
  O2-  O224  1  0.24312806  0.59984905  0.13193366  1
  O2-  O225  1  0.24706357  0.64122584  0.35779839  1
  O2-  O226  1  0.24521896  0.37514238  0.86327023  1
  O2-  O227  1  0.50228218  -0.12845103  -0.14206901  1
  O2-  O228  1  0.49620133  -0.14059566  0.36541894  1
  O2-  O229  1  0.53843437  -0.11178754  0.51326768  1
  O2-  O230  1  0.49218530  -0.17149579  0.65508534  1
  O2-  O231  1  0.49643951  0.64841267  -0.12170247  1
  O2-  O232  1  0.50028587  0.62873052  0.38044055  1
  O2-  O233  1  0.49830424  0.63016982  0.55668776  1
  O2-  O234  1  0.49341578  0.60778863  0.70923019  1
  O2-  O235  1  0.79637800  0.01889158  -0.07261442  1
  O2-  O236  1  0.74832964  -0.13199960  0.13543217  1
  O2-  O237  1  0.74661596  -0.14110345  0.37829235  1
  O2-  O238  1  0.74771175  0.18304760  0.87321195  1
  O2-  O239  1  0.74900910  0.54648218  0.05961683  1
  O2-  O240  1  0.75401001  0.68211793  0.14057537  1
  O2-  O241  1  0.74945424  0.65879108  0.36698061  1
  O2-  O242  1  0.74298606  0.36725513  0.85453970  1
