# generated using pymatgen
data_Gd19Ta56(WO20)8
_symmetry_space_group_name_H-M   'P 1'
_cell_length_a   15.70939868
_cell_length_b   15.51606840
_cell_length_c   15.22856877
_cell_angle_alpha   89.99935061
_cell_angle_beta   90.11246375
_cell_angle_gamma   89.97358844
_symmetry_Int_Tables_number   1
_chemical_formula_structural   Gd19Ta56(WO20)8
_chemical_formula_sum   'Gd19 Ta56 W8 O160'
_cell_volume   3711.92722548
_cell_formula_units_Z   1
loop_
 _symmetry_equiv_pos_site_id
 _symmetry_equiv_pos_as_xyz
  1  'x, y, z'
loop_
 _atom_type_symbol
 _atom_type_oxidation_number
  Gd3+  3.0
  Ta5+  5.0
  W6+  6.0
  O2-  -2.0
loop_
 _atom_site_type_symbol
 _atom_site_label
 _atom_site_symmetry_multiplicity
 _atom_site_fract_x
 _atom_site_fract_y
 _atom_site_fract_z
 _atom_site_occupancy
  Gd3+  Gd0  1  0.71082376  0.73237914  0.23782857  1
  Gd3+  Gd1  1  0.74774243  0.23638605  0.00294393  1
  Gd3+  Gd2  1  0.51461710  0.25097844  0.51507071  1
  Gd3+  Gd3  1  0.48549107  0.75319961  0.26024014  1
  Gd3+  Gd4  1  0.76933562  0.72065191  -0.00404617  1
  Gd3+  Gd5  1  0.48109682  0.74303394  0.76326633  1
  Gd3+  Gd6  1  0.48373450  0.76337814  -0.00005066  1
  Gd3+  Gd7  1  0.23149304  0.78606324  0.71794215  1
  Gd3+  Gd8  1  0.27479198  0.25475375  0.79139220  1
  Gd3+  Gd9  1  0.03417178  0.77578013  0.21922351  1
  Gd3+  Gd10  1  -0.02617759  0.25605898  0.01203378  1
  Gd3+  Gd11  1  0.70309216  0.24287110  0.24137206  1
  Gd3+  Gd12  1  0.76629917  0.76287503  0.52446721  1
  Gd3+  Gd13  1  -0.00805045  0.23534470  0.50138293  1
  Gd3+  Gd14  1  0.50960456  0.26623458  0.74648519  1
  Gd3+  Gd15  1  0.01973238  0.74181763  0.49513791  1
  Gd3+  Gd16  1  0.77075940  0.24944982  0.75744960  1
  Gd3+  Gd17  1  0.26631775  0.25108389  0.27061935  1
  Gd3+  Gd18  1  0.00239726  0.25069672  0.75538211  1
  Ta5+  Ta19  1  0.42075322  0.39615111  0.89505130  1
  Ta5+  Ta20  1  0.88840241  0.37766627  0.36128250  1
  Ta5+  Ta21  1  0.11493398  0.11952883  0.11676330  1
  Ta5+  Ta22  1  0.91238646  0.63127225  0.87538746  1
  Ta5+  Ta23  1  0.10747779  0.11184338  0.88231812  1
  Ta5+  Ta24  1  0.40626997  0.12208253  0.36802301  1
  Ta5+  Ta25  1  0.13387448  0.12310642  0.37274029  1
  Ta5+  Ta26  1  0.07788632  0.88577659  0.63380983  1
  Ta5+  Ta27  1  0.15142763  0.36721494  0.59268269  1
  Ta5+  Ta28  1  0.66090999  0.85338854  0.85680812  1
  Ta5+  Ta29  1  0.62662253  0.87775597  0.10318753  1
  Ta5+  Ta30  1  0.87388639  0.10615680  0.87301877  1
  Ta5+  Ta31  1  0.14322675  0.88148097  0.37365936  1
  Ta5+  Ta32  1  0.57143635  0.86073840  0.62216954  1
  Ta5+  Ta33  1  0.18130932  0.88075959  0.09708485  1
  Ta5+  Ta34  1  0.91242045  0.87973106  0.62926116  1
  Ta5+  Ta35  1  0.65182359  0.40390066  0.57689031  1
  Ta5+  Ta36  1  0.86141951  0.62395264  0.37605784  1
  Ta5+  Ta37  1  0.57238132  0.11691184  0.35015864  1
  Ta5+  Ta38  1  0.37493393  0.87797368  0.39102145  1
  Ta5+  Ta39  1  0.88124759  0.11639089  0.14039662  1
  Ta5+  Ta40  1  0.11833838  0.39266531  0.88683326  1
  Ta5+  Ta41  1  0.14424687  0.88575980  0.88401135  1
  Ta5+  Ta42  1  0.86811202  0.87584380  0.37292341  1
  Ta5+  Ta43  1  0.35794724  0.12273681  0.61810505  1
  Ta5+  Ta44  1  0.89338723  0.12067696  0.34480780  1
  Ta5+  Ta45  1  0.10876632  0.37953404  0.11992625  1
  Ta5+  Ta46  1  0.64367017  0.09244623  0.58990884  1
  Ta5+  Ta47  1  0.34644004  0.37312885  0.58933411  1
  Ta5+  Ta48  1  0.62299436  0.40583663  0.88136343  1
  Ta5+  Ta49  1  0.84679998  0.37972530  0.59640426  1
  Ta5+  Ta50  1  0.41214906  0.38291303  0.35688322  1
  Ta5+  Ta51  1  0.60885442  0.61018927  0.08729409  1
  Ta5+  Ta52  1  0.34035592  0.63076561  0.88545785  1
  Ta5+  Ta53  1  0.34542200  0.87907873  0.12966593  1
  Ta5+  Ta54  1  0.62020274  0.87608796  0.37407715  1
  Ta5+  Ta55  1  0.36646544  0.36845131  0.11838590  1
  Ta5+  Ta56  1  0.61345054  0.61485021  0.41646581  1
  Ta5+  Ta57  1  0.35392360  0.90106320  0.89408034  1
  Ta5+  Ta58  1  0.63036067  0.60780457  0.87673534  1
  Ta5+  Ta59  1  0.13962273  0.62867257  0.10368271  1
  Ta5+  Ta60  1  0.35331685  0.62289842  0.38585183  1
  Ta5+  Ta61  1  0.84476636  0.10935120  0.60136445  1
  Ta5+  Ta62  1  0.37248650  0.61698000  0.13211686  1
  Ta5+  Ta63  1  0.89244916  0.62524895  0.13585707  1
  Ta5+  Ta64  1  0.57528898  0.38365744  0.33971735  1
  Ta5+  Ta65  1  0.35826651  0.12535767  0.12110716  1
  Ta5+  Ta66  1  0.63800671  0.08155703  0.89797016  1
  Ta5+  Ta67  1  0.90012423  0.61778690  0.62799053  1
  Ta5+  Ta68  1  0.82746463  0.86588710  0.86143568  1
  Ta5+  Ta69  1  0.85924136  0.87072217  0.12247854  1
  Ta5+  Ta70  1  0.43979948  0.13490750  0.89514828  1
  Ta5+  Ta71  1  0.40296582  0.88612192  0.64148909  1
  Ta5+  Ta72  1  0.11594520  0.37975511  0.35909437  1
  Ta5+  Ta73  1  0.15330963  0.12134322  0.62289336  1
  Ta5+  Ta74  1  0.87435921  0.39393778  0.87148200  1
  W6+  W75  1  0.12060189  0.62550824  0.35739169  1
  W6+  W76  1  0.59293277  0.37088522  0.09274295  1
  W6+  W77  1  0.59140253  0.62609344  0.62254664  1
  W6+  W78  1  0.18118936  0.63373665  0.86112089  1
  W6+  W79  1  0.35103770  0.62013663  0.63947410  1
  W6+  W80  1  0.84982644  0.38204956  0.13537911  1
  W6+  W81  1  0.13364359  0.61633392  0.61848123  1
  W6+  W82  1  0.59143779  0.10466529  0.10472811  1
  O2-  O83  1  0.14316093  0.00160853  0.11780544  1
  O2-  O84  1  0.16534280  0.00626947  0.38222789  1
  O2-  O85  1  0.10668653  0.01295496  0.62784306  1
  O2-  O86  1  0.17129130  0.01040704  0.86308454  1
  O2-  O87  1  0.13068777  0.50050548  0.11490616  1
  O2-  O88  1  0.15065528  0.49047988  0.36878567  1
  O2-  O89  1  0.12863902  0.47412885  0.63503331  1
  O2-  O90  1  0.16135991  0.49717019  0.86335665  1
  O2-  O91  1  0.33135188  0.00631542  0.11977855  1
  O2-  O92  1  0.37597791  -0.00088406  0.38318100  1
  O2-  O93  1  0.40463639  0.01861045  0.65281290  1
  O2-  O94  1  0.40116752  0.00965876  0.87753221  1
  O2-  O95  1  0.37312494  0.49439806  0.11709810  1
  O2-  O96  1  0.39093852  0.50347725  0.37274589  1
  O2-  O97  1  0.36145116  0.48031258  0.63464364  1
  O2-  O98  1  0.37221438  0.50824224  0.89408901  1
  O2-  O99  1  0.56079724  -0.02603530  0.12273534  1
  O2-  O100  1  0.62247034  -0.00567136  0.36576495  1
  O2-  O101  1  0.59405398  -0.01089867  0.61804330  1
  O2-  O102  1  0.65035540  -0.01811366  0.83486494  1
  O2-  O103  1  0.57172020  0.50167798  0.11174008  1
  O2-  O104  1  0.60602554  0.51098243  0.35247924  1
  O2-  O105  1  0.64935947  0.50747928  0.63273185  1
  O2-  O106  1  0.68517282  0.49928538  0.83526619  1
  O2-  O107  1  0.86933168  -0.00214793  0.12673873  1
  O2-  O108  1  0.87625209  -0.00195450  0.35770551  1
  O2-  O109  1  0.90657877  0.01165687  0.62739046  1
  O2-  O110  1  0.83335048  -0.00425527  0.87393071  1
  O2-  O111  1  0.85885627  0.51387285  0.14420990  1
  O2-  O112  1  0.87517186  0.50036029  0.36800295  1
  O2-  O113  1  0.87960509  0.49029295  0.63070032  1
  O2-  O114  1  0.86716135  0.51388567  0.87376002  1
  O2-  O115  1  0.09713499  0.24925883  0.11419988  1
  O2-  O116  1  0.15842210  0.25394471  0.37200433  1
  O2-  O117  1  0.08658107  0.25800657  0.62675136  1
  O2-  O118  1  0.06372772  0.23720149  0.89787805  1
  O2-  O119  1  0.14300560  0.76349793  0.11170562  1
  O2-  O120  1  0.08279034  0.76256230  0.35912561  1
  O2-  O121  1  0.10835227  0.75877140  0.62986598  1
  O2-  O122  1  0.18738391  0.77103137  0.85961539  1
  O2-  O123  1  0.30612926  0.24749877  0.12756138  1
  O2-  O124  1  0.38703760  0.25152298  0.36127853  1
  O2-  O125  1  0.39848934  0.25450867  0.62622153  1
  O2-  O126  1  0.45999401  0.25939106  0.89895890  1
  O2-  O127  1  0.40539391  0.75266418  0.12995306  1
  O2-  O128  1  0.39983105  0.73997028  0.38261387  1
  O2-  O129  1  0.36199817  0.76072552  0.65751705  1
  O2-  O130  1  0.38297560  0.76509763  0.88391821  1
  O2-  O131  1  0.64314354  0.23812904  0.10282722  1
  O2-  O132  1  0.57804948  0.24747852  0.34522499  1
  O2-  O133  1  0.55658712  0.34607974  0.62775608  1
  O2-  O134  1  0.74463396  0.14829852  0.86564381  1
  O2-  O135  1  0.64896998  0.74563041  0.08141386  1
  O2-  O136  1  0.59911839  0.72748947  0.36596043  1
  O2-  O137  1  0.53040624  0.74290031  0.61050459  1
  O2-  O138  1  0.66913436  0.72657601  0.87972632  1
  O2-  O139  1  0.84679081  0.24154534  0.12494457  1
  O2-  O140  1  0.91148892  0.24805996  0.36589024  1
  O2-  O141  1  0.88760445  0.24554063  0.61349988  1
  O2-  O142  1  0.88946087  0.25232748  0.87234179  1
  O2-  O143  1  0.82781136  0.73865366  0.13624594  1
  O2-  O144  1  0.89500859  0.74972782  0.40191275  1
  O2-  O145  1  0.89430975  0.74782209  0.61248819  1
  O2-  O146  1  0.85769129  0.73752589  0.86483262  1
  O2-  O147  1  0.16032614  0.13003190  -0.00184798  1
  O2-  O148  1  0.15034555  0.13496299  0.24375608  1
  O2-  O149  1  0.11862898  0.15144680  0.50500265  1
  O2-  O150  1  0.10175319  0.14211606  0.75459387  1
  O2-  O151  1  0.12015256  0.63498098  -0.01498333  1
  O2-  O152  1  0.08721316  0.63998148  0.22075715  1
  O2-  O153  1  0.13394723  0.65156882  0.49010010  1
  O2-  O154  1  0.22461336  0.63486152  0.71291615  1
  O2-  O155  1  0.36136261  0.14036526  -0.00873562  1
  O2-  O156  1  0.33944152  0.12408320  0.25381839  1
  O2-  O157  1  0.41446764  0.13646451  0.50362799  1
  O2-  O158  1  0.39500148  0.16183514  0.77589936  1
  O2-  O159  1  0.37684717  0.64751844  0.00653998  1
  O2-  O160  1  0.41264617  0.62486352  0.25124666  1
  O2-  O161  1  0.32864343  0.62019237  0.50439895  1
  O2-  O162  1  0.39527439  0.62862275  0.77197876  1
  O2-  O163  1  0.69322862  0.09409877  0.01432037  1
  O2-  O164  1  0.62530559  0.11873641  0.23560266  1
  O2-  O165  1  0.60395625  0.12969490  0.47736210  1
  O2-  O166  1  0.56545122  0.17441928  0.63803080  1
  O2-  O167  1  0.54546195  0.62857459  -0.03053223  1
  O2-  O168  1  0.59340116  0.65392500  0.20537952  1
  O2-  O169  1  0.68067036  0.64706901  0.51745085  1
  O2-  O170  1  0.57847290  0.63253781  0.76328698  1
  O2-  O171  1  0.86585278  0.14024757  -0.00157080  1
  O2-  O172  1  0.80629887  0.13174291  0.25203817  1
  O2-  O173  1  0.88883779  0.13151263  0.48463897  1
  O2-  O174  1  0.89128291  0.13979997  0.74823900  1
  O2-  O175  1  0.90767920  0.63484561  0.00597754  1
  O2-  O176  1  0.91359142  0.65283601  0.26215991  1
  O2-  O177  1  0.84815569  0.62393680  0.50342862  1
  O2-  O178  1  0.93423081  0.62560289  0.74738388  1
  O2-  O179  1  0.15856230  0.36427353  0.00208971  1
  O2-  O180  1  0.15862521  0.36138470  0.23610020  1
  O2-  O181  1  0.08304778  0.35770569  0.48301490  1
  O2-  O182  1  0.14626674  0.32901651  0.78653039  1
  O2-  O183  1  0.08509408  0.88637002  -0.01254734  1
  O2-  O184  1  0.13683000  0.87946242  0.24595048  1
  O2-  O185  1  0.08697785  0.87863886  0.49089261  1
  O2-  O186  1  0.10049719  0.88379626  0.76215940  1
  O2-  O187  1  0.34827756  0.36077148  -0.00723264  1
  O2-  O188  1  0.33855834  0.37717085  0.24632513  1
  O2-  O189  1  0.42135516  0.36641925  0.48991681  1
  O2-  O190  1  0.36934247  0.35469324  0.78777909  1
  O2-  O191  1  0.41010042  0.88614725  0.01342016  1
  O2-  O192  1  0.36679588  0.86844893  0.25377755  1
  O2-  O193  1  0.38443790  0.88068812  0.51959360  1
  O2-  O194  1  0.33235049  0.88887777  0.76580831  1
  O2-  O195  1  0.68615910  0.37086290  -0.01266017  1
  O2-  O196  1  0.62782958  0.36732533  0.22566045  1
  O2-  O197  1  0.60416203  0.37064841  0.46502275  1
  O2-  O198  1  0.65262098  0.30563556  0.81619205  1
  O2-  O199  1  0.60671776  0.87037508  -0.02326509  1
  O2-  O200  1  0.60944964  0.84208105  0.24197049  1
  O2-  O201  1  0.64147391  0.85112331  0.49892914  1
  O2-  O202  1  0.60931897  0.83836517  0.73909445  1
  O2-  O203  1  0.86171026  0.36258520  -0.00538396  1
  O2-  O204  1  0.80872940  0.35619981  0.27155512  1
  O2-  O205  1  0.91555814  0.36369806  0.49052476  1
  O2-  O206  1  0.87353787  0.36186917  0.74400715  1
  O2-  O207  1  0.84943446  0.85911297  -0.00208116  1
  O2-  O208  1  0.90710303  0.85407056  0.24759590  1
  O2-  O209  1  0.86076213  0.88336227  0.50119937  1
  O2-  O210  1  0.86804774  0.87219266  0.74337233  1
  O2-  O211  1  -0.00019990  0.11694608  0.07839225  1
  O2-  O212  1  -0.03761776  0.12128557  0.23495872  1
  O2-  O213  1  0.01837630  0.11398247  0.38355186  1
  O2-  O214  1  -0.00620687  0.07295650  0.88992181  1
  O2-  O215  1  -0.00918872  0.37964941  0.10786536  1
  O2-  O216  1  0.00255960  0.38735442  0.31667531  1
  O2-  O217  1  0.00627307  0.60942118  0.57508365  1
  O2-  O218  1  -0.00141815  0.39914896  0.88028785  1
  O2-  O219  1  0.25072110  -0.10978670  -0.02596395  1
  O2-  O220  1  0.25255004  -0.15354900  0.39886736  1
  O2-  O221  1  0.25868182  0.08457618  0.55584859  1
  O2-  O222  1  0.25396157  0.15172803  0.69475246  1
  O2-  O223  1  0.25618025  0.63370413  0.13845720  1
  O2-  O224  1  0.25046101  0.63747184  0.33251616  1
  O2-  O225  1  0.24706447  0.38651823  0.51157472  1
  O2-  O226  1  0.24956111  0.32169541  0.65852501  1
  O2-  O227  1  0.53414194  0.08867390  -0.02706665  1
  O2-  O228  1  0.47037510  0.14011816  0.14115773  1
  O2-  O229  1  0.49965830  -0.12889519  0.37847186  1
  O2-  O230  1  0.56124307  0.14140420  0.82198873  1
  O2-  O231  1  0.52755021  0.40803795  -0.03005246  1
  O2-  O232  1  0.47373634  0.33140205  0.13595890  1
  O2-  O233  1  0.52424245  0.59975428  0.49367075  1
  O2-  O234  1  0.52039270  0.41021375  0.80796732  1
  O2-  O235  1  0.74246303  -0.11827514  0.15480441  1
  O2-  O236  1  0.74846437  -0.15921181  0.35642166  1
  O2-  O237  1  0.75408469  0.05408531  0.53818381  1
  O2-  O238  1  0.73632925  0.14053217  0.66978321  1
  O2-  O239  1  0.70152842  0.59124179  -0.00500125  1
  O2-  O240  1  0.74385066  0.63495665  0.34874199  1
  O2-  O241  1  0.76497586  0.41873408  0.51111267  1
  O2-  O242  1  0.73484830  0.33379460  0.64347388  1
