# generated using pymatgen
data_Gd19Ta56(WO20)8
_symmetry_space_group_name_H-M   'P 1'
_cell_length_a   15.51934302
_cell_length_b   15.51150133
_cell_length_c   15.37300976
_cell_angle_alpha   90.10558792
_cell_angle_beta   90.04344691
_cell_angle_gamma   89.94860014
_symmetry_Int_Tables_number   1
_chemical_formula_structural   Gd19Ta56(WO20)8
_chemical_formula_sum   'Gd19 Ta56 W8 O160'
_cell_volume   3700.70982430
_cell_formula_units_Z   1
loop_
 _symmetry_equiv_pos_site_id
 _symmetry_equiv_pos_as_xyz
  1  'x, y, z'
loop_
 _atom_type_symbol
 _atom_type_oxidation_number
  Gd3+  3.0
  Ta5+  5.0
  W6+  6.0
  O2-  -2.0
loop_
 _atom_site_type_symbol
 _atom_site_label
 _atom_site_symmetry_multiplicity
 _atom_site_fract_x
 _atom_site_fract_y
 _atom_site_fract_z
 _atom_site_occupancy
  Gd3+  Gd0  1  0.24822317  0.74872864  0.26491276  1
  Gd3+  Gd1  1  0.00557992  0.74572818  0.48717238  1
  Gd3+  Gd2  1  0.01454642  0.25227421  0.75255620  1
  Gd3+  Gd3  1  0.50160580  0.24328070  0.79490564  1
  Gd3+  Gd4  1  0.24411299  0.74902401  -0.00394572  1
  Gd3+  Gd5  1  0.00010223  0.24805982  -0.01770767  1
  Gd3+  Gd6  1  0.75587272  0.75058030  0.23542390  1
  Gd3+  Gd7  1  0.00708738  0.73673961  0.74455665  1
  Gd3+  Gd8  1  0.75005351  0.25119320  0.21618909  1
  Gd3+  Gd9  1  0.26729880  0.24620630  0.50228292  1
  Gd3+  Gd10  1  0.24805927  0.24096506  0.22278022  1
  Gd3+  Gd11  1  0.49960069  0.74574967  0.51294336  1
  Gd3+  Gd12  1  0.74145689  0.24869406  0.49894268  1
  Gd3+  Gd13  1  0.26766693  0.74052866  0.72825980  1
  Gd3+  Gd14  1  0.73610423  0.24450445  0.74009436  1
  Gd3+  Gd15  1  -0.01888747  0.74594921  0.00245142  1
  Gd3+  Gd16  1  0.72491172  0.75157670  0.49507000  1
  Gd3+  Gd17  1  0.71860529  0.76165952  0.72801465  1
  Gd3+  Gd18  1  0.27148558  0.26861569  0.74717888  1
  Ta5+  Ta19  1  0.62453909  0.61728518  0.36145525  1
  Ta5+  Ta20  1  0.91378965  0.36834913  0.12352115  1
  Ta5+  Ta21  1  0.65833344  0.61691705  0.87372439  1
  Ta5+  Ta22  1  0.63238003  0.88786121  0.36338225  1
  Ta5+  Ta23  1  0.07421527  0.11872256  0.12767808  1
  Ta5+  Ta24  1  0.13221471  0.41293309  0.88710781  1
  Ta5+  Ta25  1  0.38224248  0.61807204  0.87429080  1
  Ta5+  Ta26  1  0.88317301  0.12548228  0.37069470  1
  Ta5+  Ta27  1  0.89145497  0.12264250  0.62160181  1
  Ta5+  Ta28  1  0.41870442  0.12856261  0.11903086  1
  Ta5+  Ta29  1  0.37163329  0.37471585  0.88987228  1
  Ta5+  Ta30  1  0.62720694  0.60284460  0.62090601  1
  Ta5+  Ta31  1  0.58216403  0.36993901  0.11729672  1
  Ta5+  Ta32  1  0.58339214  0.13184134  0.61625979  1
  Ta5+  Ta33  1  0.87327857  0.87878585  0.62202634  1
  Ta5+  Ta34  1  0.12623891  0.61165509  0.36808359  1
  Ta5+  Ta35  1  0.86754387  0.61934142  0.85964075  1
  Ta5+  Ta36  1  0.15242143  0.11701790  0.88492550  1
  Ta5+  Ta37  1  0.87906867  0.87767429  0.36417061  1
  Ta5+  Ta38  1  0.60342139  0.87464682  0.11844184  1
  Ta5+  Ta39  1  0.08528996  0.36469527  0.12866348  1
  Ta5+  Ta40  1  0.58561778  0.12720468  0.12009091  1
  Ta5+  Ta41  1  0.61983882  0.12511916  0.35980664  1
  Ta5+  Ta42  1  0.12068159  0.12492210  0.37179926  1
  Ta5+  Ta43  1  0.90587477  0.12182217  0.12227158  1
  Ta5+  Ta44  1  0.11021307  0.60291826  0.87297349  1
  Ta5+  Ta45  1  0.41411478  0.37200303  0.13184053  1
  Ta5+  Ta46  1  0.13443973  0.61206339  0.61854003  1
  Ta5+  Ta47  1  0.11778422  0.36745901  0.37500681  1
  Ta5+  Ta48  1  0.62480663  0.37353476  0.36112079  1
  Ta5+  Ta49  1  0.12464074  0.12058432  0.62457820  1
  Ta5+  Ta50  1  0.13401557  0.88390051  0.11570322  1
  Ta5+  Ta51  1  0.38514719  0.62297956  0.12465814  1
  Ta5+  Ta52  1  0.61996015  0.62029066  0.11425834  1
  Ta5+  Ta53  1  0.38598703  0.60442769  0.62093982  1
  Ta5+  Ta54  1  0.37357543  0.88335570  0.12421257  1
  Ta5+  Ta55  1  0.10444500  0.87921333  0.86752704  1
  Ta5+  Ta56  1  0.85178751  0.11717247  0.87831927  1
  Ta5+  Ta57  1  0.64369413  0.38037477  0.88454922  1
  Ta5+  Ta58  1  0.84658135  0.37812738  0.87948808  1
  Ta5+  Ta59  1  0.87112090  0.61083852  0.11249382  1
  Ta5+  Ta60  1  0.64962875  0.11230715  0.88606255  1
  Ta5+  Ta61  1  0.37909950  0.61427723  0.37256785  1
  Ta5+  Ta62  1  0.37797062  0.11506811  0.36102087  1
  Ta5+  Ta63  1  0.35981439  0.88307651  0.61255200  1
  Ta5+  Ta64  1  0.88225181  0.37351761  0.62543716  1
  Ta5+  Ta65  1  0.63120266  0.93878365  0.61255275  1
  Ta5+  Ta66  1  0.88055265  0.61704987  0.36317386  1
  Ta5+  Ta67  1  0.11801764  0.60967464  0.11584759  1
  Ta5+  Ta68  1  0.39721784  0.87975199  0.36991767  1
  Ta5+  Ta69  1  0.12815842  0.87547601  0.62113531  1
  Ta5+  Ta70  1  0.89039695  0.88240700  0.86496180  1
  Ta5+  Ta71  1  0.35854429  0.11101236  0.88500172  1
  Ta5+  Ta72  1  0.38358393  0.36783342  0.35963352  1
  Ta5+  Ta73  1  0.87351578  0.61785269  0.61757171  1
  Ta5+  Ta74  1  0.58154115  0.36222431  0.61862398  1
  W6+  W75  1  0.11938664  0.37711292  0.62732956  1
  W6+  W76  1  0.41921501  0.11770951  0.62384247  1
  W6+  W77  1  0.37716821  0.86261095  0.87195403  1
  W6+  W78  1  0.41798592  0.35532677  0.61898703  1
  W6+  W79  1  0.85272619  0.88148737  0.10455895  1
  W6+  W80  1  0.61524371  0.87584399  0.86589933  1
  W6+  W81  1  0.86294477  0.37168480  0.37204516  1
  W6+  W82  1  0.11061517  0.87572204  0.36915954  1
  O2-  O83  1  0.07380695  -0.01384897  0.12452456  1
  O2-  O84  1  0.12281845  0.00750004  0.37368316  1
  O2-  O85  1  0.13787355  -0.00251821  0.62760748  1
  O2-  O86  1  0.12374529  -0.00050025  0.85909931  1
  O2-  O87  1  0.11675996  0.49210534  0.12453646  1
  O2-  O88  1  0.14662950  0.49016210  0.36690038  1
  O2-  O89  1  0.08264010  0.50879316  0.63677949  1
  O2-  O90  1  0.05461881  0.50389177  0.92540950  1
  O2-  O91  1  0.40610557  -0.00326709  0.12377108  1
  O2-  O92  1  0.34653750  -0.00663227  0.37543620  1
  O2-  O93  1  0.34525680  0.00030331  0.61690521  1
  O2-  O94  1  0.37523221  -0.00676246  0.87830474  1
  O2-  O95  1  0.39517972  0.50495086  0.13548571  1
  O2-  O96  1  0.36898640  0.49305433  0.36772353  1
  O2-  O97  1  0.38783453  0.48696918  0.61906174  1
  O2-  O98  1  0.39042957  0.49944223  0.87750652  1
  O2-  O99  1  0.59697549  -0.00346207  0.13119640  1
  O2-  O100  1  0.65876800  0.00833241  0.37573264  1
  O2-  O101  1  0.69271925  0.04084242  0.61441413  1
  O2-  O102  1  0.59639524  0.00923511  0.86299148  1
  O2-  O103  1  0.59869943  0.50104008  0.12047867  1
  O2-  O104  1  0.64344750  0.49719687  0.37031641  1
  O2-  O105  1  0.61618607  0.48258458  0.61237771  1
  O2-  O106  1  0.61601128  0.50001730  0.87020082  1
  O2-  O107  1  0.86630320  0.00891979  0.11883521  1
  O2-  O108  1  0.88516191  0.00143781  0.36626588  1
  O2-  O109  1  0.89298883  -0.00078261  0.63509130  1
  O2-  O110  1  0.89399969  0.00459994  0.85132860  1
  O2-  O111  1  0.87456473  0.49140494  0.12131757  1
  O2-  O112  1  0.85378640  0.50340289  0.36905642  1
  O2-  O113  1  0.88487768  0.49901020  0.63238509  1
  O2-  O114  1  0.86176129  0.49773201  0.85389942  1
  O2-  O115  1  0.11204330  0.24101146  0.12579418  1
  O2-  O116  1  0.17420243  0.24763662  0.36602564  1
  O2-  O117  1  0.17309197  0.24024957  0.63614276  1
  O2-  O118  1  0.09512651  0.23103276  0.87300207  1
  O2-  O119  1  0.10956821  0.75701706  0.08780249  1
  O2-  O120  1  0.11268199  0.74006722  0.37424036  1
  O2-  O121  1  0.09513485  0.74194675  0.61751484  1
  O2-  O122  1  0.09588213  0.74101736  0.88828841  1
  O2-  O123  1  0.38191459  0.24878556  0.13371834  1
  O2-  O124  1  0.34178794  0.24146483  0.35343643  1
  O2-  O125  1  0.35117218  0.23507239  0.62974675  1
  O2-  O126  1  0.37642087  0.24462561  0.88260032  1
  O2-  O127  1  0.30778579  0.73793890  0.12841795  1
  O2-  O128  1  0.39628109  0.75407823  0.38658956  1
  O2-  O129  1  0.38894426  0.74603437  0.61003685  1
  O2-  O130  1  0.31216221  0.73254696  0.86654540  1
  O2-  O131  1  0.62919762  0.24984615  0.12225698  1
  O2-  O132  1  0.66261998  0.24697957  0.35685030  1
  O2-  O133  1  0.65084721  0.24812011  0.62087338  1
  O2-  O134  1  0.64083080  0.24452064  0.86869816  1
  O2-  O135  1  0.65694517  0.75227885  0.12686207  1
  O2-  O136  1  0.61175912  0.75810080  0.38183750  1
  O2-  O137  1  0.62515824  0.74057758  0.60940110  1
  O2-  O138  1  0.65930274  0.74357548  0.85996183  1
  O2-  O139  1  0.86397012  0.24651719  0.10299950  1
  O2-  O140  1  0.83216656  0.24019227  0.37757810  1
  O2-  O141  1  0.83590840  0.24404333  0.62482325  1
  O2-  O142  1  0.85942821  0.24653508  0.87945766  1
  O2-  O143  1  0.85830645  0.74498110  0.10387908  1
  O2-  O144  1  0.90730600  0.75262774  0.37108948  1
  O2-  O145  1  0.91391187  0.75193448  0.62202740  1
  O2-  O146  1  0.90745294  0.75037833  0.86847910  1
  O2-  O147  1  0.09211473  0.12065435  0.00022530  1
  O2-  O148  1  0.14036361  0.12895308  0.24677757  1
  O2-  O149  1  0.16345240  0.13491797  0.49627271  1
  O2-  O150  1  0.09428244  0.12528643  0.74441810  1
  O2-  O151  1  0.16596045  0.62098176  -0.00211881  1
  O2-  O152  1  0.15486048  0.63447506  0.23372698  1
  O2-  O153  1  0.10472551  0.61857340  0.49431685  1
  O2-  O154  1  0.14465847  0.64963087  0.74644645  1
  O2-  O155  1  0.41823045  0.12523138  -0.00472513  1
  O2-  O156  1  0.34227223  0.11937612  0.23758447  1
  O2-  O157  1  0.37410772  0.13464651  0.48433800  1
  O2-  O158  1  0.41961988  0.12621764  0.76815418  1
  O2-  O159  1  0.35899762  0.63173054  0.00065849  1
  O2-  O160  1  0.35746928  0.64054616  0.24806578  1
  O2-  O161  1  0.41202983  0.62033220  0.49448089  1
  O2-  O162  1  0.36291244  0.62342183  0.74702913  1
  O2-  O163  1  0.59676253  0.13013836  -0.00211137  1
  O2-  O164  1  0.65655415  0.12882548  0.23857952  1
  O2-  O165  1  0.61623212  0.14409164  0.48835929  1
  O2-  O166  1  0.59871070  0.14327770  0.74112614  1
  O2-  O167  1  0.66606298  0.62208141  0.00109972  1
  O2-  O168  1  0.66002361  0.62813796  0.23793294  1
  O2-  O169  1  0.60953539  0.62858466  0.48942661  1
  O2-  O170  1  0.66247574  0.61673468  0.73985451  1
  O2-  O171  1  0.91699729  0.12446150  -0.01205571  1
  O2-  O172  1  0.86443825  0.14019867  0.24776670  1
  O2-  O173  1  0.84618126  0.12192754  0.50129446  1
  O2-  O174  1  0.90632848  0.14695993  0.74690477  1
  O2-  O175  1  0.88362806  0.61935199  -0.01458521  1
  O2-  O176  1  0.85415551  0.63421314  0.23872418  1
  O2-  O177  1  0.90590952  0.62887853  0.49343118  1
  O2-  O178  1  0.83841747  0.65376174  0.73709451  1
  O2-  O179  1  0.11128032  0.35786320  -0.00218422  1
  O2-  O180  1  0.13654707  0.35784972  0.24852658  1
  O2-  O181  1  0.16598168  0.36086628  0.49202391  1
  O2-  O182  1  0.09778433  0.37736027  0.77370092  1
  O2-  O183  1  0.16632896  0.87607431  -0.02034628  1
  O2-  O184  1  0.13998318  0.85003206  0.23447989  1
  O2-  O185  1  0.08120369  0.87503447  0.50751492  1
  O2-  O186  1  0.16144153  0.84661107  0.75186055  1
  O2-  O187  1  0.39113892  0.37651843  0.00979299  1
  O2-  O188  1  0.33179763  0.36873722  0.24403840  1
  O2-  O189  1  0.37517358  0.35097782  0.48221609  1
  O2-  O190  1  0.40080953  0.35601925  0.76161833  1
  O2-  O191  1  0.36915523  0.84429849  0.00762596  1
  O2-  O192  1  0.34982828  0.85948344  0.25421285  1
  O2-  O193  1  0.42343343  0.87771102  0.50048897  1
  O2-  O194  1  0.36109581  0.86129531  0.73385140  1
  O2-  O195  1  0.57933604  0.36709243  -0.00914959  1
  O2-  O196  1  0.65062033  0.37026797  0.23701946  1
  O2-  O197  1  0.62518776  0.35325966  0.48935200  1
  O2-  O198  1  0.58760861  0.35777621  0.74649322  1
  O2-  O199  1  0.60933121  0.87141430  0.00011936  1
  O2-  O200  1  0.66105723  0.87262807  0.24377555  1
  O2-  O201  1  0.61065827  0.88113345  0.50071838  1
  O2-  O202  1  0.62976693  0.88536058  0.72316501  1
  O2-  O203  1  0.91865889  0.37471464  -0.01337134  1
  O2-  O204  1  0.86496588  0.35117918  0.23862498  1
  O2-  O205  1  0.83648811  0.36960452  0.50886580  1
  O2-  O206  1  0.90548152  0.35423692  0.75152661  1
  O2-  O207  1  0.82699434  0.87733594  -0.03219653  1
  O2-  O208  1  0.85697455  0.86457950  0.24285994  1
  O2-  O209  1  0.89906105  0.87136506  0.49830240  1
  O2-  O210  1  0.83290088  0.85874863  0.74938364  1
  O2-  O211  1  -0.00074333  -0.11955122  -0.05550874  1
  O2-  O212  1  0.00216334  0.15264050  0.38561879  1
  O2-  O213  1  0.00639589  0.14814361  0.59013621  1
  O2-  O214  1  0.00237773  -0.12257088  0.78070916  1
  O2-  O215  1  -0.00170645  0.62597026  0.11626761  1
  O2-  O216  1  0.00443684  0.60398203  0.34241098  1
  O2-  O217  1  0.00241928  0.35704370  0.38649267  1
  O2-  O218  1  -0.00667156  0.61210555  0.81845879  1
  O2-  O219  1  0.25143719  0.10709873  -0.04211208  1
  O2-  O220  1  0.25025761  -0.08475667  0.12091240  1
  O2-  O221  1  0.24475764  -0.15766227  0.58867207  1
  O2-  O222  1  0.25152681  0.13888722  0.80286515  1
  O2-  O223  1  0.24918324  0.35649754  -0.12538053  1
  O2-  O224  1  0.25507955  0.63995417  0.38232501  1
  O2-  O225  1  0.25594301  0.62322662  0.60585403  1
  O2-  O226  1  0.19884297  0.51949956  0.85040170  1
  O2-  O227  1  0.49097400  -0.16009074  0.14874222  1
  O2-  O228  1  0.50992100  -0.09369473  0.33955138  1
  O2-  O229  1  0.49846983  0.11629137  0.34784085  1
  O2-  O230  1  0.52693374  0.00718484  0.61385404  1
  O2-  O231  1  0.50132816  0.65656218  0.11911043  1
  O2-  O232  1  0.50473050  0.61601277  0.33963696  1
  O2-  O233  1  0.50291712  0.36020729  0.34934624  1
  O2-  O234  1  0.50755107  0.62029942  0.64219324  1
  O2-  O235  1  0.75388850  0.09339170  -0.04652735  1
  O2-  O236  1  0.75628394  -0.14272664  0.39184209  1
  O2-  O237  1  0.75188921  -0.13443584  0.59729423  1
  O2-  O238  1  0.75071401  0.11287968  0.79734443  1
  O2-  O239  1  0.74697829  0.38406591  -0.04297974  1
  O2-  O240  1  0.75421687  0.66082754  0.37936515  1
  O2-  O241  1  0.75306020  0.62929858  0.58405861  1
  O2-  O242  1  0.74418513  0.37633414  0.79733097  1
