# generated using pymatgen
data_Gd19Ta56(WO20)8
_symmetry_space_group_name_H-M   'P 1'
_cell_length_a   15.45630246
_cell_length_b   15.42542755
_cell_length_c   15.12595318
_cell_angle_alpha   89.84804059
_cell_angle_beta   90.43864921
_cell_angle_gamma   90.25129581
_symmetry_Int_Tables_number   1
_chemical_formula_structural   Gd19Ta56(WO20)8
_chemical_formula_sum   'Gd19 Ta56 W8 O160'
_cell_volume   3606.17813491
_cell_formula_units_Z   1
loop_
 _symmetry_equiv_pos_site_id
 _symmetry_equiv_pos_as_xyz
  1  'x, y, z'
loop_
 _atom_type_symbol
 _atom_type_oxidation_number
  Gd3+  3.0
  Ta5+  5.0
  W6+  6.0
  O2-  -2.0
loop_
 _atom_site_type_symbol
 _atom_site_label
 _atom_site_symmetry_multiplicity
 _atom_site_fract_x
 _atom_site_fract_y
 _atom_site_fract_z
 _atom_site_occupancy
  Gd3+  Gd0  1  0.02977903  0.23515531  0.51252104  1
  Gd3+  Gd1  1  0.48402887  0.23561107  0.28107953  1
  Gd3+  Gd2  1  0.72319752  0.25015055  0.74065295  1
  Gd3+  Gd3  1  0.29338199  0.76190191  0.28301821  1
  Gd3+  Gd4  1  0.73099386  0.75819654  0.25712213  1
  Gd3+  Gd5  1  0.05815847  0.73743630  0.24018881  1
  Gd3+  Gd6  1  0.01209944  0.74742941  0.00954467  1
  Gd3+  Gd7  1  0.25476982  0.76005312  0.02340284  1
  Gd3+  Gd8  1  0.45889184  0.76514780  0.51925491  1
  Gd3+  Gd9  1  0.07185791  0.73487856  0.46694040  1
  Gd3+  Gd10  1  0.50733162  0.24554232  0.03520477  1
  Gd3+  Gd11  1  0.50630302  0.76432525  0.74628768  1
  Gd3+  Gd12  1  0.75889495  0.23987203  0.00272312  1
  Gd3+  Gd13  1  0.74694057  0.74879571  0.74122846  1
  Gd3+  Gd14  1  0.72068702  0.22623581  0.24312875  1
  Gd3+  Gd15  1  0.25842942  0.75683017  0.74257099  1
  Gd3+  Gd16  1  0.01506945  0.25622471  0.22798204  1
  Gd3+  Gd17  1  0.49642636  0.75597921  -0.01176931  1
  Gd3+  Gd18  1  0.74432905  0.75845155  0.49560154  1
  Ta5+  Ta19  1  0.33177152  0.14577053  0.12788068  1
  Ta5+  Ta20  1  0.37320966  0.89820013  0.86798384  1
  Ta5+  Ta21  1  0.13607656  0.36577685  0.85881705  1
  Ta5+  Ta22  1  0.88294450  0.36210508  0.62241588  1
  Ta5+  Ta23  1  0.41166182  0.37007844  0.87666639  1
  Ta5+  Ta24  1  0.40067481  0.36460502  0.63215947  1
  Ta5+  Ta25  1  0.14833698  0.95671796  0.11501431  1
  Ta5+  Ta26  1  0.89130223  0.37070153  0.87751826  1
  Ta5+  Ta27  1  0.41296248  0.13705570  0.87667611  1
  Ta5+  Ta28  1  0.89987395  0.87752686  0.38824329  1
  Ta5+  Ta29  1  0.37614479  0.61463252  0.86597948  1
  Ta5+  Ta30  1  0.06624195  0.61601656  0.64848101  1
  Ta5+  Ta31  1  0.13221050  0.36958589  0.62814229  1
  Ta5+  Ta32  1  0.85056708  0.37795290  0.13005353  1
  Ta5+  Ta33  1  0.85892651  0.12051226  0.37701694  1
  Ta5+  Ta34  1  0.58792420  0.62569363  0.37532498  1
  Ta5+  Ta35  1  0.32460420  0.14379023  0.39172931  1
  Ta5+  Ta36  1  0.87540342  0.11406889  0.85892062  1
  Ta5+  Ta37  1  0.40694767  0.91378727  0.38181199  1
  Ta5+  Ta38  1  0.63235448  0.63122858  0.12322033  1
  Ta5+  Ta39  1  0.57615203  0.88187513  0.38400436  1
  Ta5+  Ta40  1  0.61924525  0.60395858  0.62068765  1
  Ta5+  Ta41  1  0.15875338  0.14665322  0.35718897  1
  Ta5+  Ta42  1  0.55405993  0.15820926  0.61350900  1
  Ta5+  Ta43  1  0.86112729  0.37557171  0.37208586  1
  Ta5+  Ta44  1  0.38734544  0.61237214  0.12598821  1
  Ta5+  Ta45  1  0.35091179  0.36709211  0.12897250  1
  Ta5+  Ta46  1  0.63153474  0.92740337  0.62392189  1
  Ta5+  Ta47  1  0.12478184  0.88111488  0.87184836  1
  Ta5+  Ta48  1  0.86272149  0.90233407  0.62319406  1
  Ta5+  Ta49  1  0.60390719  0.87457042  0.13078092  1
  Ta5+  Ta50  1  0.34068731  0.37502416  0.38877759  1
  Ta5+  Ta51  1  0.63848826  0.38861258  0.12731796  1
  Ta5+  Ta52  1  0.15065766  0.90226684  0.36456688  1
  Ta5+  Ta53  1  0.38498317  0.94799822  0.62755018  1
  Ta5+  Ta54  1  0.90909126  0.61453698  0.42478597  1
  Ta5+  Ta55  1  0.16656252  0.35162333  0.36494316  1
  Ta5+  Ta56  1  0.87227675  0.61256423  0.10586187  1
  Ta5+  Ta57  1  0.15525276  0.16031058  0.09633118  1
  Ta5+  Ta58  1  0.61970772  0.38363769  0.37473730  1
  Ta5+  Ta59  1  0.39287700  0.91334301  0.12521564  1
  Ta5+  Ta60  1  0.57181184  0.36698089  0.62235997  1
  Ta5+  Ta61  1  0.88107951  0.87290343  0.87537081  1
  Ta5+  Ta62  1  0.10574549  0.89160625  0.62049739  1
  Ta5+  Ta63  1  0.15560996  0.55523559  0.36184833  1
  Ta5+  Ta64  1  0.12457022  0.13003709  0.84741504  1
  Ta5+  Ta65  1  0.82859661  0.10950319  0.59690469  1
  Ta5+  Ta66  1  0.57639963  0.36653137  0.87398410  1
  Ta5+  Ta67  1  0.13398177  0.61556074  0.87727213  1
  Ta5+  Ta68  1  0.58241122  0.13276150  0.86914827  1
  Ta5+  Ta69  1  0.87157958  0.10492093  0.12753891  1
  Ta5+  Ta70  1  0.61456900  0.60804519  0.87902279  1
  Ta5+  Ta71  1  0.61865579  0.06702773  0.12573787  1
  Ta5+  Ta72  1  0.39389050  0.60815714  0.38378175  1
  Ta5+  Ta73  1  0.13854625  0.57628556  0.10889566  1
  Ta5+  Ta74  1  0.38627094  0.61108975  0.64697462  1
  W6+  W75  1  0.86278220  0.61553245  0.62248318  1
  W6+  W76  1  0.87228988  0.61256444  0.84955190  1
  W6+  W77  1  0.62787633  0.89028184  0.87325207  1
  W6+  W78  1  0.19919364  0.12462690  0.60900164  1
  W6+  W79  1  0.38880009  0.12641066  0.62473439  1
  W6+  W80  1  0.88758442  0.85156118  0.13945789  1
  W6+  W81  1  0.18948549  0.33497531  0.10424255  1
  W6+  W82  1  0.64285788  0.11785078  0.41825474  1
  O2-  O83  1  0.06791868  0.04461521  0.09580762  1
  O2-  O84  1  0.14126276  0.02174500  0.35311340  1
  O2-  O85  1  0.11339289  0.00734537  0.63181772  1
  O2-  O86  1  0.13368732  -0.00064709  0.86175079  1
  O2-  O87  1  0.11861252  0.46059989  0.10407350  1
  O2-  O88  1  0.08037855  0.45998601  0.36022904  1
  O2-  O89  1  0.11046295  0.50514847  0.63323199  1
  O2-  O90  1  0.14274840  0.49735438  0.86137439  1
  O2-  O91  1  0.38369850  0.03112039  0.10469131  1
  O2-  O92  1  0.37656828  0.03235900  0.39466032  1
  O2-  O93  1  0.28914439  0.02204425  0.61048283  1
  O2-  O94  1  0.36365445  0.01517743  0.89112269  1
  O2-  O95  1  0.38458472  0.48986943  0.11457322  1
  O2-  O96  1  0.40667019  0.49057035  0.39494726  1
  O2-  O97  1  0.40207992  0.49153400  0.63731229  1
  O2-  O98  1  0.36790230  0.49494400  0.88212890  1
  O2-  O99  1  0.69230496  -0.03463721  0.14131179  1
  O2-  O100  1  0.60613701  -0.00025892  0.38240350  1
  O2-  O101  1  0.59184757  0.03986739  0.61370313  1
  O2-  O102  1  0.62546402  0.02222190  0.86025537  1
  O2-  O103  1  0.62526902  0.50947832  0.14242650  1
  O2-  O104  1  0.59746837  0.49900824  0.34304242  1
  O2-  O105  1  0.61146670  0.48293297  0.64094899  1
  O2-  O106  1  0.62093996  0.48789969  0.86822511  1
  O2-  O107  1  0.88130298  -0.01079891  0.13125403  1
  O2-  O108  1  0.89945086  0.00218513  0.37472383  1
  O2-  O109  1  0.91240984  0.02126280  0.61890618  1
  O2-  O110  1  0.84755851  -0.00281644  0.88773585  1
  O2-  O111  1  0.90161006  0.49437528  0.12370459  1
  O2-  O112  1  0.88786738  0.50182353  0.38167985  1
  O2-  O113  1  1.00415197  0.36034978  0.63878907  1
  O2-  O114  1  0.84801617  0.48042563  0.88302817  1
  O2-  O115  1  0.06500007  0.25031105  0.08998589  1
  O2-  O116  1  0.06875184  0.25436222  0.37081500  1
  O2-  O117  1  0.12658162  0.24400533  0.62891919  1
  O2-  O118  1  0.09292754  0.25084302  0.83504340  1
  O2-  O119  1  0.12688332  0.72117955  0.10812006  1
  O2-  O120  1  0.15718385  0.76637061  0.34436637  1
  O2-  O121  1  0.10974836  0.73098367  0.60949977  1
  O2-  O122  1  0.10536940  0.74797301  0.89860830  1
  O2-  O123  1  0.41819872  0.25256461  0.14931136  1
  O2-  O124  1  0.38763607  0.25797305  0.39268887  1
  O2-  O125  1  0.47353454  0.25917380  0.63013366  1
  O2-  O126  1  0.48664162  0.25251093  0.87948455  1
  O2-  O127  1  0.33093359  0.72751997  0.14589839  1
  O2-  O128  1  0.39843278  0.75966203  0.38223724  1
  O2-  O129  1  0.37207104  0.74534297  0.65082075  1
  O2-  O130  1  0.38535247  0.75324499  0.84146019  1
  O2-  O131  1  0.64967095  0.25948767  0.10749625  1
  O2-  O132  1  0.63015852  0.25204133  0.36057053  1
  O2-  O133  1  0.64628379  0.25804725  0.60618823  1
  O2-  O134  1  0.65055311  0.24946968  0.89936993  1
  O2-  O135  1  0.66385551  0.76119451  0.12000727  1
  O2-  O136  1  0.58411373  0.74904439  0.41376892  1
  O2-  O137  1  0.67000400  0.72219805  0.61308642  1
  O2-  O138  1  0.59958402  0.74961905  0.87507645  1
  O2-  O139  1  0.85304449  0.25108845  0.14105928  1
  O2-  O140  1  0.83714893  0.24911184  0.35411748  1
  O2-  O141  1  0.83188165  0.23740125  0.61793832  1
  O2-  O142  1  0.83798252  0.24154501  0.87071634  1
  O2-  O143  1  0.93656439  0.70696244  0.15640910  1
  O2-  O144  1  0.90143704  0.74903838  0.42651025  1
  O2-  O145  1  0.83788461  0.76852066  0.62002080  1
  O2-  O146  1  0.85824495  0.75280228  0.84806699  1
  O2-  O147  1  0.16471346  0.14178707  -0.03601047  1
  O2-  O148  1  0.13058084  0.15785370  0.23094106  1
  O2-  O149  1  0.13215553  0.13732616  0.48646696  1
  O2-  O150  1  0.19871490  0.12653294  0.75292428  1
  O2-  O151  1  0.07621460  0.60390949  -0.00533093  1
  O2-  O152  1  0.12959972  0.60027083  0.23686572  1
  O2-  O153  1  0.14420074  0.60852924  0.47127151  1
  O2-  O154  1  0.13215667  0.65009782  0.75469814  1
  O2-  O155  1  0.37650378  0.16671778  0.00119208  1
  O2-  O156  1  0.35247548  0.14669887  0.25739207  1
  O2-  O157  1  0.30751855  0.16762699  0.52261224  1
  O2-  O158  1  0.39186815  0.14785259  0.75694688  1
  O2-  O159  1  0.37405066  0.66621598  -0.00376650  1
  O2-  O160  1  0.41332325  0.61606367  0.24948660  1
  O2-  O161  1  0.37684259  0.63343525  0.51312067  1
  O2-  O162  1  0.29939203  0.61323613  0.74233643  1
  O2-  O163  1  0.58940367  0.11481481  0.01305024  1
  O2-  O164  1  0.58496643  0.14069909  0.21843076  1
  O2-  O165  1  0.54213019  0.16315938  0.48656872  1
  O2-  O166  1  0.59955475  0.16336298  0.74332194  1
  O2-  O167  1  0.66585521  0.62196368  -0.00385102  1
  O2-  O168  1  0.61837095  0.65802557  0.25266084  1
  O2-  O169  1  0.62006763  0.59472139  0.49448700  1
  O2-  O170  1  0.62691082  0.63747426  0.75436956  1
  O2-  O171  1  0.87466898  0.13338788  0.00025586  1
  O2-  O172  1  0.91704965  0.13245345  0.24814799  1
  O2-  O173  1  0.91559768  0.14392403  0.49330321  1
  O2-  O174  1  0.81973431  0.11924310  0.74319659  1
  O2-  O175  1  0.90051759  0.64125112  -0.01059252  1
  O2-  O176  1  0.76442537  0.62628841  0.15831637  1
  O2-  O177  1  0.80314627  0.62279605  0.49319656  1
  O2-  O178  1  0.79482087  0.61234497  0.73978609  1
  O2-  O179  1  0.19469037  0.34722157  -0.03910946  1
  O2-  O180  1  0.15550063  0.33997671  0.24148463  1
  O2-  O181  1  0.14110717  0.36342611  0.50303463  1
  O2-  O182  1  0.18941852  0.37527381  0.74301568  1
  O2-  O183  1  0.11831592  0.88571755  0.00941432  1
  O2-  O184  1  0.12538695  0.89716057  0.22322900  1
  O2-  O185  1  0.14198684  0.87379919  0.49754582  1
  O2-  O186  1  0.14185937  0.85515885  0.74081894  1
  O2-  O187  1  0.39254781  0.34777712  0.00480201  1
  O2-  O188  1  0.36543047  0.37050859  0.25806584  1
  O2-  O189  1  0.34418736  0.36546298  0.51954183  1
  O2-  O190  1  0.37848613  0.34778138  0.75806923  1
  O2-  O191  1  0.38699488  0.85931234  -0.00550564  1
  O2-  O192  1  0.39155848  0.89813135  0.24916065  1
  O2-  O193  1  0.37919035  0.89396333  0.51423550  1
  O2-  O194  1  0.33765900  0.90129653  0.74070129  1
  O2-  O195  1  0.57370976  0.38221548  0.01649067  1
  O2-  O196  1  0.57689165  0.35595055  0.24030374  1
  O2-  O197  1  0.57153092  0.37786679  0.48598173  1
  O2-  O198  1  0.60273944  0.34429440  0.75029714  1
  O2-  O199  1  0.59383270  0.88076012  0.00469180  1
  O2-  O200  1  0.61326719  0.85125478  0.26308935  1
  O2-  O201  1  0.63211982  0.87521274  0.51149806  1
  O2-  O202  1  0.65035048  0.86679618  0.73496949  1
  O2-  O203  1  0.89174148  0.34486660  0.00445155  1
  O2-  O204  1  0.91767281  0.37190773  0.25539411  1
  O2-  O205  1  0.91266062  0.34729490  0.48383209  1
  O2-  O206  1  0.85498537  0.35452042  0.74810697  1
  O2-  O207  1  0.90175737  0.84790972  -0.00270078  1
  O2-  O208  1  0.85004121  0.84922524  0.27933274  1
  O2-  O209  1  0.82762327  0.88940611  0.49393522  1
  O2-  O210  1  0.84524264  0.89007458  0.74652504  1
  O2-  O211  1  -0.00723299  0.10793804  -0.16124719  1
  O2-  O212  1  0.02161708  -0.13747842  0.36904074  1
  O2-  O213  1  -0.01354826  -0.13039219  0.60882008  1
  O2-  O214  1  -0.00076184  -0.11766470  0.85181218  1
  O2-  O215  1  0.00842894  0.39097440  -0.13457055  1
  O2-  O216  1  0.01325946  0.64327607  0.35365149  1
  O2-  O217  1  -0.01881219  0.61940153  0.53649554  1
  O2-  O218  1  -0.03200880  0.60910685  0.72137636  1
  O2-  O219  1  0.26849632  -0.11324143  0.11063336  1
  O2-  O220  1  0.22865047  0.05271067  0.12739004  1
  O2-  O221  1  0.27070687  -0.10896338  0.36309465  1
  O2-  O222  1  0.24923410  -0.15252157  0.88584650  1
  O2-  O223  1  0.25495509  0.59056703  0.09136402  1
  O2-  O224  1  0.24137219  0.46305983  0.37660249  1
  O2-  O225  1  0.27288808  0.62637706  0.34512261  1
  O2-  O226  1  0.24861529  0.64925170  0.89883615  1
  O2-  O227  1  0.52846496  -0.01769836  0.14448964  1
  O2-  O228  1  0.48543502  -0.17895314  0.12573772  1
  O2-  O229  1  0.50384910  -0.11747949  0.64024848  1
  O2-  O230  1  0.49218290  -0.11347818  0.84033712  1
  O2-  O231  1  0.49989404  0.61291725  -0.08146411  1
  O2-  O232  1  0.50931056  0.64377114  0.09877388  1
  O2-  O233  1  0.50793886  0.66157779  0.61813274  1
  O2-  O234  1  0.45576050  0.61918359  0.76349039  1
  O2-  O235  1  0.74666204  0.12006016  0.12730743  1
  O2-  O236  1  0.74725805  0.10250472  0.32206830  1
  O2-  O237  1  0.76189928  0.10808996  0.48853726  1
  O2-  O238  1  0.75289956  -0.02039059  0.62163159  1
  O2-  O239  1  0.74767342  0.39245590  0.05294416  1
  O2-  O240  1  0.75076258  0.37687442  0.21563744  1
  O2-  O241  1  0.74205982  0.39611962  0.39777572  1
  O2-  O242  1  0.85695740  0.47622982  0.60759497  1
