# generated using pymatgen
data_Gd19Ta56(WO20)8
_symmetry_space_group_name_H-M   'P 1'
_cell_length_a   15.48240714
_cell_length_b   15.38288651
_cell_length_c   15.14713048
_cell_angle_alpha   89.85024949
_cell_angle_beta   90.04384651
_cell_angle_gamma   90.09408684
_symmetry_Int_Tables_number   1
_chemical_formula_structural   Gd19Ta56(WO20)8
_chemical_formula_sum   'Gd19 Ta56 W8 O160'
_cell_volume   3607.48464849
_cell_formula_units_Z   1
loop_
 _symmetry_equiv_pos_site_id
 _symmetry_equiv_pos_as_xyz
  1  'x, y, z'
loop_
 _atom_type_symbol
 _atom_type_oxidation_number
  Gd3+  3.0
  Ta5+  5.0
  W6+  6.0
  O2-  -2.0
loop_
 _atom_site_type_symbol
 _atom_site_label
 _atom_site_symmetry_multiplicity
 _atom_site_fract_x
 _atom_site_fract_y
 _atom_site_fract_z
 _atom_site_occupancy
  Gd3+  Gd0  1  0.24521967  0.23297785  0.77354873  1
  Gd3+  Gd1  1  0.03724677  0.22846547  0.52150240  1
  Gd3+  Gd2  1  0.52516155  0.24489857  0.28911280  1
  Gd3+  Gd3  1  0.75154670  0.23911832  0.23010823  1
  Gd3+  Gd4  1  -0.05086041  0.77446622  0.51852913  1
  Gd3+  Gd5  1  0.45237404  0.75545515  0.73779843  1
  Gd3+  Gd6  1  0.52400406  0.73746792  0.51265115  1
  Gd3+  Gd7  1  0.02206160  0.30707524  0.74813287  1
  Gd3+  Gd8  1  0.73420046  0.74816674  0.72741399  1
  Gd3+  Gd9  1  0.04664811  0.23805184  -0.01468669  1
  Gd3+  Gd10  1  0.00326233  0.23923925  0.25868183  1
  Gd3+  Gd11  1  0.49250108  0.26630620  0.71887708  1
  Gd3+  Gd12  1  -0.03559334  0.73938051  0.00070562  1
  Gd3+  Gd13  1  -0.01285494  0.75295669  0.74573975  1
  Gd3+  Gd14  1  0.24709506  0.75514428  0.50225781  1
  Gd3+  Gd15  1  0.27869998  0.25043992  0.00784772  1
  Gd3+  Gd16  1  0.73464724  0.76123364  -0.00893686  1
  Gd3+  Gd17  1  -0.02050584  0.73307756  0.26512493  1
  Gd3+  Gd18  1  0.24671737  0.74754703  0.23353500  1
  Ta5+  Ta19  1  0.81853284  0.17807238  0.64331998  1
  Ta5+  Ta20  1  0.10610899  0.60235811  0.86691744  1
  Ta5+  Ta21  1  0.37347714  0.88508498  0.36288623  1
  Ta5+  Ta22  1  0.84302796  0.35569774  0.88601977  1
  Ta5+  Ta23  1  0.83569610  0.35802820  0.63476116  1
  Ta5+  Ta24  1  0.39727505  0.87732975  0.11773154  1
  Ta5+  Ta25  1  0.88428387  0.12851834  0.10062762  1
  Ta5+  Ta26  1  0.90405020  0.52198547  0.36321368  1
  Ta5+  Ta27  1  0.67962778  0.11189206  0.38079289  1
  Ta5+  Ta28  1  0.61614345  0.87364209  0.36584228  1
  Ta5+  Ta29  1  0.35715989  0.91880287  0.61690507  1
  Ta5+  Ta30  1  0.18124135  0.41180068  0.86596024  1
  Ta5+  Ta31  1  0.85853498  0.34916008  0.38517942  1
  Ta5+  Ta32  1  0.84964956  0.56546173  0.59958416  1
  Ta5+  Ta33  1  0.64005306  0.92560934  0.62384197  1
  Ta5+  Ta34  1  0.34871593  0.12902044  0.61306114  1
  Ta5+  Ta35  1  0.87823764  0.93574422  0.37084684  1
  Ta5+  Ta36  1  0.60321056  0.61689303  0.86742319  1
  Ta5+  Ta37  1  0.60450819  0.36899996  0.87877063  1
  Ta5+  Ta38  1  0.34844637  0.88023850  0.87658304  1
  Ta5+  Ta39  1  0.11484097  0.61078929  0.61432814  1
  Ta5+  Ta40  1  0.61059960  0.62696665  0.13727942  1
  Ta5+  Ta41  1  0.63516049  0.58618191  0.61540819  1
  Ta5+  Ta42  1  0.10103975  0.61478794  0.12252607  1
  Ta5+  Ta43  1  0.68827156  0.38283290  0.37332000  1
  Ta5+  Ta44  1  0.61842042  0.11687451  0.11756354  1
  Ta5+  Ta45  1  0.59423138  0.87905217  0.86209310  1
  Ta5+  Ta46  1  0.13602619  0.38701625  0.12055582  1
  Ta5+  Ta47  1  0.34865356  0.37182421  0.60665513  1
  Ta5+  Ta48  1  0.17957826  0.11152577  0.62679001  1
  Ta5+  Ta49  1  0.40318629  0.12320275  0.88100800  1
  Ta5+  Ta50  1  0.34041141  0.12852969  0.36085322  1
  Ta5+  Ta51  1  0.36772721  0.11991661  0.14328003  1
  Ta5+  Ta52  1  0.90256798  0.37129362  0.12031410  1
  Ta5+  Ta53  1  0.60012347  0.87619297  0.11803898  1
  Ta5+  Ta54  1  0.37919988  0.62361488  0.36559662  1
  Ta5+  Ta55  1  0.66280077  0.37427091  0.62494233  1
  Ta5+  Ta56  1  0.86258871  0.14091155  0.88862480  1
  Ta5+  Ta57  1  0.85620683  0.13861727  0.39285322  1
  Ta5+  Ta58  1  0.16578559  0.12104459  0.14034949  1
  Ta5+  Ta59  1  0.33460313  0.56933071  0.61095911  1
  Ta5+  Ta60  1  0.64871684  0.15675215  0.62419323  1
  Ta5+  Ta61  1  0.38421220  0.62602526  0.10341771  1
  Ta5+  Ta62  1  0.83973139  0.94577118  0.61827192  1
  Ta5+  Ta63  1  0.86314872  0.88357865  0.14500242  1
  Ta5+  Ta64  1  0.85262500  0.60917277  0.14140321  1
  Ta5+  Ta65  1  0.35069255  0.38814111  0.86880897  1
  Ta5+  Ta66  1  0.18065020  0.41768761  0.60726234  1
  Ta5+  Ta67  1  0.37092110  0.37119006  0.37562081  1
  Ta5+  Ta68  1  0.12163701  0.61779159  0.38499899  1
  Ta5+  Ta69  1  0.08581238  0.88461556  0.13793956  1
  Ta5+  Ta70  1  0.17290323  0.12937582  0.36673754  1
  Ta5+  Ta71  1  0.16511435  0.05799029  0.88749608  1
  Ta5+  Ta72  1  0.61768186  0.62106526  0.34292908  1
  Ta5+  Ta73  1  0.11580651  0.92159427  0.59404597  1
  Ta5+  Ta74  1  0.12868995  0.85388509  0.90031299  1
  W6+  W75  1  0.86108080  0.59698874  0.86287756  1
  W6+  W76  1  0.11318309  0.88638929  0.38051534  1
  W6+  W77  1  0.39440474  0.37791318  0.13225645  1
  W6+  W78  1  0.64638961  0.37764466  0.11204845  1
  W6+  W79  1  0.57106953  0.12894742  0.87076100  1
  W6+  W80  1  0.93355014  0.94238247  0.93447887  1
  W6+  W81  1  0.12092561  0.37751112  0.37645624  1
  W6+  W82  1  0.34794550  0.61681456  0.85631107  1
  O2-  O83  1  0.12312528  0.00088033  0.13199960  1
  O2-  O84  1  0.14917610  0.01171366  0.36580476  1
  O2-  O85  1  0.07076410  0.03110474  0.61397479  1
  O2-  O86  1  0.06666837  -0.01987134  0.90699316  1
  O2-  O87  1  0.16627199  0.50790922  0.13748762  1
  O2-  O88  1  0.15494646  0.50640345  0.35958249  1
  O2-  O89  1  0.07293274  0.50364626  0.58185742  1
  O2-  O90  1  0.06728640  0.48622116  0.85671326  1
  O2-  O91  1  0.35735624  -0.00522836  0.14285927  1
  O2-  O92  1  0.36645636  0.00256637  0.34698881  1
  O2-  O93  1  0.42249855  0.01691415  0.62192650  1
  O2-  O94  1  0.39638792  0.00250216  0.86855172  1
  O2-  O95  1  0.39270157  0.50817925  0.13549859  1
  O2-  O96  1  0.37480671  0.50445085  0.37019117  1
  O2-  O97  1  0.41257975  0.48523224  0.64077336  1
  O2-  O98  1  0.40033321  0.49475393  0.84529813  1
  O2-  O99  1  0.64003711  -0.00310039  0.12819594  1
  O2-  O100  1  0.62236156  -0.00622156  0.38743605  1
  O2-  O101  1  0.59562593  0.03359191  0.64041542  1
  O2-  O102  1  0.60552931  -0.00387368  0.84911251  1
  O2-  O103  1  0.64086424  0.51306532  0.11515501  1
  O2-  O104  1  0.62663124  0.50170154  0.35800745  1
  O2-  O105  1  0.57968768  0.47987755  0.61642943  1
  O2-  O106  1  0.59364022  0.49546414  0.87145031  1
  O2-  O107  1  0.87437083  0.00654278  0.11623181  1
  O2-  O108  1  0.94647418  0.03461084  0.36441518  1
  O2-  O109  1  0.87925422  0.05094266  0.65667704  1
  O2-  O110  1  0.86022390  0.02254836  0.85830016  1
  O2-  O111  1  0.84861659  0.48675007  0.13162752  1
  O2-  O112  1  0.98302305  0.42607016  0.37433306  1
  O2-  O113  1  0.91198164  0.47246876  0.64519528  1
  O2-  O114  1  0.84954820  0.47616287  0.90142890  1
  O2-  O115  1  0.15731240  0.25378884  0.11320606  1
  O2-  O116  1  0.10436185  0.24289657  0.37579836  1
  O2-  O117  1  0.11040662  0.21695536  0.66059530  1
  O2-  O118  1  0.12612547  0.28357961  0.85846054  1
  O2-  O119  1  0.07254019  0.74597003  0.12486685  1
  O2-  O120  1  0.14427275  0.74774946  0.38794256  1
  O2-  O121  1  0.07976479  0.72182630  0.56802625  1
  O2-  O122  1  0.14709060  0.73689060  0.87361691  1
  O2-  O123  1  0.35236239  0.25259754  0.13792025  1
  O2-  O124  1  0.39970752  0.24326862  0.37174852  1
  O2-  O125  1  0.37649855  0.24886803  0.59921252  1
  O2-  O126  1  0.35936724  0.25483092  0.88028872  1
  O2-  O127  1  0.34091562  0.75116335  0.11600300  1
  O2-  O128  1  0.32546627  0.74946652  0.37419126  1
  O2-  O129  1  0.43379647  0.81576148  0.60378649  1
  O2-  O130  1  0.33344489  0.75953239  0.85536787  1
  O2-  O131  1  0.66296057  0.23766951  0.11224719  1
  O2-  O132  1  0.65766077  0.25073131  0.36886929  1
  O2-  O133  1  0.59462925  0.26990370  0.59868339  1
  O2-  O134  1  0.53655500  0.26401000  0.86697831  1
  O2-  O135  1  0.64066590  0.74901105  0.11086592  1
  O2-  O136  1  0.63761073  0.74839896  0.38688621  1
  O2-  O137  1  0.54700941  0.67252225  0.64332675  1
  O2-  O138  1  0.65540210  0.75868986  0.85493020  1
  O2-  O139  1  0.95538826  0.24118993  0.10880549  1
  O2-  O140  1  0.94070255  0.24065224  0.39590448  1
  O2-  O141  1  0.93244242  0.25669238  0.63496594  1
  O2-  O142  1  0.93764245  0.25981937  0.88461200  1
  O2-  O143  1  0.88283346  0.74953506  0.14976883  1
  O2-  O144  1  0.92662493  0.81236488  0.37415100  1
  O2-  O145  1  0.92787270  0.65741433  0.62693736  1
  O2-  O146  1  0.85623175  0.83318489  0.95486533  1
  O2-  O147  1  0.14513247  0.12555114  0.00172786  1
  O2-  O148  1  0.09831791  0.13329499  0.24500262  1
  O2-  O149  1  0.15806871  0.13839408  0.49949687  1
  O2-  O150  1  0.15868470  0.08786313  0.76789568  1
  O2-  O151  1  0.10338431  0.61250899  -0.00342254  1
  O2-  O152  1  0.12150427  0.64644130  0.25382836  1
  O2-  O153  1  0.18818883  0.61771744  0.49711018  1
  O2-  O154  1  0.08795908  0.63762221  0.73658425  1
  O2-  O155  1  0.38874585  0.13041133  0.01648525  1
  O2-  O156  1  0.43692679  0.13264436  0.24882623  1
  O2-  O157  1  0.34614611  0.11378379  0.48402538  1
  O2-  O158  1  0.38488596  0.14887915  0.74703629  1
  O2-  O159  1  0.33479018  0.61403012  -0.00537511  1
  O2-  O160  1  0.34812801  0.63644127  0.24401352  1
  O2-  O161  1  0.36739229  0.64078617  0.50784505  1
  O2-  O162  1  0.35724033  0.64519168  0.70901466  1
  O2-  O163  1  0.57210250  0.11837231  0.00523443  1
  O2-  O164  1  0.62820671  0.13306925  0.25355395  1
  O2-  O165  1  0.65377432  0.13378116  0.49897281  1
  O2-  O166  1  0.59638667  0.16548183  0.74195394  1
  O2-  O167  1  0.65229818  0.63348840  -0.01984835  1
  O2-  O168  1  0.69623471  0.63821642  0.24495252  1
  O2-  O169  1  0.62104634  0.61675063  0.49409739  1
  O2-  O170  1  0.66264872  0.61383078  0.75478267  1
  O2-  O171  1  0.95898698  0.11507461  -0.01409109  1
  O2-  O172  1  0.87350405  0.14781911  0.23461329  1
  O2-  O173  1  0.84376727  0.15115637  0.51376208  1
  O2-  O174  1  0.82000328  0.17792841  0.77754292  1
  O2-  O175  1  0.84490001  0.64373610  0.01487968  1
  O2-  O176  1  0.87905878  0.61454812  0.27085051  1
  O2-  O177  1  0.85822831  0.55994789  0.47604184  1
  O2-  O178  1  0.84961182  0.71348576  0.79689076  1
  O2-  O179  1  0.17298758  0.38252050  -0.00524199  1
  O2-  O180  1  0.09317599  0.36512775  0.23845277  1
  O2-  O181  1  0.12387375  0.34921468  0.51678378  1
  O2-  O182  1  0.15689694  0.39078962  0.73017249  1
  O2-  O183  1  0.14708912  0.85858296  0.02182352  1
  O2-  O184  1  0.15323610  0.86047185  0.24260088  1
  O2-  O185  1  0.18845277  0.88491250  0.49301804  1
  O2-  O186  1  0.09621570  0.85535715  0.69537283  1
  O2-  O187  1  0.35742657  0.37925702  0.00078920  1
  O2-  O188  1  0.43957148  0.36895599  0.26527649  1
  O2-  O189  1  0.41582887  0.37671378  0.48975371  1
  O2-  O190  1  0.35426513  0.34603432  0.73799267  1
  O2-  O191  1  0.34026125  0.87766746  -0.00004522  1
  O2-  O192  1  0.33877359  0.86045941  0.24331697  1
  O2-  O193  1  0.34610013  0.88596756  0.48692261  1
  O2-  O194  1  0.35014183  0.88198756  0.73648326  1
  O2-  O195  1  0.57760966  0.37070942  0.00098536  1
  O2-  O196  1  0.65531247  0.35810032  0.24247026  1
  O2-  O197  1  0.67197208  0.38758149  0.49412802  1
  O2-  O198  1  0.60801930  0.36463947  0.74530418  1
  O2-  O199  1  0.63077609  0.86719523  -0.01737649  1
  O2-  O200  1  0.63754402  0.87419404  0.24786211  1
  O2-  O201  1  0.60099110  0.86254979  0.52153482  1
  O2-  O202  1  0.58998336  0.85163667  0.72429643  1
  O2-  O203  1  0.84334581  0.34107109  0.01757796  1
  O2-  O204  1  0.87486928  0.33472164  0.24070794  1
  O2-  O205  1  0.85976013  0.36181814  0.50884726  1
  O2-  O206  1  0.87644496  0.36017619  0.76379046  1
  O2-  O207  1  0.75261689  0.86806949  0.10136691  1
  O2-  O208  1  0.82286194  0.89963098  0.26293399  1
  O2-  O209  1  0.86740684  0.91007253  0.49520824  1
  O2-  O210  1  0.91024275  0.84343401  0.64978950  1
  O2-  O211  1  -0.02364444  -0.11880127  0.05719099  1
  O2-  O212  1  -0.01363055  -0.12014578  0.22029619  1
  O2-  O213  1  0.03419083  -0.10927794  0.50140264  1
  O2-  O214  1  0.00653819  -0.16695753  0.87572123  1
  O2-  O215  1  0.01789784  0.39260947  0.07078216  1
  O2-  O216  1  -0.01994342  0.60234482  0.12990732  1
  O2-  O217  1  0.00002010  0.62163788  0.39589325  1
  O2-  O218  1  -0.01754445  0.65371122  0.87478656  1
  O2-  O219  1  0.27079391  0.12380530  -0.10881635  1
  O2-  O220  1  0.26006560  0.13286878  0.23782288  1
  O2-  O221  1  0.23845734  -0.02041468  0.62382449  1
  O2-  O222  1  0.22435301  -0.06891630  0.86038092  1
  O2-  O223  1  0.22129366  0.55346795  -0.14387066  1
  O2-  O224  1  0.25448617  0.35498335  0.37014329  1
  O2-  O225  1  0.27801326  0.46904078  0.53363938  1
  O2-  O226  1  0.21936041  0.54915535  0.66276821  1
  O2-  O227  1  0.49720442  -0.07591497  0.05715654  1
  O2-  O228  1  0.49674118  -0.17494143  0.17843657  1
  O2-  O229  1  0.49214924  -0.14375815  0.37334775  1
  O2-  O230  1  0.47666354  -0.14965351  0.86649062  1
  O2-  O231  1  0.49946747  0.64651410  0.07506069  1
  O2-  O232  1  0.53702525  0.61652354  0.24005295  1
  O2-  O233  1  0.49351452  0.65666092  0.38776548  1
  O2-  O234  1  0.48959337  0.65703137  0.85309859  1
  O2-  O235  1  0.80396876  0.15623444  0.00329704  1
  O2-  O236  1  0.78136714  0.02791133  0.37144718  1
  O2-  O237  1  0.73391822  -0.02812117  0.55587526  1
  O2-  O238  1  0.74953675  -0.10360335  0.70038363  1
  O2-  O239  1  0.72296770  0.33346597  -0.11843747  1
  O2-  O240  1  0.79229022  0.46257110  0.33910875  1
  O2-  O241  1  0.74534330  0.48765870  0.63501525  1
  O2-  O242  1  0.75093764  0.65371221  0.61240756  1
