# generated using pymatgen
data_Gd19Ta56(WO20)8
_symmetry_space_group_name_H-M   'P 1'
_cell_length_a   15.58336482
_cell_length_b   15.49916904
_cell_length_c   15.20118520
_cell_angle_alpha   90.00576932
_cell_angle_beta   89.94323664
_cell_angle_gamma   89.76834745
_symmetry_Int_Tables_number   1
_chemical_formula_structural   Gd19Ta56(WO20)8
_chemical_formula_sum   'Gd19 Ta56 W8 O160'
_cell_volume   3671.49835304
_cell_formula_units_Z   1
loop_
 _symmetry_equiv_pos_site_id
 _symmetry_equiv_pos_as_xyz
  1  'x, y, z'
loop_
 _atom_type_symbol
 _atom_type_oxidation_number
  Gd3+  3.0
  Ta5+  5.0
  W6+  6.0
  O2-  -2.0
loop_
 _atom_site_type_symbol
 _atom_site_label
 _atom_site_symmetry_multiplicity
 _atom_site_fract_x
 _atom_site_fract_y
 _atom_site_fract_z
 _atom_site_occupancy
  Gd3+  Gd0  1  -0.01856748  0.26723371  0.49760276  1
  Gd3+  Gd1  1  0.23125882  0.25049957  0.01585258  1
  Gd3+  Gd2  1  0.51005981  0.23521833  0.75483012  1
  Gd3+  Gd3  1  0.75152039  0.23318486  0.74017048  1
  Gd3+  Gd4  1  0.74235949  0.75807642  0.00193125  1
  Gd3+  Gd5  1  0.25496945  0.25374231  0.49241974  1
  Gd3+  Gd6  1  0.48446673  0.24565194  0.00202971  1
  Gd3+  Gd7  1  0.26153172  0.24585647  0.75680790  1
  Gd3+  Gd8  1  0.48535493  0.72953550  0.50287177  1
  Gd3+  Gd9  1  0.73023437  0.24164603  0.48579468  1
  Gd3+  Gd10  1  -0.01223616  0.25750945  0.75262756  1
  Gd3+  Gd11  1  0.47447058  0.73184094  0.02829326  1
  Gd3+  Gd12  1  0.23913600  0.77327847  0.73867602  1
  Gd3+  Gd13  1  0.25042536  0.77465830  -0.00393258  1
  Gd3+  Gd14  1  0.26625106  0.25214027  0.24140127  1
  Gd3+  Gd15  1  0.23564298  0.74266564  0.24613895  1
  Gd3+  Gd16  1  0.74150298  0.75329713  0.73360144  1
  Gd3+  Gd17  1  -0.01624672  0.76910432  0.00465015  1
  Gd3+  Gd18  1  0.26260876  0.77762984  0.48521360  1
  Ta5+  Ta19  1  0.87666512  0.63382450  0.60567131  1
  Ta5+  Ta20  1  0.87035000  0.62289351  0.13711638  1
  Ta5+  Ta21  1  0.34178927  0.61616864  0.62410847  1
  Ta5+  Ta22  1  0.65284393  0.10788487  0.89794644  1
  Ta5+  Ta23  1  0.57240282  0.87077286  0.63321028  1
  Ta5+  Ta24  1  0.34953869  0.10583975  0.89327217  1
  Ta5+  Ta25  1  0.41196082  0.36148480  0.37193602  1
  Ta5+  Ta26  1  0.90610352  0.11715274  0.34510340  1
  Ta5+  Ta27  1  0.57885714  0.36207115  0.37204969  1
  Ta5+  Ta28  1  0.38019729  0.11463155  0.62691958  1
  Ta5+  Ta29  1  0.17287793  0.62445005  0.61279079  1
  Ta5+  Ta30  1  0.60980843  0.88618578  0.86326387  1
  Ta5+  Ta31  1  0.40988571  0.59005232  0.18960247  1
  Ta5+  Ta32  1  0.36178741  0.38767059  0.89078102  1
  Ta5+  Ta33  1  0.66386933  0.38260053  0.89494724  1
  Ta5+  Ta34  1  0.37796468  0.86417940  0.16158716  1
  Ta5+  Ta35  1  0.43160484  0.41422391  0.14450671  1
  Ta5+  Ta36  1  0.07290415  0.13931062  0.13030122  1
  Ta5+  Ta37  1  0.62766009  0.10523267  0.62412819  1
  Ta5+  Ta38  1  0.15415776  0.39712764  0.87637306  1
  Ta5+  Ta39  1  0.87854289  0.39799895  0.34976138  1
  Ta5+  Ta40  1  0.09371167  0.38580249  0.12233087  1
  Ta5+  Ta41  1  0.40726657  0.10702690  0.13877755  1
  Ta5+  Ta42  1  0.88913910  0.87241179  0.62039008  1
  Ta5+  Ta43  1  0.12232091  0.38492833  0.62370418  1
  Ta5+  Ta44  1  0.37519969  0.63036022  0.86367003  1
  Ta5+  Ta45  1  0.37984542  0.37432145  0.62915016  1
  Ta5+  Ta46  1  0.85906656  0.89890903  0.13634024  1
  Ta5+  Ta47  1  0.62460619  0.37288681  0.62607103  1
  Ta5+  Ta48  1  0.37108427  0.60390109  0.37775621  1
  Ta5+  Ta49  1  0.13370509  0.12561298  0.36367702  1
  Ta5+  Ta50  1  0.58949231  0.61051026  0.36862943  1
  Ta5+  Ta51  1  0.40790202  0.12676649  0.37291186  1
  Ta5+  Ta52  1  0.13782374  0.11908271  0.88569972  1
  Ta5+  Ta53  1  0.62036217  0.62366825  0.87393331  1
  Ta5+  Ta54  1  0.41806314  0.87917220  0.36481881  1
  Ta5+  Ta55  1  0.11449794  0.89962361  0.12733967  1
  Ta5+  Ta56  1  0.40584562  0.87930150  0.83551318  1
  Ta5+  Ta57  1  0.10859931  0.88382183  0.37768283  1
  Ta5+  Ta58  1  0.11574311  0.38605466  0.36179851  1
  Ta5+  Ta59  1  0.58457856  0.87427979  0.38684040  1
  Ta5+  Ta60  1  0.57481679  0.12216970  0.37348792  1
  Ta5+  Ta61  1  0.88398431  0.62936254  0.86523558  1
  Ta5+  Ta62  1  0.59151336  0.36744772  0.13475176  1
  Ta5+  Ta63  1  0.12631786  0.12329132  0.62564357  1
  Ta5+  Ta64  1  0.10846009  0.62454115  0.11577476  1
  Ta5+  Ta65  1  0.09062895  0.63602606  0.85629111  1
  Ta5+  Ta66  1  0.59257360  0.61259476  0.63768632  1
  Ta5+  Ta67  1  0.57561697  0.11135436  0.14158675  1
  Ta5+  Ta68  1  0.94259928  0.62623474  0.38296581  1
  Ta5+  Ta69  1  0.89068580  0.14293188  0.13398956  1
  Ta5+  Ta70  1  0.85787339  0.38495448  0.08723004  1
  Ta5+  Ta71  1  0.61670310  0.86999954  0.17249910  1
  Ta5+  Ta72  1  0.40677365  0.87788123  0.62012215  1
  Ta5+  Ta73  1  0.87208510  0.39149858  0.87615506  1
  Ta5+  Ta74  1  0.64202807  0.60283722  0.12938690  1
  W6+  W75  1  0.10670160  0.88475625  0.60571974  1
  W6+  W76  1  0.86316967  0.11611244  0.88515575  1
  W6+  W77  1  0.90563950  0.86537512  0.37224617  1
  W6+  W78  1  0.82935273  0.90542569  0.86996553  1
  W6+  W79  1  0.10143688  0.63246422  0.37297470  1
  W6+  W80  1  0.88098624  0.11944034  0.61034786  1
  W6+  W81  1  0.10521725  0.87464189  0.86172046  1
  W6+  W82  1  0.87271741  0.39460077  0.61648301  1
  O2-  O83  1  0.11262464  0.01755009  0.12040875  1
  O2-  O84  1  0.10172999  0.00658777  0.36255017  1
  O2-  O85  1  0.07283313  0.01936343  0.60967720  1
  O2-  O86  1  0.10401292  0.00669455  0.88564093  1
  O2-  O87  1  0.13253376  0.50578707  0.11435934  1
  O2-  O88  1  0.07745063  0.49981296  0.36040599  1
  O2-  O89  1  0.15368974  0.49748285  0.63786389  1
  O2-  O90  1  0.15029373  0.51822619  0.87321475  1
  O2-  O91  1  0.38840999  -0.01523714  0.14628378  1
  O2-  O92  1  0.40691258  0.00074950  0.36904408  1
  O2-  O93  1  0.36029985  -0.00268531  0.62030093  1
  O2-  O94  1  0.36537962  -0.01983267  0.88996903  1
  O2-  O95  1  0.52094052  0.61611847  0.11538832  1
  O2-  O96  1  0.38081738  0.48095725  0.37810752  1
  O2-  O97  1  0.34456877  0.48780435  0.64630393  1
  O2-  O98  1  0.37672595  0.50825120  0.87345786  1
  O2-  O99  1  0.58381016  -0.02164638  0.13464855  1
  O2-  O100  1  0.58798756  -0.00516865  0.38685039  1
  O2-  O101  1  0.62870359  -0.01442100  0.62178670  1
  O2-  O102  1  0.57962471  0.00309948  0.87317206  1
  O2-  O103  1  0.64979070  0.48579085  0.11475851  1
  O2-  O104  1  0.58486700  0.48980535  0.38543684  1
  O2-  O105  1  0.63613682  0.49494360  0.64100018  1
  O2-  O106  1  0.62715005  0.49613099  0.88634618  1
  O2-  O107  1  0.86281320  0.01497097  0.15849352  1
  O2-  O108  1  0.90238993  0.00007369  0.35218656  1
  O2-  O109  1  0.86168006  -0.01234730  0.60702258  1
  O2-  O110  1  0.91671108  -0.00266817  0.87535366  1
  O2-  O111  1  0.83950848  0.51146945  0.11015836  1
  O2-  O112  1  0.88834677  0.50831575  0.39261854  1
  O2-  O113  1  0.82996410  0.52518501  0.59884048  1
  O2-  O114  1  0.82648820  0.52384462  0.87328048  1
  O2-  O115  1  0.12788089  0.26084728  0.13353712  1
  O2-  O116  1  0.16858562  0.25761886  0.36386999  1
  O2-  O117  1  0.08615890  0.24417522  0.60932333  1
  O2-  O118  1  0.16259361  0.25601873  0.87654718  1
  O2-  O119  1  0.21133592  0.68828549  0.10798948  1
  O2-  O120  1  0.15744126  0.76107700  0.37980196  1
  O2-  O121  1  0.16901685  0.75743790  0.60182115  1
  O2-  O122  1  0.17149736  0.74530889  0.86865833  1
  O2-  O123  1  0.34165450  0.21897703  0.10702326  1
  O2-  O124  1  0.34363610  0.24828323  0.37121780  1
  O2-  O125  1  0.38508199  0.24611547  0.65601198  1
  O2-  O126  1  0.34919093  0.24375155  0.90528385  1
  O2-  O127  1  0.39303376  0.72728552  0.16110820  1
  O2-  O128  1  0.38257777  0.73997136  0.38667714  1
  O2-  O129  1  0.36180327  0.75056576  0.61608028  1
  O2-  O130  1  0.35366678  0.76796103  0.85852056  1
  O2-  O131  1  0.57085084  0.23899555  0.13150872  1
  O2-  O132  1  0.62455910  0.24259153  0.37586635  1
  O2-  O133  1  0.60702099  0.24518004  0.63965270  1
  O2-  O134  1  0.55693644  0.19208612  0.88686357  1
  O2-  O135  1  0.59890131  0.77075063  0.09622777  1
  O2-  O136  1  0.57178406  0.73715728  0.37791133  1
  O2-  O137  1  0.60806107  0.74048748  0.64843443  1
  O2-  O138  1  0.63949030  0.74620988  0.86942038  1
  O2-  O139  1  0.87170041  0.26613453  0.10761057  1
  O2-  O140  1  0.99559724  0.34596395  0.36043903  1
  O2-  O141  1  0.90683808  0.25803744  0.62588437  1
  O2-  O142  1  0.91147853  0.27242670  0.87896363  1
  O2-  O143  1  0.98860443  0.67065050  0.11823460  1
  O2-  O144  1  0.89897892  0.73607212  0.38729218  1
  O2-  O145  1  0.82464392  0.75212038  0.60249368  1
  O2-  O146  1  0.81242911  0.74001185  0.86500395  1
  O2-  O147  1  0.08604399  0.15551317  0.00153914  1
  O2-  O148  1  0.16373823  0.13430534  0.24052810  1
  O2-  O149  1  0.16032417  0.13361352  0.49325678  1
  O2-  O150  1  0.09410543  0.14593937  0.75271906  1
  O2-  O151  1  0.09652628  0.64896247  -0.01044179  1
  O2-  O152  1  0.11099574  0.65595571  0.23793002  1
  O2-  O153  1  0.15070158  0.61472949  0.49375566  1
  O2-  O154  1  0.12324015  0.64558184  0.73586918  1
  O2-  O155  1  0.42326074  0.10820847  -0.00214676  1
  O2-  O156  1  0.35973174  0.13491303  0.25426989  1
  O2-  O157  1  0.36990592  0.14360574  0.50469041  1
  O2-  O158  1  0.40115609  0.12634458  0.77724073  1
  O2-  O159  1  0.34026770  0.65437068  -0.02153119  1
  O2-  O160  1  0.30279777  0.61313095  0.26674200  1
  O2-  O161  1  0.39406189  0.60817268  0.50553264  1
  O2-  O162  1  0.31214527  0.63545754  0.75709099  1
  O2-  O163  1  0.63397273  0.10799300  0.02006937  1
  O2-  O164  1  0.61672069  0.11504355  0.25680611  1
  O2-  O165  1  0.62419291  0.13004388  0.49766230  1
  O2-  O166  1  0.64511883  0.12526833  0.75303716  1
  O2-  O167  1  0.66114417  0.62809906  -0.00480688  1
  O2-  O168  1  0.64509509  0.61296052  0.25425816  1
  O2-  O169  1  0.58762946  0.61992735  0.51051771  1
  O2-  O170  1  0.66521682  0.61751234  0.75527638  1
  O2-  O171  1  0.88761080  0.11444898  0.01560430  1
  O2-  O172  1  0.83139447  0.16272123  0.26185476  1
  O2-  O173  1  0.86377746  0.15515888  0.46116475  1
  O2-  O174  1  0.87368622  0.14551494  0.75028656  1
  O2-  O175  1  0.87500705  0.65824668  -0.00268319  1
  O2-  O176  1  0.89655593  0.61378721  0.25569773  1
  O2-  O177  1  0.95982570  0.62755641  0.51761525  1
  O2-  O178  1  0.87927035  0.64489386  0.73347615  1
  O2-  O179  1  0.10193902  0.37183824  -0.00286087  1
  O2-  O180  1  0.15902631  0.38370945  0.24083799  1
  O2-  O181  1  0.14783160  0.37189341  0.48638741  1
  O2-  O182  1  0.10088249  0.36401079  0.75240393  1
  O2-  O183  1  0.11383815  0.84751393  0.00703052  1
  O2-  O184  1  0.11345168  0.86353755  0.24835074  1
  O2-  O185  1  0.17424008  0.89729456  0.48703870  1
  O2-  O186  1  0.14515929  0.88420027  0.73352966  1
  O2-  O187  1  0.42281944  0.38362771  0.00359133  1
  O2-  O188  1  0.38573368  0.35130350  0.24181218  1
  O2-  O189  1  0.37383447  0.35502323  0.50578901  1
  O2-  O190  1  0.41504567  0.35107187  0.78103988  1
  O2-  O191  1  0.37915164  0.84009988  0.03411221  1
  O2-  O192  1  0.31914811  0.86259497  0.27569761  1
  O2-  O193  1  0.38375014  0.87123438  0.49197894  1
  O2-  O194  1  0.33012485  0.88534835  0.73606922  1
  O2-  O195  1  0.60263284  0.34231755  -0.00546818  1
  O2-  O196  1  0.62027781  0.36935617  0.25502076  1
  O2-  O197  1  0.63009521  0.36058251  0.50188789  1
  O2-  O198  1  0.60927532  0.34567083  0.78415935  1
  O2-  O199  1  0.70441775  0.88520238  -0.06126596  1
  O2-  O200  1  0.66426554  0.85833388  0.28397969  1
  O2-  O201  1  0.59473134  0.84930790  0.51060087  1
  O2-  O202  1  0.65441721  0.87306689  0.74852354  1
  O2-  O203  1  0.93049054  0.41542158  -0.01116361  1
  O2-  O204  1  0.83732989  0.38920427  0.23699897  1
  O2-  O205  1  0.84779436  0.34270126  0.46520963  1
  O2-  O206  1  0.91658650  0.39665387  0.75619946  1
  O2-  O207  1  0.86173630  0.85145999  0.01208599  1
  O2-  O208  1  0.86831255  0.84127978  0.24172980  1
  O2-  O209  1  0.93094917  0.86419338  0.50233323  1
  O2-  O210  1  0.82721982  0.87101478  0.73805157  1
  O2-  O211  1  -0.00992903  -0.12213126  0.11778094  1
  O2-  O212  1  -0.01208364  0.12843880  0.22437894  1
  O2-  O213  1  0.01680929  0.16756548  0.38701982  1
  O2-  O214  1  -0.00660026  -0.15023001  0.67277180  1
  O2-  O215  1  -0.00919524  0.56348159  -0.14404272  1
  O2-  O216  1  -0.01911707  0.39754021  0.14887351  1
  O2-  O217  1  0.00702977  0.39812784  0.58143960  1
  O2-  O218  1  -0.00392170  0.72478329  0.86369858  1
  O2-  O219  1  0.24265593  0.11132202  -0.02978660  1
  O2-  O220  1  0.23823410  -0.13723068  0.12658164  1
  O2-  O221  1  0.24858094  0.14384275  0.64004486  1
  O2-  O222  1  0.24359029  0.10819992  0.81307212  1
  O2-  O223  1  0.25468495  0.38825243  -0.03624917  1
  O2-  O224  1  0.35252350  0.51623945  0.11149498  1
  O2-  O225  1  0.24257377  0.33140283  0.62870875  1
  O2-  O226  1  0.25776409  0.38728593  0.80434376  1
  O2-  O227  1  0.50392702  -0.16233169  -0.08812919  1
  O2-  O228  1  0.48964350  -0.13999226  0.23463929  1
  O2-  O229  1  0.50255640  0.11181482  0.63426728  1
  O2-  O230  1  0.49161721  -0.09923228  0.74629786  1
  O2-  O231  1  0.49860683  0.64110553  -0.11852599  1
  O2-  O232  1  0.48145369  0.61219281  0.30097538  1
  O2-  O233  1  0.49965591  0.38629070  0.63078515  1
  O2-  O234  1  0.47903450  0.60952888  0.66662383  1
  O2-  O235  1  0.75783042  0.03140294  -0.12369475  1
  O2-  O236  1  0.73505384  -0.12576171  0.12403803  1
  O2-  O237  1  0.74812757  0.15278606  0.60709985  1
  O2-  O238  1  0.74374683  0.19454484  0.88719876  1
  O2-  O239  1  0.77454007  0.38113008  -0.01836663  1
  O2-  O240  1  0.75680554  0.67406509  0.13410734  1
  O2-  O241  1  0.74693155  0.34265838  0.63233135  1
  O2-  O242  1  0.76366367  0.36238176  0.81862741  1
