# generated using pymatgen
data_Gd19Ta56(WO20)8
_symmetry_space_group_name_H-M   'P 1'
_cell_length_a   15.51416091
_cell_length_b   15.54247738
_cell_length_c   15.22519574
_cell_angle_alpha   90.20430623
_cell_angle_beta   90.09973123
_cell_angle_gamma   89.90821673
_symmetry_Int_Tables_number   1
_chemical_formula_structural   Gd19Ta56(WO20)8
_chemical_formula_sum   'Gd19 Ta56 W8 O160'
_cell_volume   3671.19495988
_cell_formula_units_Z   1
loop_
 _symmetry_equiv_pos_site_id
 _symmetry_equiv_pos_as_xyz
  1  'x, y, z'
loop_
 _atom_type_symbol
 _atom_type_oxidation_number
  Gd3+  3.0
  Ta5+  5.0
  W6+  6.0
  O2-  -2.0
loop_
 _atom_site_type_symbol
 _atom_site_label
 _atom_site_symmetry_multiplicity
 _atom_site_fract_x
 _atom_site_fract_y
 _atom_site_fract_z
 _atom_site_occupancy
  Gd3+  Gd0  1  -0.02111571  0.26368835  0.74803772  1
  Gd3+  Gd1  1  0.00435195  0.75967482  0.25572475  1
  Gd3+  Gd2  1  0.00775376  0.77764393  0.49868952  1
  Gd3+  Gd3  1  0.75932018  0.74276147  0.26020527  1
  Gd3+  Gd4  1  0.51185043  0.74717458  0.24067840  1
  Gd3+  Gd5  1  0.50898201  0.74748665  -0.00465251  1
  Gd3+  Gd6  1  0.23770317  0.72826374  0.72688684  1
  Gd3+  Gd7  1  0.73278648  0.24582401  0.00485746  1
  Gd3+  Gd8  1  0.26231072  0.23661610  0.77695227  1
  Gd3+  Gd9  1  0.26001684  0.22578994  0.49309439  1
  Gd3+  Gd10  1  0.74248237  0.74398269  0.51317136  1
  Gd3+  Gd11  1  -0.00940767  0.73809371  0.00012683  1
  Gd3+  Gd12  1  0.51351390  0.74923209  0.74989839  1
  Gd3+  Gd13  1  0.22938449  0.78318585  0.48426019  1
  Gd3+  Gd14  1  -0.04301918  0.23490685  0.49449585  1
  Gd3+  Gd15  1  0.01634317  0.28790572  0.01227192  1
  Gd3+  Gd16  1  -0.01747964  0.73037129  0.76059747  1
  Gd3+  Gd17  1  0.55534146  0.26824695  0.49831858  1
  Gd3+  Gd18  1  0.27882354  0.25062233  0.22851339  1
  Ta5+  Ta19  1  0.86120184  0.58845155  0.63000778  1
  Ta5+  Ta20  1  0.82495073  0.62530694  0.10925143  1
  Ta5+  Ta21  1  0.12433933  0.11235437  0.62490588  1
  Ta5+  Ta22  1  0.66029804  0.38517991  0.35813352  1
  Ta5+  Ta23  1  0.08427827  0.12747579  0.87665178  1
  Ta5+  Ta24  1  0.87816670  0.12759656  0.13033644  1
  Ta5+  Ta25  1  0.40295157  0.36856389  0.37348860  1
  Ta5+  Ta26  1  0.14284713  0.60151250  0.92902476  1
  Ta5+  Ta27  1  0.10636987  0.88903817  0.66812502  1
  Ta5+  Ta28  1  0.40720455  0.11921000  0.36354592  1
  Ta5+  Ta29  1  0.37388798  0.88170958  0.87516822  1
  Ta5+  Ta30  1  0.62645701  0.12948024  0.62661886  1
  Ta5+  Ta31  1  0.85794679  0.89206380  0.63834410  1
  Ta5+  Ta32  1  0.64938041  0.13757109  0.35774848  1
  Ta5+  Ta33  1  0.59622278  0.12607781  0.11306340  1
  Ta5+  Ta34  1  0.84838066  0.88294650  0.88476625  1
  Ta5+  Ta35  1  0.12354480  0.60602476  0.12672054  1
  Ta5+  Ta36  1  0.13263797  0.37206503  0.39268410  1
  Ta5+  Ta37  1  0.64434501  0.89173889  0.37555812  1
  Ta5+  Ta38  1  0.85732867  0.88250864  0.08831602  1
  Ta5+  Ta39  1  0.68927097  0.38531355  0.62128658  1
  Ta5+  Ta40  1  0.59758706  0.12437494  0.87696999  1
  Ta5+  Ta41  1  0.63540864  0.61620478  0.37089196  1
  Ta5+  Ta42  1  0.86160318  0.38607141  0.62239432  1
  Ta5+  Ta43  1  0.40225560  0.37240200  0.88159509  1
  Ta5+  Ta44  1  0.60313550  0.88030703  0.61541548  1
  Ta5+  Ta45  1  0.36194512  0.86931771  0.12497055  1
  Ta5+  Ta46  1  0.35890179  0.61594246  0.38143737  1
  Ta5+  Ta47  1  0.09033126  0.60433639  0.59592374  1
  Ta5+  Ta48  1  0.42786272  0.12537669  0.89258442  1
  Ta5+  Ta49  1  0.85450699  0.89701538  0.38511327  1
  Ta5+  Ta50  1  0.88235610  0.61231532  0.37592244  1
  Ta5+  Ta51  1  0.62775842  0.61557063  0.63158881  1
  Ta5+  Ta52  1  0.12160035  0.61649567  0.37281956  1
  Ta5+  Ta53  1  0.38192194  0.12271036  0.63286283  1
  Ta5+  Ta54  1  0.86667295  0.38396584  0.88227201  1
  Ta5+  Ta55  1  0.12190679  0.38014258  0.85322115  1
  Ta5+  Ta56  1  0.82846746  0.62630367  0.88801891  1
  Ta5+  Ta57  1  0.12885939  0.90683865  0.87304679  1
  Ta5+  Ta58  1  0.44281798  0.36697075  0.12189701  1
  Ta5+  Ta59  1  0.91419327  0.12248619  0.88542610  1
  Ta5+  Ta60  1  0.13097465  0.12083673  0.36119216  1
  Ta5+  Ta61  1  0.66159820  0.62716192  0.88357810  1
  Ta5+  Ta62  1  0.36368464  0.37740017  0.63027901  1
  Ta5+  Ta63  1  0.87138242  0.38373462  0.13378181  1
  Ta5+  Ta64  1  0.11465507  0.11694826  0.12484538  1
  Ta5+  Ta65  1  0.81825647  0.13957050  0.37296393  1
  Ta5+  Ta66  1  0.39535920  0.56754115  0.62930602  1
  Ta5+  Ta67  1  0.64360566  0.38035333  0.86683155  1
  Ta5+  Ta68  1  0.10490164  0.37782247  0.19208799  1
  Ta5+  Ta69  1  0.36311027  0.61745922  0.87978452  1
  Ta5+  Ta70  1  0.83138956  0.37559356  0.37106290  1
  Ta5+  Ta71  1  0.35722399  0.88093686  0.62351848  1
  Ta5+  Ta72  1  0.09786730  0.93723396  0.35935512  1
  Ta5+  Ta73  1  0.38711896  0.11724352  0.09574090  1
  Ta5+  Ta74  1  0.65509026  0.62305343  0.10451196  1
  W6+  W75  1  0.40207337  0.60819107  0.13503824  1
  W6+  W76  1  0.65022296  0.88154307  0.87744767  1
  W6+  W77  1  0.83420789  0.13821470  0.63642840  1
  W6+  W78  1  0.11159442  0.35689395  0.60667904  1
  W6+  W79  1  0.38874998  0.87432070  0.37865019  1
  W6+  W80  1  0.61605628  0.88944546  0.11818621  1
  W6+  W81  1  0.60511515  0.38069279  0.11484631  1
  W6+  W82  1  0.11134429  0.86947234  0.11596199  1
  O2-  O83  1  0.13882902  0.00407192  0.10569497  1
  O2-  O84  1  0.19875173  0.01569105  0.37185692  1
  O2-  O85  1  0.08020653  -0.00139084  0.61194912  1
  O2-  O86  1  0.14568256  0.01914562  0.91130964  1
  O2-  O87  1  0.14916737  0.48877564  0.15791244  1
  O2-  O88  1  0.12049875  0.49420913  0.39169177  1
  O2-  O89  1  0.10768169  0.49052905  0.58978613  1
  O2-  O90  1  0.14656982  0.50690852  0.85469375  1
  O2-  O91  1  0.37606953  -0.01092508  0.11633393  1
  O2-  O92  1  0.42503387  0.00417009  0.36682441  1
  O2-  O93  1  0.38846910  0.00312069  0.63789839  1
  O2-  O94  1  0.40636007  -0.00544303  0.87693826  1
  O2-  O95  1  0.43848404  0.48529870  0.14459878  1
  O2-  O96  1  0.36662625  0.48268381  0.37926825  1
  O2-  O97  1  0.29687807  0.47780183  0.62167897  1
  O2-  O98  1  0.37399389  0.49934154  0.85990754  1
  O2-  O99  1  0.57347954  0.00757343  0.13595976  1
  O2-  O100  1  0.64445088  0.01010753  0.35752539  1
  O2-  O101  1  0.61556093  0.00379662  0.62100227  1
  O2-  O102  1  0.61784940  0.00665519  0.87233005  1
  O2-  O103  1  0.63711860  0.50907736  0.12644244  1
  O2-  O104  1  0.60470933  0.50338753  0.35754434  1
  O2-  O105  1  0.62372409  0.49749622  0.64078519  1
  O2-  O106  1  0.65242798  0.50728538  0.86976746  1
  O2-  O107  1  0.85136718  -0.00019504  0.11516422  1
  O2-  O108  1  0.85475910  0.01579812  0.38362825  1
  O2-  O109  1  0.85978647  0.00784426  0.63862306  1
  O2-  O110  1  0.87882520  0.00003762  0.87849085  1
  O2-  O111  1  0.84460003  0.50320492  0.12486979  1
  O2-  O112  1  0.88629424  0.49267799  0.36499870  1
  O2-  O113  1  0.94005977  0.49533081  0.62052247  1
  O2-  O114  1  0.84809126  0.50319669  0.89078931  1
  O2-  O115  1  0.12880562  0.26729732  0.14109784  1
  O2-  O116  1  0.16334398  0.24199409  0.36964593  1
  O2-  O117  1  0.06628630  0.22455643  0.62591763  1
  O2-  O118  1  0.09608917  0.25160255  0.85242188  1
  O2-  O119  1  0.08410172  0.73110992  0.12684657  1
  O2-  O120  1  0.11001722  0.74462016  0.37926850  1
  O2-  O121  1  0.12613546  0.77616627  0.60071323  1
  O2-  O122  1  0.05887439  0.67675307  0.88123212  1
  O2-  O123  1  0.38602748  0.24271229  0.11580552  1
  O2-  O124  1  0.34120962  0.25086833  0.36942499  1
  O2-  O125  1  0.32225529  0.25072626  0.63227921  1
  O2-  O126  1  0.39244965  0.24762810  0.88975569  1
  O2-  O127  1  0.41779277  0.74178636  0.12341194  1
  O2-  O128  1  0.34925418  0.73865672  0.40042747  1
  O2-  O129  1  0.31386545  0.76022834  0.60606418  1
  O2-  O130  1  0.41792149  0.73632145  0.86711637  1
  O2-  O131  1  0.59576059  0.25084881  0.08809975  1
  O2-  O132  1  0.66388735  0.26099970  0.38553421  1
  O2-  O133  1  0.65006880  0.26265337  0.61767094  1
  O2-  O134  1  0.64207311  0.24930667  0.88740474  1
  O2-  O135  1  0.60640961  0.75379651  0.11389946  1
  O2-  O136  1  0.66280180  0.75380633  0.38244717  1
  O2-  O137  1  0.61961825  0.75402355  0.60121782  1
  O2-  O138  1  0.60768790  0.75134001  0.87981733  1
  O2-  O139  1  0.90651306  0.25214139  0.12409408  1
  O2-  O140  1  0.87690259  0.25271451  0.36459843  1
  O2-  O141  1  0.88706469  0.26044410  0.62731488  1
  O2-  O142  1  0.92038159  0.26180029  0.89321005  1
  O2-  O143  1  0.82037853  0.76337022  0.11877990  1
  O2-  O144  1  0.86604783  0.75345547  0.37630797  1
  O2-  O145  1  0.98317223  0.84130731  0.64814540  1
  O2-  O146  1  0.88645668  0.74888917  0.88206231  1
  O2-  O147  1  0.09507001  0.16116695  0.00732794  1
  O2-  O148  1  0.17684163  0.13409053  0.23550567  1
  O2-  O149  1  0.11531548  0.13352457  0.49004595  1
  O2-  O150  1  0.13559492  0.12095714  0.75148424  1
  O2-  O151  1  0.05751230  0.57750606  0.02453985  1
  O2-  O152  1  0.07988354  0.62177568  0.25415173  1
  O2-  O153  1  0.16745909  0.63969146  0.50373397  1
  O2-  O154  1  0.13206985  0.63267157  0.70578107  1
  O2-  O155  1  0.32625070  0.11604407  -0.00852954  1
  O2-  O156  1  0.36581380  0.12752529  0.24159428  1
  O2-  O157  1  0.37318938  0.13056854  0.49036603  1
  O2-  O158  1  0.37149560  0.13552809  0.75928330  1
  O2-  O159  1  0.39112844  0.61776423  -0.00285454  1
  O2-  O160  1  0.42589922  0.62595608  0.27836917  1
  O2-  O161  1  0.37675341  0.59933212  0.50991281  1
  O2-  O162  1  0.35009441  0.62466913  0.73260945  1
  O2-  O163  1  0.66238115  0.11636482  0.00269564  1
  O2-  O164  1  0.63505801  0.14695525  0.22912888  1
  O2-  O165  1  0.62925684  0.13587870  0.49616982  1
  O2-  O166  1  0.61972822  0.13768120  0.75139842  1
  O2-  O167  1  0.58299253  0.62034978  -0.00640883  1
  O2-  O168  1  0.63085569  0.65156927  0.24166734  1
  O2-  O169  1  0.63925338  0.61901925  0.49879651  1
  O2-  O170  1  0.62147724  0.64343453  0.75778632  1
  O2-  O171  1  0.85177956  0.14098274  0.00265005  1
  O2-  O172  1  0.82460475  0.13260538  0.23929203  1
  O2-  O173  1  0.82894552  0.15031840  0.49991789  1
  O2-  O174  1  0.88889832  0.14572485  0.76414316  1
  O2-  O175  1  0.89493871  0.63059074  0.00247890  1
  O2-  O176  1  0.88946643  0.64613929  0.24418635  1
  O2-  O177  1  0.84701919  0.62642059  0.50401790  1
  O2-  O178  1  0.87798191  0.62197481  0.75469534  1
  O2-  O179  1  0.12757270  0.37054928  -0.02459134  1
  O2-  O180  1  0.20606936  0.37348307  0.27763064  1
  O2-  O181  1  0.04661679  0.34418379  0.47890376  1
  O2-  O182  1  0.17306915  0.35155582  0.73555264  1
  O2-  O183  1  0.09855219  0.84552413  -0.02543933  1
  O2-  O184  1  0.11776118  0.87616483  0.25582796  1
  O2-  O185  1  0.11571547  0.88774202  0.47227353  1
  O2-  O186  1  0.12227311  0.80518561  0.77660443  1
  O2-  O187  1  0.39525651  0.38420306  0.00467627  1
  O2-  O188  1  0.39647272  0.34973123  0.24751559  1
  O2-  O189  1  0.40018149  0.34327652  0.50950437  1
  O2-  O190  1  0.35538533  0.35323077  0.75774389  1
  O2-  O191  1  0.39192698  0.85034741  -0.00305545  1
  O2-  O192  1  0.40749876  0.85741189  0.24146416  1
  O2-  O193  1  0.32578371  0.89615072  0.50321764  1
  O2-  O194  1  0.37955701  0.84535701  0.75311656  1
  O2-  O195  1  0.66566633  0.38069472  -0.00622662  1
  O2-  O196  1  0.63664714  0.36624680  0.23963069  1
  O2-  O197  1  0.65174203  0.38874504  0.49874133  1
  O2-  O198  1  0.68808300  0.37126913  0.75287591  1
  O2-  O199  1  0.58108192  0.87700674  -0.00707570  1
  O2-  O200  1  0.60149790  0.86128921  0.25871429  1
  O2-  O201  1  0.57947974  0.88646810  0.48058685  1
  O2-  O202  1  0.59889358  0.86598732  0.74355796  1
  O2-  O203  1  0.84239758  0.36024831  0.01059980  1
  O2-  O204  1  0.82056763  0.36284982  0.24184965  1
  O2-  O205  1  0.86565466  0.36563829  0.49450771  1
  O2-  O206  1  0.87716869  0.37874512  0.75582319  1
  O2-  O207  1  0.93110895  0.87517879  -0.01416116  1
  O2-  O208  1  0.96786004  0.85925387  0.14999343  1
  O2-  O209  1  0.89018322  0.86027743  0.51466703  1
  O2-  O210  1  0.85849931  0.85299887  0.75812308  1
  O2-  O211  1  -0.00161006  0.10686354  0.15791942  1
  O2-  O212  1  0.03509473  0.04429380  0.33814883  1
  O2-  O213  1  -0.02023333  -0.12493452  0.36293298  1
  O2-  O214  1  0.05768417  -0.05448124  0.77436577  1
  O2-  O215  1  -0.00071070  0.39657431  0.11976726  1
  O2-  O216  1  0.04057594  0.36124045  0.29516981  1
  O2-  O217  1  0.00161471  0.62941248  0.42835873  1
  O2-  O218  1  -0.02229642  0.66524408  0.61356157  1
  O2-  O219  1  0.25274541  -0.11879825  -0.12587241  1
  O2-  O220  1  0.24753956  -0.15022143  0.12054330  1
  O2-  O221  1  0.24590681  0.10947106  0.61161893  1
  O2-  O222  1  0.23008761  -0.09698941  0.66807029  1
  O2-  O223  1  0.21145307  0.62458298  0.03927635  1
  O2-  O224  1  0.24375992  0.61181513  0.34234827  1
  O2-  O225  1  0.21378485  0.36292976  0.49144011  1
  O2-  O226  1  0.24479482  0.66133628  0.86899462  1
  O2-  O227  1  0.48854354  0.11955286  0.02027009  1
  O2-  O228  1  0.51428636  0.17136258  0.36932077  1
  O2-  O229  1  0.47873505  -0.14635723  0.61876512  1
  O2-  O230  1  0.49795715  0.16011079  0.61655052  1
  O2-  O231  1  0.51904890  0.38083915  -0.14365326  1
  O2-  O232  1  0.52065965  0.36116529  0.38321635  1
  O2-  O233  1  0.49857233  0.63787401  0.63999074  1
  O2-  O234  1  0.45583901  0.46034025  0.64750028  1
  O2-  O235  1  0.76397580  -0.12220111  -0.01786622  1
  O2-  O236  1  0.77574823  -0.11657059  0.28844692  1
  O2-  O237  1  0.74670650  -0.11588752  0.45207013  1
  O2-  O238  1  0.74022332  -0.13499650  0.61969811  1
  O2-  O239  1  0.74084592  0.64664215  -0.00137381  1
  O2-  O240  1  0.75784586  0.61344216  0.35293083  1
  O2-  O241  1  0.78052258  0.48857088  0.61942390  1
  O2-  O242  1  0.74937604  0.65433713  0.63783171  1
