# generated using pymatgen
data_Gd19Ta56(WO20)8
_symmetry_space_group_name_H-M   'P 1'
_cell_length_a   15.52839471
_cell_length_b   15.45524039
_cell_length_c   15.30152396
_cell_angle_alpha   89.97891227
_cell_angle_beta   90.03207001
_cell_angle_gamma   89.81212733
_symmetry_Int_Tables_number   1
_chemical_formula_structural   Gd19Ta56(WO20)8
_chemical_formula_sum   'Gd19 Ta56 W8 O160'
_cell_volume   3672.26979295
_cell_formula_units_Z   1
loop_
 _symmetry_equiv_pos_site_id
 _symmetry_equiv_pos_as_xyz
  1  'x, y, z'
loop_
 _atom_type_symbol
 _atom_type_oxidation_number
  Gd3+  3.0
  Ta5+  5.0
  W6+  6.0
  O2-  -2.0
loop_
 _atom_site_type_symbol
 _atom_site_label
 _atom_site_symmetry_multiplicity
 _atom_site_fract_x
 _atom_site_fract_y
 _atom_site_fract_z
 _atom_site_occupancy
  Gd3+  Gd0  1  0.51081283  0.25402197  0.77722055  1
  Gd3+  Gd1  1  0.49062443  0.75493687  0.23399834  1
  Gd3+  Gd2  1  0.02209813  0.74357994  0.23387396  1
  Gd3+  Gd3  1  0.76342723  0.73029862  -0.01213926  1
  Gd3+  Gd4  1  0.25934808  0.25348817  0.23868404  1
  Gd3+  Gd5  1  0.75095043  0.23286769  0.74673244  1
  Gd3+  Gd6  1  0.74385407  0.75088155  0.76086943  1
  Gd3+  Gd7  1  0.25941684  0.25695354  0.52356987  1
  Gd3+  Gd8  1  0.25704787  0.76074762  0.75240650  1
  Gd3+  Gd9  1  0.74095326  0.24532149  0.26662213  1
  Gd3+  Gd10  1  -0.01542716  0.26646250  0.75001837  1
  Gd3+  Gd11  1  0.75627798  0.23378838  0.00578163  1
  Gd3+  Gd12  1  0.75385600  0.74797842  0.50968663  1
  Gd3+  Gd13  1  0.24375325  0.73866071  -0.01771128  1
  Gd3+  Gd14  1  0.01830819  0.71686519  0.49418315  1
  Gd3+  Gd15  1  -0.02571288  0.26158036  0.25749724  1
  Gd3+  Gd16  1  0.47665137  0.78875792  -0.01576034  1
  Gd3+  Gd17  1  0.01117401  0.26332766  0.50701592  1
  Gd3+  Gd18  1  0.24770685  0.74800670  0.51538985  1
  Ta5+  Ta19  1  0.59807377  0.59583843  0.87637273  1
  Ta5+  Ta20  1  0.67372294  0.37523406  0.87847759  1
  Ta5+  Ta21  1  0.33491478  0.88656244  0.12687908  1
  Ta5+  Ta22  1  0.16733554  0.87792734  0.12331503  1
  Ta5+  Ta23  1  0.83818736  0.38011851  0.13098598  1
  Ta5+  Ta24  1  0.09858515  0.88289971  0.63793090  1
  Ta5+  Ta25  1  0.88484388  0.61293664  0.63364040  1
  Ta5+  Ta26  1  0.15644531  0.39056108  0.68046264  1
  Ta5+  Ta27  1  0.06353707  0.12705894  0.88278440  1
  Ta5+  Ta28  1  0.12381652  0.12620605  0.63504945  1
  Ta5+  Ta29  1  0.88925088  0.87345668  0.87491306  1
  Ta5+  Ta30  1  0.37620507  0.88230422  0.37836976  1
  Ta5+  Ta31  1  0.88166528  0.12253778  0.39656194  1
  Ta5+  Ta32  1  0.40011117  0.87535365  0.62186279  1
  Ta5+  Ta33  1  0.61040742  0.12782450  0.13762539  1
  Ta5+  Ta34  1  0.35324095  0.11661948  0.38675677  1
  Ta5+  Ta35  1  0.12344932  0.56719558  0.63081152  1
  Ta5+  Ta36  1  0.64065985  0.10341739  0.88320036  1
  Ta5+  Ta37  1  0.60334617  0.37076239  0.38238359  1
  Ta5+  Ta38  1  0.36635213  0.40287619  0.37666743  1
  Ta5+  Ta39  1  0.85946561  0.38589634  0.61575360  1
  Ta5+  Ta40  1  0.62660792  0.61897343  0.62849538  1
  Ta5+  Ta41  1  0.86922085  0.87814914  0.12407011  1
  Ta5+  Ta42  1  0.86762254  0.11898008  0.61764976  1
  Ta5+  Ta43  1  0.84258079  0.38353869  0.87489586  1
  Ta5+  Ta44  1  0.37770226  0.64097462  0.37449440  1
  Ta5+  Ta45  1  0.87163281  0.87716623  0.37511555  1
  Ta5+  Ta46  1  0.13597677  0.87302089  0.37024110  1
  Ta5+  Ta47  1  0.84934723  0.38202595  0.40369607  1
  Ta5+  Ta48  1  0.12218617  0.37616804  0.88384969  1
  Ta5+  Ta49  1  0.92169703  0.61465612  0.86970630  1
  Ta5+  Ta50  1  0.59765887  0.87000470  0.62012963  1
  Ta5+  Ta51  1  0.86804391  0.62644587  0.36730202  1
  Ta5+  Ta52  1  0.12697878  0.42000426  0.37040533  1
  Ta5+  Ta53  1  0.66690393  0.38559804  0.12823635  1
  Ta5+  Ta54  1  0.09285540  0.37227745  0.11125778  1
  Ta5+  Ta55  1  0.89335001  0.87329955  0.63862932  1
  Ta5+  Ta56  1  0.39523536  0.58624284  0.86830703  1
  Ta5+  Ta57  1  0.63085813  0.87159854  0.38209245  1
  Ta5+  Ta58  1  0.63703982  0.11478136  0.39219675  1
  Ta5+  Ta59  1  0.12427612  0.10272588  0.37916208  1
  Ta5+  Ta60  1  0.12016768  0.12527667  0.12531451  1
  Ta5+  Ta61  1  0.62025053  0.37250404  0.63329989  1
  Ta5+  Ta62  1  0.89583979  0.12317398  0.87845247  1
  Ta5+  Ta63  1  0.61756987  0.11520467  0.63293513  1
  Ta5+  Ta64  1  0.37402091  0.11578804  0.64651930  1
  Ta5+  Ta65  1  0.63035414  0.61886837  0.37620800  1
  Ta5+  Ta66  1  0.88345838  0.62299376  0.11990189  1
  Ta5+  Ta67  1  0.13152665  0.61289127  0.11424542  1
  Ta5+  Ta68  1  0.62126592  0.88855627  0.12450263  1
  Ta5+  Ta69  1  0.33189256  0.35724212  0.87979871  1
  Ta5+  Ta70  1  0.39825877  0.62255750  0.62702690  1
  Ta5+  Ta71  1  0.63387515  0.91340365  0.86881978  1
  Ta5+  Ta72  1  0.11466331  0.88350409  0.87604349  1
  Ta5+  Ta73  1  0.09048266  0.62098040  0.86437011  1
  Ta5+  Ta74  1  0.34930474  0.10690780  0.89510378  1
  W6+  W75  1  0.88002505  0.11355016  0.12941880  1
  W6+  W76  1  0.38215632  0.37370334  0.11006330  1
  W6+  W77  1  0.34426134  0.91945294  0.87128469  1
  W6+  W78  1  0.62834551  0.63208698  0.12333399  1
  W6+  W79  1  0.15183791  0.60790613  0.37192400  1
  W6+  W80  1  0.38433430  0.37484718  0.64023516  1
  W6+  W81  1  0.38573514  0.11768104  0.12558862  1
  W6+  W82  1  0.36805769  0.62518473  0.11553844  1
  O2-  O83  1  0.14238877  0.00698480  0.13323157  1
  O2-  O84  1  0.08197360  -0.01159061  0.37496229  1
  O2-  O85  1  0.10255903  0.00255526  0.60850217  1
  O2-  O86  1  0.08524336  -0.00029391  0.87779988  1
  O2-  O87  1  0.14403106  0.48258447  0.12133626  1
  O2-  O88  1  0.04924880  0.51001602  0.38530981  1
  O2-  O89  1  0.22769738  0.49065826  0.64925252  1
  O2-  O90  1  0.10662093  0.49958616  0.87873682  1
  O2-  O91  1  0.32592003  0.00616781  0.14069958  1
  O2-  O92  1  0.40900420  0.00066670  0.38723517  1
  O2-  O93  1  0.39534077  -0.00104479  0.60744403  1
  O2-  O94  1  0.36801518  0.08818456  0.76835921  1
  O2-  O95  1  0.36646916  0.49137915  0.11254341  1
  O2-  O96  1  0.40335261  0.51796907  0.38071495  1
  O2-  O97  1  0.41672835  0.50644805  0.63241429  1
  O2-  O98  1  0.32663504  0.48770154  0.86385214  1
  O2-  O99  1  0.58294935  0.00225779  0.14108647  1
  O2-  O100  1  0.60113861  -0.00689602  0.38646972  1
  O2-  O101  1  0.61298222  -0.00723413  0.62392721  1
  O2-  O102  1  0.71830565  -0.00602590  0.89659853  1
  O2-  O103  1  0.65993211  0.50364008  0.12565467  1
  O2-  O104  1  0.60434774  0.50118055  0.38091945  1
  O2-  O105  1  0.62186822  0.49986988  0.63569774  1
  O2-  O106  1  0.67623004  0.50130279  0.87427470  1
  O2-  O107  1  0.92258236  -0.01734813  0.11270785  1
  O2-  O108  1  0.89909897  -0.00473763  0.38606225  1
  O2-  O109  1  0.86504327  -0.00949772  0.61847695  1
  O2-  O110  1  0.90116959  -0.00712319  0.87076014  1
  O2-  O111  1  0.85878383  0.50691916  0.13456250  1
  O2-  O112  1  0.85396114  0.50833619  0.37853797  1
  O2-  O113  1  0.82752707  0.50926146  0.60598347  1
  O2-  O114  1  0.89671246  0.49601047  0.87882288  1
  O2-  O115  1  0.15078931  0.26099274  0.12500551  1
  O2-  O116  1  0.01151413  0.16304853  0.36995318  1
  O2-  O117  1  0.11509292  0.26370340  0.63717547  1
  O2-  O118  1  0.07973022  0.25503614  0.86904688  1
  O2-  O119  1  0.14567239  0.74651357  0.11632195  1
  O2-  O120  1  0.10104391  0.74843471  0.37327786  1
  O2-  O121  1  0.16236608  0.77417611  0.63398505  1
  O2-  O122  1  0.15099160  0.74811795  0.86374184  1
  O2-  O123  1  0.34686869  0.25220204  0.12171940  1
  O2-  O124  1  0.29894981  0.24343107  0.38412016  1
  O2-  O125  1  0.35324998  0.24144313  0.64566342  1
  O2-  O126  1  0.33191125  0.22875434  0.87545877  1
  O2-  O127  1  0.39783158  0.76260509  0.10908970  1
  O2-  O128  1  0.42763893  0.76281977  0.38230492  1
  O2-  O129  1  0.34645339  0.75074402  0.62835465  1
  O2-  O130  1  0.33820833  0.78513455  0.87782471  1
  O2-  O131  1  0.66818888  0.24402406  0.13459088  1
  O2-  O132  1  0.62311866  0.23801498  0.37091492  1
  O2-  O133  1  0.61721318  0.24417047  0.66553820  1
  O2-  O134  1  0.64621052  0.23567366  0.86670853  1
  O2-  O135  1  0.57888873  0.76706762  0.10941397  1
  O2-  O136  1  0.60647639  0.75047793  0.40018298  1
  O2-  O137  1  0.66297468  0.75337068  0.62842053  1
  O2-  O138  1  0.67725087  0.79229643  0.88682302  1
  O2-  O139  1  0.84274437  0.24631376  0.13687534  1
  O2-  O140  1  0.87434801  0.25244804  0.41542605  1
  O2-  O141  1  0.90220348  0.25266006  0.61651017  1
  O2-  O142  1  0.86247966  0.25103322  0.86563436  1
  O2-  O143  1  0.92462763  0.76643293  0.11663895  1
  O2-  O144  1  0.92587111  0.75772027  0.37457070  1
  O2-  O145  1  0.84595708  0.74950436  0.63499799  1
  O2-  O146  1  0.85533869  0.74140166  0.86667755  1
  O2-  O147  1  0.09900156  0.13157175  0.00582057  1
  O2-  O148  1  0.15358377  0.14473908  0.26514208  1
  O2-  O149  1  0.13066686  0.15660054  0.49737788  1
  O2-  O150  1  0.07189929  0.12692164  0.74590761  1
  O2-  O151  1  0.14630340  0.62645294  -0.01190999  1
  O2-  O152  1  0.12233729  0.62752264  0.24027604  1
  O2-  O153  1  0.14937568  0.62583402  0.51871762  1
  O2-  O154  1  0.13491570  0.62152995  0.74153498  1
  O2-  O155  1  0.42003092  0.10136347  -0.00733560  1
  O2-  O156  1  0.35945460  0.13863170  0.26436202  1
  O2-  O157  1  0.37378691  0.14482971  0.50794942  1
  O2-  O158  1  0.49917076  0.13420913  0.67068676  1
  O2-  O159  1  0.34746882  0.62906268  -0.02549943  1
  O2-  O160  1  0.39463525  0.64216907  0.25191702  1
  O2-  O161  1  0.35703064  0.63298256  0.50872770  1
  O2-  O162  1  0.36344667  0.63572405  0.75455812  1
  O2-  O163  1  0.63987887  0.12199339  0.01193677  1
  O2-  O164  1  0.66022071  0.11591414  0.25821893  1
  O2-  O165  1  0.59642604  0.12980078  0.50880996  1
  O2-  O166  1  0.66901715  0.10673522  0.75515333  1
  O2-  O167  1  0.64625594  0.63678994  -0.01627936  1
  O2-  O168  1  0.59714907  0.64415342  0.25808221  1
  O2-  O169  1  0.66574548  0.62260842  0.50832504  1
  O2-  O170  1  0.63309715  0.63933275  0.76074287  1
  O2-  O171  1  0.85412118  0.12133860  -0.00148490  1
  O2-  O172  1  0.86475208  0.14500784  0.27315584  1
  O2-  O173  1  0.94266451  0.11932819  0.51478959  1
  O2-  O174  1  0.87681724  0.12992794  0.74275267  1
  O2-  O175  1  0.88035162  0.63363227  -0.00567792  1
  O2-  O176  1  0.91193445  0.63902424  0.25130586  1
  O2-  O177  1  0.88298276  0.64914927  0.49586801  1
  O2-  O178  1  0.85894244  0.62112099  0.75284059  1
  O2-  O179  1  0.05765859  0.37302937  -0.00417558  1
  O2-  O180  1  0.11525610  0.35584558  0.26400630  1
  O2-  O181  1  0.13310223  0.33400874  0.45754042  1
  O2-  O182  1  0.05964722  0.38744016  0.76229392  1
  O2-  O183  1  0.16579508  0.87582682  -0.00918754  1
  O2-  O184  1  0.10760640  0.86596251  0.24515579  1
  O2-  O185  1  0.14366465  0.86616399  0.49713121  1
  O2-  O186  1  0.15693630  0.88775729  0.75481234  1
  O2-  O187  1  0.40466054  0.36199843  -0.02388681  1
  O2-  O188  1  0.33456822  0.37739209  0.25766952  1
  O2-  O189  1  0.34169085  0.37536029  0.49746281  1
  O2-  O190  1  0.40982333  0.35498137  0.77721188  1
  O2-  O191  1  0.37683989  0.89532170  0.00629743  1
  O2-  O192  1  0.39139186  0.86941189  0.25119984  1
  O2-  O193  1  0.33875463  0.86450447  0.50223972  1
  O2-  O194  1  0.33267697  0.88850007  0.72740705  1
  O2-  O195  1  0.65134000  0.35860177  0.00170769  1
  O2-  O196  1  0.64110611  0.36766236  0.25922869  1
  O2-  O197  1  0.58743559  0.36238177  0.51364387  1
  O2-  O198  1  0.59879176  0.37363882  0.76414247  1
  O2-  O199  1  0.59064130  0.89095368  -0.00218159  1
  O2-  O200  1  0.59930195  0.86204520  0.25569362  1
  O2-  O201  1  0.67173535  0.87116887  0.50698495  1
  O2-  O202  1  0.65067830  0.87991161  0.74675402  1
  O2-  O203  1  0.84959044  0.36667993  0.00442823  1
  O2-  O204  1  0.85315177  0.35489548  0.27391183  1
  O2-  O205  1  0.93044611  0.39266591  0.50430861  1
  O2-  O206  1  0.87469495  0.37668520  0.74150705  1
  O2-  O207  1  0.83838076  0.86466715  -0.00961701  1
  O2-  O208  1  0.89639258  0.86896931  0.24989756  1
  O2-  O209  1  0.85360476  0.85844628  0.50139345  1
  O2-  O210  1  0.83382529  0.87054554  0.75586142  1
  O2-  O211  1  0.00214138  -0.16194699  -0.09921319  1
  O2-  O212  1  0.00637221  0.15098765  0.16892814  1
  O2-  O213  1  -0.00184442  -0.16419542  0.57001829  1
  O2-  O214  1  -0.00641346  -0.10801114  0.71599938  1
  O2-  O215  1  0.01079362  0.61457953  0.10993684  1
  O2-  O216  1  -0.02121733  0.36917710  0.15272132  1
  O2-  O217  1  0.07167706  0.45871064  0.60263022  1
  O2-  O218  1  0.00702607  0.63750272  0.62158590  1
  O2-  O219  1  0.26713681  0.02071927  -0.08972728  1
  O2-  O220  1  0.25478206  -0.11776944  0.35464813  1
  O2-  O221  1  0.24314595  0.06732035  0.40136860  1
  O2-  O222  1  0.24380325  0.11293686  0.63663662  1
  O2-  O223  1  0.22428791  0.36197091  -0.04684213  1
  O2-  O224  1  0.26520013  0.68822143  0.37484030  1
  O2-  O225  1  0.23416271  0.47429775  0.37730548  1
  O2-  O226  1  0.22095336  0.35583443  0.78620968  1
  O2-  O227  1  0.55350219  0.00954728  -0.14136414  1
  O2-  O228  1  0.50543043  0.17661552  0.15115386  1
  O2-  O229  1  0.50575119  -0.12688764  0.53493993  1
  O2-  O230  1  0.49801180  -0.16305508  0.69159462  1
  O2-  O231  1  0.50004083  0.51911264  -0.14147494  1
  O2-  O232  1  0.47878722  0.35703304  0.36793899  1
  O2-  O233  1  0.51154800  0.66214402  0.61205831  1
  O2-  O234  1  0.49599585  0.67860333  0.88811570  1
  O2-  O235  1  0.74309570  -0.11514136  0.13515254  1
  O2-  O236  1  0.75100562  -0.13021117  0.35276948  1
  O2-  O237  1  0.75696907  0.10807898  0.41529910  1
  O2-  O238  1  0.74810085  0.14213453  0.60937889  1
  O2-  O239  1  0.76796814  0.67474601  0.12923412  1
  O2-  O240  1  0.75350426  0.66930208  0.36306589  1
  O2-  O241  1  0.73083437  0.37059934  0.41138384  1
  O2-  O242  1  0.74253125  0.34695175  0.63158239  1
