# generated using pymatgen
data_Gd19Ta56(WO20)8
_symmetry_space_group_name_H-M   'P 1'
_cell_length_a   15.51910613
_cell_length_b   15.48822591
_cell_length_c   15.21704918
_cell_angle_alpha   90.01733541
_cell_angle_beta   89.90448785
_cell_angle_gamma   89.98185237
_symmetry_Int_Tables_number   1
_chemical_formula_structural   Gd19Ta56(WO20)8
_chemical_formula_sum   'Gd19 Ta56 W8 O160'
_cell_volume   3657.61657462
_cell_formula_units_Z   1
loop_
 _symmetry_equiv_pos_site_id
 _symmetry_equiv_pos_as_xyz
  1  'x, y, z'
loop_
 _atom_type_symbol
 _atom_type_oxidation_number
  Gd3+  3.0
  Ta5+  5.0
  W6+  6.0
  O2-  -2.0
loop_
 _atom_site_type_symbol
 _atom_site_label
 _atom_site_symmetry_multiplicity
 _atom_site_fract_x
 _atom_site_fract_y
 _atom_site_fract_z
 _atom_site_occupancy
  Gd3+  Gd0  1  0.48829892  0.25734821  0.75348153  1
  Gd3+  Gd1  1  0.49163909  0.72674172  0.24761275  1
  Gd3+  Gd2  1  -0.00264068  0.75506567  0.24969693  1
  Gd3+  Gd3  1  0.00543407  0.75154913  0.75200902  1
  Gd3+  Gd4  1  0.47026664  0.22986714  0.23625908  1
  Gd3+  Gd5  1  0.20468043  0.24949768  0.02168981  1
  Gd3+  Gd6  1  0.74075130  0.25875814  0.22272173  1
  Gd3+  Gd7  1  0.75804167  0.24775693  0.50190631  1
  Gd3+  Gd8  1  0.24529700  0.24790610  0.25098712  1
  Gd3+  Gd9  1  0.50671847  0.74189032  0.49268206  1
  Gd3+  Gd10  1  0.24508871  0.76098944  0.00303108  1
  Gd3+  Gd11  1  0.24848810  0.23498099  0.49987044  1
  Gd3+  Gd12  1  0.51237801  0.23760430  -0.00199373  1
  Gd3+  Gd13  1  0.01953879  0.27183132  0.75342144  1
  Gd3+  Gd14  1  0.00706395  0.75045499  0.50356389  1
  Gd3+  Gd15  1  0.49316187  0.74460170  0.72917597  1
  Gd3+  Gd16  1  0.25844555  0.73660370  0.51426872  1
  Gd3+  Gd17  1  0.74881483  0.76714798  0.01143777  1
  Gd3+  Gd18  1  0.78650699  0.75448478  0.44979663  1
  Ta5+  Ta19  1  0.87824831  0.88806879  0.87071067  1
  Ta5+  Ta20  1  0.39493889  0.87400898  0.11917728  1
  Ta5+  Ta21  1  0.35780422  0.11441717  0.86994565  1
  Ta5+  Ta22  1  0.16831049  0.62733620  0.14644856  1
  Ta5+  Ta23  1  0.11888127  0.88565186  0.88264865  1
  Ta5+  Ta24  1  0.14526226  0.89571177  0.63387649  1
  Ta5+  Ta25  1  0.88090540  0.13834720  0.86701243  1
  Ta5+  Ta26  1  0.85306660  0.89183815  0.62654991  1
  Ta5+  Ta27  1  0.85230564  0.62862207  0.62511139  1
  Ta5+  Ta28  1  0.61178323  0.61789409  0.86321673  1
  Ta5+  Ta29  1  0.36443816  0.37481175  0.88826927  1
  Ta5+  Ta30  1  0.10553398  0.12484623  0.37309123  1
  Ta5+  Ta31  1  0.17403249  0.38072981  0.63408810  1
  Ta5+  Ta32  1  0.88056741  0.89592205  0.12554421  1
  Ta5+  Ta33  1  0.09542870  0.12875223  0.62076033  1
  Ta5+  Ta34  1  0.34651639  0.90883291  0.62248698  1
  Ta5+  Ta35  1  0.34319299  0.36306791  0.63777728  1
  Ta5+  Ta36  1  0.57901411  0.13372642  0.60602700  1
  Ta5+  Ta37  1  0.37169798  0.87472837  0.86531011  1
  Ta5+  Ta38  1  0.09707571  0.39420813  0.15527677  1
  Ta5+  Ta39  1  0.36709391  0.57143934  0.62692552  1
  Ta5+  Ta40  1  0.37236831  0.86741212  0.37416823  1
  Ta5+  Ta41  1  0.90194817  0.56827018  0.11120455  1
  Ta5+  Ta42  1  0.12064240  0.38744206  0.38328825  1
  Ta5+  Ta43  1  0.38914237  0.06059171  0.11693704  1
  Ta5+  Ta44  1  0.60552260  0.39956694  0.11801034  1
  Ta5+  Ta45  1  0.55798354  0.39331401  0.59715324  1
  Ta5+  Ta46  1  0.90870277  0.13342427  0.11798361  1
  Ta5+  Ta47  1  0.91537642  0.37242988  0.34180349  1
  Ta5+  Ta48  1  0.13124839  0.88430690  0.37785599  1
  Ta5+  Ta49  1  0.64107319  0.11946338  0.85535969  1
  Ta5+  Ta50  1  0.39994008  0.37212604  0.39104768  1
  Ta5+  Ta51  1  0.64681003  0.62043735  0.62032762  1
  Ta5+  Ta52  1  0.60609497  0.87924892  0.85799368  1
  Ta5+  Ta53  1  0.62560948  0.88143188  0.36069991  1
  Ta5+  Ta54  1  0.88106971  0.63742163  0.87849643  1
  Ta5+  Ta55  1  0.11400081  0.13168449  0.88341093  1
  Ta5+  Ta56  1  0.56773548  0.87330188  0.11016237  1
  Ta5+  Ta57  1  0.61759899  0.07082743  0.11490304  1
  Ta5+  Ta58  1  0.41211737  0.12131960  0.62078866  1
  Ta5+  Ta59  1  0.13192498  0.61555905  0.63159204  1
  Ta5+  Ta60  1  0.07213456  0.13170775  0.15102138  1
  Ta5+  Ta61  1  0.92774085  0.13228133  0.61284490  1
  Ta5+  Ta62  1  0.92827394  0.37132447  0.11645507  1
  Ta5+  Ta63  1  0.32796489  0.60636282  0.35925163  1
  Ta5+  Ta64  1  0.86827873  0.38551597  0.87278610  1
  Ta5+  Ta65  1  0.12545997  0.39247086  0.89251792  1
  Ta5+  Ta66  1  0.64473786  0.88968462  0.61612351  1
  Ta5+  Ta67  1  0.33585880  0.62718600  0.13988049  1
  Ta5+  Ta68  1  0.61273234  0.37480786  0.38661938  1
  Ta5+  Ta69  1  0.91172275  0.38894675  0.61700188  1
  Ta5+  Ta70  1  0.90510653  0.14710576  0.35605879  1
  Ta5+  Ta71  1  0.37632772  0.39586268  0.12696268  1
  Ta5+  Ta72  1  0.11522874  0.88890263  0.12586564  1
  Ta5+  Ta73  1  0.63854734  0.61348932  0.36279027  1
  Ta5+  Ta74  1  0.37383589  0.61699455  0.88228587  1
  W6+  W75  1  0.16334122  0.63347669  0.36155416  1
  W6+  W76  1  0.38029783  0.11115660  0.37583698  1
  W6+  W77  1  0.62074798  0.37591715  0.85924748  1
  W6+  W78  1  0.61576568  0.62485817  0.10392891  1
  W6+  W79  1  0.12583085  0.62510003  0.88881054  1
  W6+  W80  1  0.63739376  0.12958158  0.36079689  1
  W6+  W81  1  0.89763745  0.90279393  0.37778706  1
  W6+  W82  1  0.89905071  0.60878744  0.36405303  1
  O2-  O83  1  0.09771294  0.00928498  0.13483610  1
  O2-  O84  1  0.09066330  0.00020760  0.38485557  1
  O2-  O85  1  0.08257705  0.00137335  0.62119533  1
  O2-  O86  1  0.11376763  0.00824400  0.87888126  1
  O2-  O87  1  0.14849193  0.50605059  0.15487568  1
  O2-  O88  1  0.12955003  0.50575500  0.37943891  1
  O2-  O89  1  0.10896893  0.49974994  0.61895231  1
  O2-  O90  1  0.07583526  0.50005978  0.89350259  1
  O2-  O91  1  0.30305653  -0.02267704  0.11984784  1
  O2-  O92  1  0.39916034  -0.01947270  0.39775092  1
  O2-  O93  1  0.43179567  -0.00609147  0.60532290  1
  O2-  O94  1  0.33015598  -0.00857420  0.86293165  1
  O2-  O95  1  0.31938940  0.49856127  0.11469892  1
  O2-  O96  1  0.35529561  0.48162929  0.37245744  1
  O2-  O97  1  0.44549763  0.47122365  0.61625414  1
  O2-  O98  1  0.34747916  0.49602414  0.90115027  1
  O2-  O99  1  0.66863542  -0.03648135  0.11805623  1
  O2-  O100  1  0.61579642  -0.00141613  0.36209562  1
  O2-  O101  1  0.62160270  0.00594279  0.60374414  1
  O2-  O102  1  0.65322392  -0.00461929  0.85023073  1
  O2-  O103  1  0.65791404  0.50198140  0.08581542  1
  O2-  O104  1  0.65156693  0.48905632  0.37308269  1
  O2-  O105  1  0.62172260  0.50238809  0.60019945  1
  O2-  O106  1  0.65447077  0.50837295  0.85741881  1
  O2-  O107  1  0.85736911  0.01370375  0.13011452  1
  O2-  O108  1  0.87482026  0.03355672  0.37075891  1
  O2-  O109  1  0.87919444  0.00837076  0.62384013  1
  O2-  O110  1  0.86917250  0.00685598  0.85699442  1
  O2-  O111  1  0.82963142  0.47807320  0.12350365  1
  O2-  O112  1  0.86458716  0.47563271  0.36415118  1
  O2-  O113  1  0.89911337  0.51538546  0.62515127  1
  O2-  O114  1  0.86412346  0.51548263  0.87638131  1
  O2-  O115  1  0.12749637  0.25512120  0.15457993  1
  O2-  O116  1  0.15950638  0.25210978  0.37822396  1
  O2-  O117  1  0.13903113  0.25824944  0.62295396  1
  O2-  O118  1  0.09239019  0.26379755  0.88733570  1
  O2-  O119  1  0.16763531  0.77035123  0.13224322  1
  O2-  O120  1  0.08702982  0.76211930  0.37498655  1
  O2-  O121  1  0.08419619  0.75186438  0.63079040  1
  O2-  O122  1  0.15911489  0.76244963  0.87965224  1
  O2-  O123  1  0.31125677  0.28758730  0.11156747  1
  O2-  O124  1  0.34735828  0.25153494  0.37074097  1
  O2-  O125  1  0.36055253  0.23719592  0.65359634  1
  O2-  O126  1  0.39915795  0.24257656  0.88228257  1
  O2-  O127  1  0.38034929  0.74905901  0.13660233  1
  O2-  O128  1  0.39966384  0.73146487  0.37392310  1
  O2-  O129  1  0.44119337  0.67386892  0.60947187  1
  O2-  O130  1  0.39051970  0.74371387  0.85115361  1
  O2-  O131  1  0.56200508  0.27156775  0.13286304  1
  O2-  O132  1  0.67627482  0.26766422  0.36034423  1
  O2-  O133  1  0.54012970  0.26301255  0.60434707  1
  O2-  O134  1  0.58520936  0.23818539  0.86784859  1
  O2-  O135  1  0.57389050  0.75076396  0.11417617  1
  O2-  O136  1  0.59703866  0.74326749  0.36404294  1
  O2-  O137  1  0.60914876  0.74641086  0.61202735  1
  O2-  O138  1  0.60669231  0.75306189  0.83732406  1
  O2-  O139  1  0.95859665  0.25177423  0.11364906  1
  O2-  O140  1  0.84857557  0.26941588  0.37771231  1
  O2-  O141  1  0.95098178  0.26785836  0.61438630  1
  O2-  O142  1  0.91124983  0.26128112  0.86403657  1
  O2-  O143  1  0.79530972  0.81198051  0.14125890  1
  O2-  O144  1  0.91026583  0.75730387  0.37162312  1
  O2-  O145  1  0.88563325  0.75272047  0.62385916  1
  O2-  O146  1  0.82683214  0.75744475  0.87714073  1
  O2-  O147  1  0.10211894  0.14061873  0.01396452  1
  O2-  O148  1  0.16902800  0.12152536  0.26294898  1
  O2-  O149  1  0.14945424  0.12210683  0.49746132  1
  O2-  O150  1  0.10207318  0.13957380  0.75348807  1
  O2-  O151  1  0.15428428  0.63762200  0.02122611  1
  O2-  O152  1  0.08792164  0.64431830  0.24667098  1
  O2-  O153  1  0.13017717  0.64872167  0.50468750  1
  O2-  O154  1  0.09609663  0.63044006  0.75101775  1
  O2-  O155  1  0.40340364  0.10658920  -0.00683047  1
  O2-  O156  1  0.35816449  0.12370623  0.22600946  1
  O2-  O157  1  0.35809556  0.13266863  0.50749022  1
  O2-  O158  1  0.41812915  0.11129892  0.76036445  1
  O2-  O159  1  0.34596875  0.64488783  0.00311407  1
  O2-  O160  1  0.40615500  0.60468403  0.24856968  1
  O2-  O161  1  0.33935850  0.60936493  0.49130748  1
  O2-  O162  1  0.37962405  0.59303986  0.74985339  1
  O2-  O163  1  0.61279588  0.11511862  -0.00748702  1
  O2-  O164  1  0.66703392  0.12802852  0.21382696  1
  O2-  O165  1  0.63630671  0.15620284  0.49527207  1
  O2-  O166  1  0.60795791  0.13422705  0.73586848  1
  O2-  O167  1  0.66398976  0.65377997  -0.02840644  1
  O2-  O168  1  0.58988197  0.61188813  0.24819830  1
  O2-  O169  1  0.59016654  0.62098863  0.48123904  1
  O2-  O170  1  0.58024824  0.62315187  0.73309909  1
  O2-  O171  1  0.90059205  0.12927066  -0.01013558  1
  O2-  O172  1  0.85241950  0.16362341  0.23838996  1
  O2-  O173  1  0.86835554  0.15050140  0.50022888  1
  O2-  O174  1  0.91463618  0.14478816  0.74107538  1
  O2-  O175  1  0.85791040  0.64018577  0.01503070  1
  O2-  O176  1  0.90237679  0.63130791  0.21619480  1
  O2-  O177  1  0.91185153  0.63662968  0.50421696  1
  O2-  O178  1  0.89945980  0.64477924  0.75156585  1
  O2-  O179  1  0.12401994  0.37642663  0.02738495  1
  O2-  O180  1  0.18079074  0.37724353  0.26727285  1
  O2-  O181  1  0.17751003  0.37786563  0.49561099  1
  O2-  O182  1  0.13776114  0.38168900  0.76135170  1
  O2-  O183  1  0.16138897  0.88963699  0.00296349  1
  O2-  O184  1  0.10404021  0.87592226  0.25267109  1
  O2-  O185  1  0.13031254  0.86587095  0.51001022  1
  O2-  O186  1  0.10423453  0.87374563  0.75161927  1
  O2-  O187  1  0.42207329  0.36464139  0.00532103  1
  O2-  O188  1  0.36890009  0.35862895  0.24828253  1
  O2-  O189  1  0.35403411  0.34949127  0.50668568  1
  O2-  O190  1  0.38782188  0.37555022  0.76480979  1
  O2-  O191  1  0.35945435  0.85961828  -0.01024861  1
  O2-  O192  1  0.39248622  0.87222190  0.25195698  1
  O2-  O193  1  0.37858795  0.83831306  0.51575785  1
  O2-  O194  1  0.39149480  0.86641960  0.73034194  1
  O2-  O195  1  0.61341493  0.35354232  -0.00154180  1
  O2-  O196  1  0.65945739  0.38180341  0.23052671  1
  O2-  O197  1  0.64893871  0.35420655  0.50874597  1
  O2-  O198  1  0.57588553  0.37868964  0.72187687  1
  O2-  O199  1  0.63396748  0.86203476  -0.01937093  1
  O2-  O200  1  0.57600361  0.86882850  0.24430409  1
  O2-  O201  1  0.58814196  0.86714258  0.48692413  1
  O2-  O202  1  0.57412410  0.87419964  0.72258835  1
  O2-  O203  1  0.90324466  0.37944812  -0.00877158  1
  O2-  O204  1  0.86051831  0.34711877  0.22604083  1
  O2-  O205  1  0.82330360  0.37099108  0.54139615  1
  O2-  O206  1  0.91627865  0.38631452  0.74855519  1
  O2-  O207  1  0.84351158  0.88546321  -0.00697845  1
  O2-  O208  1  0.91825084  0.88731526  0.24409435  1
  O2-  O209  1  0.92062959  0.87580207  0.51553128  1
  O2-  O210  1  0.90724915  0.86694047  0.74301228  1
  O2-  O211  1  -0.00211617  -0.14719175  0.09453571  1
  O2-  O212  1  0.00662688  0.12212495  0.27086064  1
  O2-  O213  1  0.00722515  0.18917474  0.41421414  1
  O2-  O214  1  -0.00444380  -0.13696111  0.89546466  1
  O2-  O215  1  -0.00342465  0.48578300  0.11239217  1
  O2-  O216  1  0.01979106  0.38755303  0.26889458  1
  O2-  O217  1  0.00472471  0.36972205  0.43337601  1
  O2-  O218  1  -0.00667408  0.67177521  0.89643374  1
  O2-  O219  1  0.24073734  0.15146263  -0.10788571  1
  O2-  O220  1  0.25005113  -0.16083878  0.38175599  1
  O2-  O221  1  0.25013751  -0.18301197  0.63395463  1
  O2-  O222  1  0.24668317  -0.02403255  0.64664534  1
  O2-  O223  1  0.24797484  0.34539284  -0.09134192  1
  O2-  O224  1  0.25407580  0.66255246  0.25159341  1
  O2-  O225  1  0.25171043  0.64057699  0.63578448  1
  O2-  O226  1  0.27657066  0.47751894  0.63350854  1
  O2-  O227  1  0.49227207  -0.02526792  0.07104237  1
  O2-  O228  1  0.50680961  0.10863781  0.15550818  1
  O2-  O229  1  0.50513617  0.15541843  0.35370739  1
  O2-  O230  1  0.49212133  -0.09364957  0.87945930  1
  O2-  O231  1  0.49298051  0.43895072  0.14690286  1
  O2-  O232  1  0.51034426  0.34435084  0.32184641  1
  O2-  O233  1  0.50743603  0.40540764  0.46467479  1
  O2-  O234  1  0.49759870  0.60469794  0.89992366  1
  O2-  O235  1  0.75666839  0.15136141  -0.14095799  1
  O2-  O236  1  0.74460899  -0.13736179  0.35515022  1
  O2-  O237  1  0.75205664  -0.13988282  0.54510835  1
  O2-  O238  1  0.74235508  -0.10448912  0.69849861  1
  O2-  O239  1  0.75573145  0.35905263  -0.13397060  1
  O2-  O240  1  0.75363478  0.64280021  0.35294382  1
  O2-  O241  1  0.74958970  0.64756430  0.54376167  1
  O2-  O242  1  0.74551314  0.60969637  0.69719379  1
