# generated using pymatgen
data_Gd19Ta56(WO20)8
_symmetry_space_group_name_H-M   'P 1'
_cell_length_a   15.58604417
_cell_length_b   15.54985163
_cell_length_c   15.20429197
_cell_angle_alpha   89.94214664
_cell_angle_beta   89.88959703
_cell_angle_gamma   89.97155250
_symmetry_Int_Tables_number   1
_chemical_formula_structural   Gd19Ta56(WO20)8
_chemical_formula_sum   'Gd19 Ta56 W8 O160'
_cell_volume   3684.91328562
_cell_formula_units_Z   1
loop_
 _symmetry_equiv_pos_site_id
 _symmetry_equiv_pos_as_xyz
  1  'x, y, z'
loop_
 _atom_type_symbol
 _atom_type_oxidation_number
  Gd3+  3.0
  Ta5+  5.0
  W6+  6.0
  O2-  -2.0
loop_
 _atom_site_type_symbol
 _atom_site_label
 _atom_site_symmetry_multiplicity
 _atom_site_fract_x
 _atom_site_fract_y
 _atom_site_fract_z
 _atom_site_occupancy
  Gd3+  Gd0  1  -0.02474498  0.25612220  0.00847774  1
  Gd3+  Gd1  1  0.49275551  0.75643872  0.73217157  1
  Gd3+  Gd2  1  0.23374092  0.24768942  -0.01166503  1
  Gd3+  Gd3  1  0.27147049  0.24753148  0.23843983  1
  Gd3+  Gd4  1  0.76371386  0.25119468  0.50314699  1
  Gd3+  Gd5  1  0.01505572  0.26691753  0.24773932  1
  Gd3+  Gd6  1  -0.00309619  0.75154675  0.25141106  1
  Gd3+  Gd7  1  0.73666309  0.24493750  0.77547638  1
  Gd3+  Gd8  1  0.77523923  0.23651629  0.25450049  1
  Gd3+  Gd9  1  0.04846425  0.25015140  0.70857363  1
  Gd3+  Gd10  1  0.48724803  0.23905997  0.00135206  1
  Gd3+  Gd11  1  0.76414514  0.75111405  0.24610524  1
  Gd3+  Gd12  1  0.51155371  0.73697713  0.47540442  1
  Gd3+  Gd13  1  0.73647161  0.24477000  0.02108868  1
  Gd3+  Gd14  1  0.02521133  0.74491666  0.69263045  1
  Gd3+  Gd15  1  0.70694304  0.76507507  0.75428630  1
  Gd3+  Gd16  1  0.27101687  0.25587409  0.73448524  1
  Gd3+  Gd17  1  -0.01292995  0.74056262  -0.01104646  1
  Gd3+  Gd18  1  0.53407127  0.24949367  0.26248929  1
  Ta5+  Ta19  1  0.85871025  0.87876306  0.38037183  1
  Ta5+  Ta20  1  0.13569114  0.63936288  0.37426727  1
  Ta5+  Ta21  1  0.86115938  0.61515712  0.11859243  1
  Ta5+  Ta22  1  0.40001065  0.38610842  0.11905381  1
  Ta5+  Ta23  1  0.65357139  0.10589182  0.37766880  1
  Ta5+  Ta24  1  0.36297211  0.63375509  0.35187653  1
  Ta5+  Ta25  1  0.40858701  0.10899450  0.35929386  1
  Ta5+  Ta26  1  0.58528210  0.84498769  0.17216027  1
  Ta5+  Ta27  1  0.13629435  0.09685112  0.11496518  1
  Ta5+  Ta28  1  0.61348921  0.62828321  0.89322379  1
  Ta5+  Ta29  1  0.62207558  0.63974622  0.15138482  1
  Ta5+  Ta30  1  0.37158844  0.63676941  0.87363316  1
  Ta5+  Ta31  1  0.15207120  0.39257852  0.60604222  1
  Ta5+  Ta32  1  0.58586986  0.09056133  0.13424786  1
  Ta5+  Ta33  1  0.70145391  0.62583633  0.41021574  1
  Ta5+  Ta34  1  0.37196564  0.38821130  0.87061944  1
  Ta5+  Ta35  1  0.10007196  0.38889027  0.86218886  1
  Ta5+  Ta36  1  0.60284707  0.38164956  0.89461368  1
  Ta5+  Ta37  1  0.13903639  0.41187306  0.11067630  1
  Ta5+  Ta38  1  0.37820014  0.09992646  0.13827500  1
  Ta5+  Ta39  1  0.61020054  0.39604440  0.12265586  1
  Ta5+  Ta40  1  0.18635019  0.87360200  0.61505091  1
  Ta5+  Ta41  1  0.35169814  0.86917051  0.60994368  1
  Ta5+  Ta42  1  0.39518149  0.37772856  0.60898642  1
  Ta5+  Ta43  1  0.19999113  0.63278066  0.61382026  1
  Ta5+  Ta44  1  0.61285846  0.89035828  0.60085763  1
  Ta5+  Ta45  1  0.11702402  0.87147289  0.85611429  1
  Ta5+  Ta46  1  0.85106832  0.87577934  0.61670193  1
  Ta5+  Ta47  1  0.12620581  0.88614525  0.37329737  1
  Ta5+  Ta48  1  0.36455768  0.86906515  0.35281813  1
  Ta5+  Ta49  1  0.64101264  0.09836074  0.89357843  1
  Ta5+  Ta50  1  0.88467499  0.11605512  0.85203230  1
  Ta5+  Ta51  1  0.85715320  0.62125922  0.85497505  1
  Ta5+  Ta52  1  0.30043562  0.61399673  0.11171895  1
  Ta5+  Ta53  1  0.36649814  0.62667956  0.61153866  1
  Ta5+  Ta54  1  0.65425949  0.86018222  0.95728044  1
  Ta5+  Ta55  1  0.13209711  0.63411686  0.85494831  1
  Ta5+  Ta56  1  0.89142116  0.42499132  0.12136715  1
  Ta5+  Ta57  1  0.86888685  0.63155957  0.38868759  1
  Ta5+  Ta58  1  0.87177815  0.87173206  0.85063355  1
  Ta5+  Ta59  1  0.35745966  0.85045257  0.87315459  1
  Ta5+  Ta60  1  0.08562726  0.89203378  0.11452894  1
  Ta5+  Ta61  1  0.17962491  0.11308914  0.61308193  1
  Ta5+  Ta62  1  0.62524927  0.62036127  0.61618242  1
  Ta5+  Ta63  1  0.69157325  0.86823171  0.40942380  1
  Ta5+  Ta64  1  0.09210128  0.11524913  0.86357823  1
  Ta5+  Ta65  1  0.63488987  0.37868232  0.63184419  1
  Ta5+  Ta66  1  0.13152567  0.39243226  0.36612120  1
  Ta5+  Ta67  1  0.88834216  0.38077028  0.85617028  1
  Ta5+  Ta68  1  0.40158827  0.09095776  0.85512057  1
  Ta5+  Ta69  1  0.91614947  0.11755880  0.62878414  1
  Ta5+  Ta70  1  0.84773281  0.62985016  0.62138979  1
  Ta5+  Ta71  1  0.34884540  0.11065851  0.60476638  1
  Ta5+  Ta72  1  0.30373123  0.86154229  0.11617087  1
  Ta5+  Ta73  1  0.90456435  0.38623226  0.63433920  1
  Ta5+  Ta74  1  0.13174121  0.12897485  0.37224353  1
  W6+  W75  1  0.85831848  0.87610969  0.10561734  1
  W6+  W76  1  0.89728878  0.12343406  0.37947981  1
  W6+  W77  1  0.88435624  0.07774619  0.14151899  1
  W6+  W78  1  0.67172267  0.38384737  0.36871021  1
  W6+  W79  1  0.38094161  0.38389941  0.35808446  1
  W6+  W80  1  0.87627551  0.39286651  0.37957215  1
  W6+  W81  1  0.13861810  0.64845443  0.11658679  1
  W6+  W82  1  0.62792450  0.12430376  0.63036216  1
  O2-  O83  1  0.04538874  0.01492089  0.10421382  1
  O2-  O84  1  0.10482826  0.00797059  0.37652552  1
  O2-  O85  1  0.16659576  -0.00181540  0.63797172  1
  O2-  O86  1  0.10101238  -0.00438479  0.85047459  1
  O2-  O87  1  0.19605447  0.52101059  0.10872136  1
  O2-  O88  1  0.13421317  0.51441708  0.36757600  1
  O2-  O89  1  0.19382673  0.50084601  0.63096032  1
  O2-  O90  1  0.11004763  0.51041132  0.85592064  1
  O2-  O91  1  0.35937058  -0.01327754  0.11389281  1
  O2-  O92  1  0.41433336  -0.01886694  0.34947608  1
  O2-  O93  1  0.37115859  -0.00858194  0.61491199  1
  O2-  O94  1  0.38795533  -0.02418863  0.88454431  1
  O2-  O95  1  0.36633015  0.49803170  0.09907866  1
  O2-  O96  1  0.36371013  0.51615863  0.35568093  1
  O2-  O97  1  0.38330391  0.50009072  0.61699176  1
  O2-  O98  1  0.37246364  0.50605216  0.88123471  1
  O2-  O99  1  0.59248322  -0.02458725  0.15692540  1
  O2-  O100  1  0.64734890  -0.01210367  0.38292813  1
  O2-  O101  1  0.58020524  0.00321525  0.61661188  1
  O2-  O102  1  0.62926815  -0.02097954  0.91214146  1
  O2-  O103  1  0.61240929  0.51430351  0.14021638  1
  O2-  O104  1  0.69484400  0.50735798  0.38844803  1
  O2-  O105  1  0.64501812  0.49646094  0.64878879  1
  O2-  O106  1  0.59242706  0.50121116  0.88595762  1
  O2-  O107  1  0.81556487  0.00328175  0.08208299  1
  O2-  O108  1  0.89759445  -0.00766110  0.38309463  1
  O2-  O109  1  0.88846686  -0.00148015  0.62890900  1
  O2-  O110  1  0.88220912  -0.00165316  0.84269503  1
  O2-  O111  1  0.95927061  0.52854521  0.11888230  1
  O2-  O112  1  0.90748357  0.51815181  0.38557007  1
  O2-  O113  1  0.87374210  0.50378608  0.63524273  1
  O2-  O114  1  0.84555315  0.49188464  0.86553406  1
  O2-  O115  1  0.07147094  0.19999134  0.10827479  1
  O2-  O116  1  0.16470370  0.26081911  0.33995690  1
  O2-  O117  1  0.17003318  0.26060764  0.62098518  1
  O2-  O118  1  0.08628225  0.25423240  0.87581812  1
  O2-  O119  1  0.06702951  0.76833857  0.11565388  1
  O2-  O120  1  0.08730590  0.76331438  0.37746145  1
  O2-  O121  1  0.15474822  0.75101421  0.61307633  1
  O2-  O122  1  0.05924977  0.74849829  0.84698931  1
  O2-  O123  1  0.40424791  0.24388371  0.13100431  1
  O2-  O124  1  0.39923026  0.24147642  0.33170914  1
  O2-  O125  1  0.36316342  0.24796955  0.61938328  1
  O2-  O126  1  0.26396566  0.32605719  0.86523376  1
  O2-  O127  1  0.25327994  0.74717267  0.11917474  1
  O2-  O128  1  0.42438769  0.75655322  0.35286169  1
  O2-  O129  1  0.42157981  0.75264500  0.60329866  1
  O2-  O130  1  0.43506423  0.75065118  0.87693033  1
  O2-  O131  1  0.59356750  0.25148521  0.10829126  1
  O2-  O132  1  0.66047393  0.24857904  0.35925267  1
  O2-  O133  1  0.68859273  0.25748829  0.63994115  1
  O2-  O134  1  0.63812693  0.24596746  0.90632268  1
  O2-  O135  1  0.53939080  0.72982853  0.17243272  1
  O2-  O136  1  0.66160285  0.74751252  0.42811938  1
  O2-  O137  1  0.61416386  0.74825953  0.60976765  1
  O2-  O138  1  0.62300649  0.76216327  0.88611241  1
  O2-  O139  1  0.85871431  0.19923568  0.08375444  1
  O2-  O140  1  0.84934366  0.25850180  0.37926379  1
  O2-  O141  1  0.92092631  0.25567962  0.64072477  1
  O2-  O142  1  0.87105471  0.25503627  0.87780865  1
  O2-  O143  1  0.89821829  0.73907206  0.11779613  1
  O2-  O144  1  0.90102408  0.75538889  0.36671298  1
  O2-  O145  1  0.81164888  0.75396480  0.64311712  1
  O2-  O146  1  0.86738645  0.74531585  0.86015386  1
  O2-  O147  1  0.15444256  0.11759495  -0.02551816  1
  O2-  O148  1  0.14468080  0.11489542  0.23928285  1
  O2-  O149  1  0.18008551  0.13391484  0.48383527  1
  O2-  O150  1  0.16246208  0.14722854  0.75887513  1
  O2-  O151  1  0.10782968  0.64922150  -0.02181107  1
  O2-  O152  1  0.09661879  0.64491778  0.25069212  1
  O2-  O153  1  0.15972213  0.62734773  0.49741472  1
  O2-  O154  1  0.12045203  0.63536444  0.72780470  1
  O2-  O155  1  0.34701696  0.16485410  -0.06710077  1
  O2-  O156  1  0.32368518  0.10738798  0.26035914  1
  O2-  O157  1  0.36551838  0.11499057  0.47178348  1
  O2-  O158  1  0.36046407  0.12209817  0.74516455  1
  O2-  O159  1  0.35061585  0.64521953  0.00282859  1
  O2-  O160  1  0.35507101  0.63733828  0.21799855  1
  O2-  O161  1  0.38054306  0.64232216  0.47977801  1
  O2-  O162  1  0.39256823  0.63895968  0.74606425  1
  O2-  O163  1  0.65270682  0.11403363  0.02826825  1
  O2-  O164  1  0.64419894  0.13829391  0.23450932  1
  O2-  O165  1  0.66822756  0.13502506  0.49718285  1
  O2-  O166  1  0.64711073  0.12163509  0.77183535  1
  O2-  O167  1  0.59815608  0.63677134  0.01422264  1
  O2-  O168  1  0.66092825  0.64354564  0.27496161  1
  O2-  O169  1  0.58106353  0.60752332  0.50036482  1
  O2-  O170  1  0.59731050  0.64765682  0.75436739  1
  O2-  O171  1  0.76650286  0.12832129  -0.09616847  1
  O2-  O172  1  0.91603676  0.16115800  0.24140530  1
  O2-  O173  1  0.86328375  0.13857558  0.52049386  1
  O2-  O174  1  0.83429539  0.14026133  0.73249695  1
  O2-  O175  1  0.88406417  0.62280094  -0.01498619  1
  O2-  O176  1  0.86581445  0.63345929  0.24817640  1
  O2-  O177  1  0.90440187  0.65519413  0.51797929  1
  O2-  O178  1  0.91645999  0.63382548  0.74067776  1
  O2-  O179  1  0.01921441  0.36599026  0.11180928  1
  O2-  O180  1  0.13249952  0.39728015  0.23545229  1
  O2-  O181  1  0.17577386  0.38190679  0.48469656  1
  O2-  O182  1  0.14933816  0.36529440  0.74493328  1
  O2-  O183  1  0.09343066  0.87153719  -0.01587602  1
  O2-  O184  1  0.07607443  0.88298308  0.24429791  1
  O2-  O185  1  0.15809803  0.88273464  0.49274546  1
  O2-  O186  1  0.11151865  0.86023706  0.73046634  1
  O2-  O187  1  0.36119524  0.34243861  -0.00237850  1
  O2-  O188  1  0.33563452  0.37760721  0.22714553  1
  O2-  O189  1  0.37973888  0.37159333  0.48979100  1
  O2-  O190  1  0.36817162  0.37251667  0.74496542  1
  O2-  O191  1  0.35509404  0.84678031  0.00573931  1
  O2-  O192  1  0.36970810  0.84895393  0.21745223  1
  O2-  O193  1  0.35673583  0.86276357  0.47700743  1
  O2-  O194  1  0.37522104  0.85399378  0.74590679  1
  O2-  O195  1  0.67402302  0.38177835  0.00474513  1
  O2-  O196  1  0.68053933  0.35770231  0.22039460  1
  O2-  O197  1  0.66603114  0.37026197  0.51233309  1
  O2-  O198  1  0.64259807  0.36468156  0.77580592  1
  O2-  O199  1  0.56415089  0.85131345  0.03804548  1
  O2-  O200  1  0.64704752  0.84443510  0.27916785  1
  O2-  O201  1  0.56173519  0.87297023  0.48651765  1
  O2-  O202  1  0.59869665  0.86131186  0.72723500  1
  O2-  O203  1  0.85767579  0.36347854  0.01571610  1
  O2-  O204  1  0.88781742  0.35922727  0.23011252  1
  O2-  O205  1  0.85763911  0.36944665  0.52169342  1
  O2-  O206  1  0.82588002  0.36187508  0.73934241  1
  O2-  O207  1  0.91286012  0.87033109  -0.03155878  1
  O2-  O208  1  0.85476604  0.86918320  0.24608558  1
  O2-  O209  1  0.89670399  0.85433575  0.50774625  1
  O2-  O210  1  0.92242538  0.85538567  0.73104241  1
  O2-  O211  1  -0.02025468  0.12346250  -0.06122247  1
  O2-  O212  1  0.02328863  0.17735093  0.38268194  1
  O2-  O213  1  0.03678096  0.12710667  0.60993604  1
  O2-  O214  1  -0.00997424  0.13050119  0.77475001  1
  O2-  O215  1  -0.00812190  0.38952302  -0.06953712  1
  O2-  O216  1  0.01528535  0.36218411  0.36636145  1
  O2-  O217  1  0.02836544  0.39413537  0.60563215  1
  O2-  O218  1  -0.01644740  0.37950145  0.77015425  1
  O2-  O219  1  0.26103691  0.14419896  0.10575907  1
  O2-  O220  1  0.20135123  -0.06010307  0.12145789  1
  O2-  O221  1  0.24356431  -0.11974422  0.33211577  1
  O2-  O222  1  0.23737106  -0.14410226  0.86553893  1
  O2-  O223  1  0.15151332  0.38502558  -0.02024325  1
  O2-  O224  1  0.21797212  0.31837789  0.11549425  1
  O2-  O225  1  0.24911312  0.67759861  0.35279333  1
  O2-  O226  1  0.25065410  0.64306988  0.85658440  1
  O2-  O227  1  0.48060730  0.10165336  0.05538769  1
  O2-  O228  1  0.48090511  0.11136655  0.21848733  1
  O2-  O229  1  0.52786777  0.13303928  0.37748475  1
  O2-  O230  1  0.51488216  0.12579232  0.88447271  1
  O2-  O231  1  0.51281996  0.38796445  0.03244218  1
  O2-  O232  1  0.50346262  0.38243544  0.19756988  1
  O2-  O233  1  0.51677607  0.36050865  0.62933255  1
  O2-  O234  1  0.48724260  0.33556134  0.87208005  1
  O2-  O235  1  0.74480171  -0.15951174  0.03030153  1
  O2-  O236  1  0.76969521  0.11066829  0.33668005  1
  O2-  O237  1  0.72990787  -0.11009845  0.55274652  1
  O2-  O238  1  0.74981936  -0.12692388  0.84794916  1
  O2-  O239  1  0.74025045  0.66414111  0.11866551  1
  O2-  O240  1  0.79716095  0.49878531  0.12565387  1
  O2-  O241  1  0.73668408  0.61940673  0.55152573  1
  O2-  O242  1  0.73429253  0.62792188  0.86728198  1
