# generated using pymatgen
data_Gd19Ta56(WO20)8
_symmetry_space_group_name_H-M   'P 1'
_cell_length_a   15.49015439
_cell_length_b   15.45692200
_cell_length_c   15.35824636
_cell_angle_alpha   89.91983849
_cell_angle_beta   89.82742896
_cell_angle_gamma   90.12327742
_symmetry_Int_Tables_number   1
_chemical_formula_structural   Gd19Ta56(WO20)8
_chemical_formula_sum   'Gd19 Ta56 W8 O160'
_cell_volume   3677.19776292
_cell_formula_units_Z   1
loop_
 _symmetry_equiv_pos_site_id
 _symmetry_equiv_pos_as_xyz
  1  'x, y, z'
loop_
 _atom_type_symbol
 _atom_type_oxidation_number
  Gd3+  3.0
  Ta5+  5.0
  W6+  6.0
  O2-  -2.0
loop_
 _atom_site_type_symbol
 _atom_site_label
 _atom_site_symmetry_multiplicity
 _atom_site_fract_x
 _atom_site_fract_y
 _atom_site_fract_z
 _atom_site_occupancy
  Gd3+  Gd0  1  0.01870966  0.25488837  0.24408023  1
  Gd3+  Gd1  1  0.01912660  0.24960346  0.00165718  1
  Gd3+  Gd2  1  0.49220078  0.23660496  0.77820667  1
  Gd3+  Gd3  1  -0.00732454  0.76193155  0.52697606  1
  Gd3+  Gd4  1  0.27208778  0.24835785  0.50321024  1
  Gd3+  Gd5  1  0.45109264  0.72315393  0.02969752  1
  Gd3+  Gd6  1  0.73574042  0.25666783  0.23950792  1
  Gd3+  Gd7  1  0.75705722  0.25523418  0.00349345  1
  Gd3+  Gd8  1  0.00863802  0.25522710  0.74654505  1
  Gd3+  Gd9  1  0.50069575  0.72228420  0.76627477  1
  Gd3+  Gd10  1  0.49624465  0.24583707  0.23927255  1
  Gd3+  Gd11  1  -0.01936683  0.24113735  0.49277296  1
  Gd3+  Gd12  1  0.49483808  0.75527890  0.25733975  1
  Gd3+  Gd13  1  0.72949623  0.75089685  0.25442938  1
  Gd3+  Gd14  1  0.24216245  0.76098477  0.74342189  1
  Gd3+  Gd15  1  0.76927481  0.75587803  0.50554552  1
  Gd3+  Gd16  1  0.01631361  0.74828506  -0.01580064  1
  Gd3+  Gd17  1  0.78032239  0.75902121  0.73164219  1
  Gd3+  Gd18  1  0.48221123  0.73050632  0.49538165  1
  Ta5+  Ta19  1  0.67045168  0.62263152  0.86765157  1
  Ta5+  Ta20  1  0.87927844  0.62832816  0.36063085  1
  Ta5+  Ta21  1  0.65706256  0.62077116  0.07224915  1
  Ta5+  Ta22  1  0.89077049  0.38752668  0.14227783  1
  Ta5+  Ta23  1  0.11682115  0.89104661  0.61893673  1
  Ta5+  Ta24  1  0.14337529  0.39365671  0.11502267  1
  Ta5+  Ta25  1  0.65224167  0.87364149  0.88333286  1
  Ta5+  Ta26  1  0.57471386  0.37807098  0.62930839  1
  Ta5+  Ta27  1  0.64661139  0.13212189  0.38151252  1
  Ta5+  Ta28  1  0.87603277  0.59709660  0.62487406  1
  Ta5+  Ta29  1  0.36769195  0.11073495  0.12881833  1
  Ta5+  Ta30  1  0.88214860  0.38373961  0.87568334  1
  Ta5+  Ta31  1  0.84062586  0.88410838  0.11275794  1
  Ta5+  Ta32  1  0.12671915  0.12702484  0.61968579  1
  Ta5+  Ta33  1  0.60115535  0.87848466  0.11160200  1
  Ta5+  Ta34  1  0.39383168  0.12165718  0.38012331  1
  Ta5+  Ta35  1  0.81644134  0.13051259  0.37690958  1
  Ta5+  Ta36  1  0.62511861  0.88796231  0.64253337  1
  Ta5+  Ta37  1  0.14822585  0.12571442  0.36323396  1
  Ta5+  Ta38  1  0.37558036  0.58051995  0.89490754  1
  Ta5+  Ta39  1  0.60628065  0.12142302  0.11371553  1
  Ta5+  Ta40  1  0.63900535  0.12030366  0.88370997  1
  Ta5+  Ta41  1  0.17337871  0.36741926  0.86795977  1
  Ta5+  Ta42  1  0.39713672  0.37504782  0.37852165  1
  Ta5+  Ta43  1  0.83774755  0.62177496  0.88347183  1
  Ta5+  Ta44  1  0.86251140  0.89074556  0.35892031  1
  Ta5+  Ta45  1  0.60885797  0.37918591  0.38137083  1
  Ta5+  Ta46  1  0.89020791  0.39820134  0.61829132  1
  Ta5+  Ta47  1  0.64042014  0.37639572  0.87189547  1
  Ta5+  Ta48  1  0.33552649  0.88101221  0.39459422  1
  Ta5+  Ta49  1  0.31045159  0.91839281  0.92877536  1
  Ta5+  Ta50  1  0.61956019  0.89783444  0.43277055  1
  Ta5+  Ta51  1  0.63475142  0.57426282  0.37257724  1
  Ta5+  Ta52  1  0.14812053  0.37824238  0.62267458  1
  Ta5+  Ta53  1  0.33342016  0.61030436  0.39380134  1
  Ta5+  Ta54  1  0.32394092  0.12114980  0.88587597  1
  Ta5+  Ta55  1  0.34078889  0.36017527  0.87550413  1
  Ta5+  Ta56  1  0.15058235  0.38299901  0.36640084  1
  Ta5+  Ta57  1  0.88838387  0.87588181  0.87682959  1
  Ta5+  Ta58  1  0.12243745  0.93188429  0.86510784  1
  Ta5+  Ta59  1  0.14778169  0.63329517  0.11718179  1
  Ta5+  Ta60  1  0.35952932  0.36107583  0.12503019  1
  Ta5+  Ta61  1  0.13387385  0.58975419  0.86596987  1
  Ta5+  Ta62  1  0.63685487  0.13630120  0.63068524  1
  Ta5+  Ta63  1  0.14432291  0.12666221  0.11059965  1
  Ta5+  Ta64  1  0.88318937  0.12290104  0.87557676  1
  Ta5+  Ta65  1  0.37369087  0.61161405  0.64173146  1
  Ta5+  Ta66  1  0.88369465  0.12098293  0.13815106  1
  Ta5+  Ta67  1  0.40475634  0.37052118  0.63080056  1
  Ta5+  Ta68  1  0.12836562  0.62387957  0.61945384  1
  Ta5+  Ta69  1  0.60519775  0.38917889  0.11398729  1
  Ta5+  Ta70  1  0.37263400  0.11661801  0.63861690  1
  Ta5+  Ta71  1  0.15736316  0.13116379  0.87001151  1
  Ta5+  Ta72  1  0.09820302  0.87815701  0.35598068  1
  Ta5+  Ta73  1  0.17823106  0.87809986  0.11755444  1
  Ta5+  Ta74  1  0.87133332  0.62992726  0.12991556  1
  W6+  W75  1  0.33760628  0.85715102  0.14606545  1
  W6+  W76  1  0.30178175  0.59612716  0.14872435  1
  W6+  W77  1  0.63547069  0.62038971  0.61352913  1
  W6+  W78  1  0.41340707  0.88004730  0.62872297  1
  W6+  W79  1  0.85401623  0.37986341  0.35698697  1
  W6+  W80  1  0.13301039  0.63914759  0.35845741  1
  W6+  W81  1  0.95150639  0.97831808  0.54194152  1
  W6+  W82  1  0.85753959  0.13805685  0.62681395  1
  O2-  O83  1  0.15741690  0.00243446  0.11904644  1
  O2-  O84  1  0.13005064  0.00744403  0.36014694  1
  O2-  O85  1  0.15987587  0.00681759  0.62047228  1
  O2-  O86  1  0.05998233  0.03029236  0.84952120  1
  O2-  O87  1  0.10639472  0.51161166  0.12120691  1
  O2-  O88  1  0.14550985  0.49990855  0.35606178  1
  O2-  O89  1  0.13460139  0.50042351  0.63843571  1
  O2-  O90  1  0.10045957  0.48035530  0.84022239  1
  O2-  O91  1  0.34944659  -0.00594360  0.13503216  1
  O2-  O92  1  0.36336779  -0.00288477  0.39272140  1
  O2-  O93  1  0.42533152  0.01179703  0.61216722  1
  O2-  O94  1  0.39236275  0.00535111  0.91726365  1
  O2-  O95  1  0.26485556  0.44126473  0.14706899  1
  O2-  O96  1  0.35984807  0.49466925  0.39541038  1
  O2-  O97  1  0.37663839  0.49606392  0.61110204  1
  O2-  O98  1  0.41683227  0.46902454  0.90180072  1
  O2-  O99  1  0.57966571  -0.00108212  0.11493162  1
  O2-  O100  1  0.61090913  0.00287541  0.37685915  1
  O2-  O101  1  0.62025149  0.00832706  0.64286144  1
  O2-  O102  1  0.62635324  -0.00464736  0.88233174  1
  O2-  O103  1  0.60922284  0.51319349  0.12010807  1
  O2-  O104  1  0.70436145  0.46767759  0.37588739  1
  O2-  O105  1  0.59677040  0.49582504  0.62833507  1
  O2-  O106  1  0.64817775  0.49811200  0.87068256  1
  O2-  O107  1  0.88889141  -0.00074062  0.11515495  1
  O2-  O108  1  0.82382010  0.00373055  0.38767277  1
  O2-  O109  1  0.84192315  0.01645723  0.60480774  1
  O2-  O110  1  0.88624385  0.00225791  0.89446921  1
  O2-  O111  1  0.89029649  0.50553998  0.11614268  1
  O2-  O112  1  0.87984094  0.51062785  0.36150677  1
  O2-  O113  1  0.80446106  0.47572138  0.64354106  1
  O2-  O114  1  0.88258706  0.50253316  0.89568219  1
  O2-  O115  1  0.15243932  0.25654876  0.09885657  1
  O2-  O116  1  0.08568425  0.25398460  0.37523580  1
  O2-  O117  1  0.08623875  0.26006257  0.60601547  1
  O2-  O118  1  0.12416744  0.25393943  0.89245884  1
  O2-  O119  1  0.13053604  0.76232724  0.08035694  1
  O2-  O120  1  0.06548064  0.76119038  0.38816292  1
  O2-  O121  1  0.14953095  0.76775362  0.61573652  1
  O2-  O122  1  0.01713186  0.85721008  0.87937153  1
  O2-  O123  1  0.35255484  0.24377882  0.16215184  1
  O2-  O124  1  0.42143601  0.24697062  0.36473378  1
  O2-  O125  1  0.41550161  0.23523403  0.64997583  1
  O2-  O126  1  0.36803583  0.23668124  0.87068149  1
  O2-  O127  1  0.36297792  0.71850013  0.15469373  1
  O2-  O128  1  0.43352931  0.67191260  0.36240354  1
  O2-  O129  1  0.37416706  0.75272477  0.67668239  1
  O2-  O130  1  0.42942104  0.69775293  0.88954262  1
  O2-  O131  1  0.65096725  0.25468020  0.11358909  1
  O2-  O132  1  0.60657240  0.25439955  0.35940943  1
  O2-  O133  1  0.59566043  0.24917139  0.63541861  1
  O2-  O134  1  0.61241177  0.24651447  0.90106011  1
  O2-  O135  1  0.63470821  0.73408374  0.11189898  1
  O2-  O136  1  0.53818998  0.81752336  0.38413416  1
  O2-  O137  1  0.67037516  0.75972861  0.62313718  1
  O2-  O138  1  0.62689505  0.75132984  0.85367793  1
  O2-  O139  1  0.85951296  0.25335711  0.14439838  1
  O2-  O140  1  0.87971624  0.24275294  0.33849228  1
  O2-  O141  1  0.91209508  0.26431984  0.63179212  1
  O2-  O142  1  0.93139712  0.25405644  0.87765777  1
  O2-  O143  1  0.83250028  0.75610414  0.13855798  1
  O2-  O144  1  0.86199202  0.76126316  0.34513954  1
  O2-  O145  1  0.86541686  0.73559981  0.61609353  1
  O2-  O146  1  0.87856195  0.74253896  0.87622302  1
  O2-  O147  1  0.10418208  0.11990336  -0.00943748  1
  O2-  O148  1  0.13296406  0.14726727  0.24027066  1
  O2-  O149  1  0.14714757  0.14488195  0.49012242  1
  O2-  O150  1  0.11784758  0.14697570  0.74330435  1
  O2-  O151  1  0.10814822  0.62753736  -0.01796086  1
  O2-  O152  1  0.11037385  0.66026633  0.22635989  1
  O2-  O153  1  0.13979589  0.62691415  0.49996052  1
  O2-  O154  1  0.12065227  0.66222305  0.76611637  1
  O2-  O155  1  0.32498248  0.13441444  0.01485387  1
  O2-  O156  1  0.42245506  0.11256866  0.25522374  1
  O2-  O157  1  0.37587149  0.14420947  0.50387580  1
  O2-  O158  1  0.36880544  0.10491898  0.76205143  1
  O2-  O159  1  0.36154437  0.60033107  0.01976288  1
  O2-  O160  1  0.26170048  0.62200739  0.29585149  1
  O2-  O161  1  0.35142197  0.64907704  0.51459031  1
  O2-  O162  1  0.39966819  0.59471071  0.76348781  1
  O2-  O163  1  0.68330455  0.11669908  0.01469393  1
  O2-  O164  1  0.62085754  0.13469486  0.23754546  1
  O2-  O165  1  0.64276105  0.13479201  0.50515480  1
  O2-  O166  1  0.60854196  0.13522711  0.76381805  1
  O2-  O167  1  0.57752105  0.62996012  -0.02126193  1
  O2-  O168  1  0.60934553  0.65467679  0.28180776  1
  O2-  O169  1  0.76636262  0.61610336  0.56654776  1
  O2-  O170  1  0.67062653  0.63208923  0.74481209  1
  O2-  O171  1  0.88126983  0.15360063  0.00514296  1
  O2-  O172  1  0.80931887  0.11496014  0.23718133  1
  O2-  O173  1  0.85034171  0.16416321  0.49341494  1
  O2-  O174  1  0.91383364  0.13129740  0.75622976  1
  O2-  O175  1  0.91792679  0.64700640  0.01520912  1
  O2-  O176  1  0.92727731  0.63674636  0.23941318  1
  O2-  O177  1  0.91575417  0.64522866  0.47775240  1
  O2-  O178  1  0.86051336  0.61652998  0.74690973  1
  O2-  O179  1  0.15831114  0.39750082  -0.00742019  1
  O2-  O180  1  0.13098127  0.35619135  0.24311167  1
  O2-  O181  1  0.13025914  0.37768644  0.49286231  1
  O2-  O182  1  0.13317205  0.34522158  0.74315091  1
  O2-  O183  1  0.18275527  0.89505188  -0.02512710  1
  O2-  O184  1  0.13671688  0.86496626  0.23792095  1
  O2-  O185  1  0.07655111  0.89965613  0.49402144  1
  O2-  O186  1  0.14518959  0.88134627  0.75085452  1
  O2-  O187  1  0.33613599  0.34777423  0.00748594  1
  O2-  O188  1  0.41117780  0.37981723  0.25176404  1
  O2-  O189  1  0.38995342  0.34359869  0.50188668  1
  O2-  O190  1  0.38673646  0.36707605  0.75651633  1
  O2-  O191  1  0.35807084  0.83553028  0.00683929  1
  O2-  O192  1  0.37418738  0.84211788  0.28668195  1
  O2-  O193  1  0.37133894  0.83561543  0.50203432  1
  O2-  O194  1  0.31513690  0.85009063  0.83045230  1
  O2-  O195  1  0.66886773  0.38164470  0.00569896  1
  O2-  O196  1  0.61081006  0.36523988  0.23784021  1
  O2-  O197  1  0.59090945  0.36818465  0.49892865  1
  O2-  O198  1  0.57893869  0.36309437  0.76563463  1
  O2-  O199  1  0.58011091  0.85226209  -0.01504217  1
  O2-  O200  1  0.62327180  0.84999439  0.23043868  1
  O2-  O201  1  0.69981957  0.89493656  0.53360594  1
  O2-  O202  1  0.68461364  0.87743686  0.75444570  1
  O2-  O203  1  0.87073283  0.35661458  0.00768198  1
  O2-  O204  1  0.79162286  0.38973847  0.22129999  1
  O2-  O205  1  0.89721865  0.36512407  0.49322128  1
  O2-  O206  1  0.92175055  0.38383802  0.75347184  1
  O2-  O207  1  0.91666213  0.85289164  0.01870157  1
  O2-  O208  1  0.81931813  0.89087267  0.23865094  1
  O2-  O209  1  0.88662191  0.86016086  0.48396052  1
  O2-  O210  1  0.86418565  0.87340991  0.76130404  1
  O2-  O211  1  0.00758598  0.15190674  0.12790835  1
  O2-  O212  1  -0.02142504  -0.08764164  0.32982756  1
  O2-  O213  1  0.00282567  0.10550002  0.58555635  1
  O2-  O214  1  -0.00150943  -0.11918581  0.63796767  1
  O2-  O215  1  0.01397591  0.35431541  0.10657554  1
  O2-  O216  1  -0.04879644  0.38275938  0.25522001  1
  O2-  O217  1  -0.04104589  0.49917813  0.60001098  1
  O2-  O218  1  0.00838867  0.65093178  0.62896062  1
  O2-  O219  1  0.23157945  0.01105256  -0.14206245  1
  O2-  O220  1  0.26906700  0.15060841  0.36153243  1
  O2-  O221  1  0.21940079  -0.14192740  0.39714811  1
  O2-  O222  1  0.25143016  0.15984514  0.62530270  1
  O2-  O223  1  0.25466634  0.59194544  -0.12781651  1
  O2-  O224  1  0.26679061  0.34508271  0.37245968  1
  O2-  O225  1  0.25068456  0.63094263  0.66357366  1
  O2-  O226  1  0.26396809  0.35092738  0.61637653  1
  O2-  O227  1  0.49078937  0.15734258  0.09920154  1
  O2-  O228  1  0.48453885  -0.16293056  0.13007288  1
  O2-  O229  1  0.53894712  -0.13138161  0.54122692  1
  O2-  O230  1  0.51799071  -0.13996437  0.71231200  1
  O2-  O231  1  0.48909124  0.36322014  0.09724577  1
  O2-  O232  1  0.54259549  0.49275609  0.35739792  1
  O2-  O233  1  0.60099721  0.63635763  0.47347910  1
  O2-  O234  1  0.49874086  0.65386819  0.62703581  1
  O2-  O235  1  0.76599722  -0.13039202  -0.07993514  1
  O2-  O236  1  0.72611519  -0.09796922  0.08228144  1
  O2-  O237  1  0.71980019  -0.15844277  0.38130964  1
  O2-  O238  1  0.76405056  0.14791125  0.86757917  1
  O2-  O239  1  0.75100114  0.62590878  -0.01023985  1
  O2-  O240  1  0.75352148  0.61064308  0.16643175  1
  O2-  O241  1  0.75432441  0.64057593  0.37111073  1
  O2-  O242  1  0.76482103  0.34155579  0.86190888  1
