# generated using pymatgen
data_Gd19Ta56(WO20)8
_symmetry_space_group_name_H-M   'P 1'
_cell_length_a   15.53860272
_cell_length_b   15.40809304
_cell_length_c   15.27763452
_cell_angle_alpha   90.39875012
_cell_angle_beta   90.56186946
_cell_angle_gamma   90.21282712
_symmetry_Int_Tables_number   1
_chemical_formula_structural   Gd19Ta56(WO20)8
_chemical_formula_sum   'Gd19 Ta56 W8 O160'
_cell_volume   3657.48424298
_cell_formula_units_Z   1
loop_
 _symmetry_equiv_pos_site_id
 _symmetry_equiv_pos_as_xyz
  1  'x, y, z'
loop_
 _atom_type_symbol
 _atom_type_oxidation_number
  Gd3+  3.0
  Ta5+  5.0
  W6+  6.0
  O2-  -2.0
loop_
 _atom_site_type_symbol
 _atom_site_label
 _atom_site_symmetry_multiplicity
 _atom_site_fract_x
 _atom_site_fract_y
 _atom_site_fract_z
 _atom_site_occupancy
  Gd3+  Gd0  1  0.53746709  0.76394130  0.29687367  1
  Gd3+  Gd1  1  -0.01857699  0.76526283  0.48564956  1
  Gd3+  Gd2  1  0.72792636  0.25115612  0.24317575  1
  Gd3+  Gd3  1  0.23339727  0.25635784  0.74803743  1
  Gd3+  Gd4  1  -0.02622015  0.24780415  0.51258796  1
  Gd3+  Gd5  1  0.50201796  0.26666799  0.50623010  1
  Gd3+  Gd6  1  0.22709828  0.22819341  0.24769301  1
  Gd3+  Gd7  1  0.28180103  0.69423106  0.49550029  1
  Gd3+  Gd8  1  -0.03982161  0.75865529  0.74983609  1
  Gd3+  Gd9  1  0.49018725  0.24788860  0.75540272  1
  Gd3+  Gd10  1  0.74188273  0.24853175  0.49495822  1
  Gd3+  Gd11  1  0.25058879  0.25686028  0.02338940  1
  Gd3+  Gd12  1  0.26969600  0.73515867  0.24683820  1
  Gd3+  Gd13  1  -0.02360285  0.25142814  0.74973478  1
  Gd3+  Gd14  1  0.49220254  0.24527433  0.02722755  1
  Gd3+  Gd15  1  0.01758139  0.27608257  0.01165834  1
  Gd3+  Gd16  1  0.29271956  0.72485409  -0.00441600  1
  Gd3+  Gd17  1  0.22381823  0.23795363  0.50480701  1
  Gd3+  Gd18  1  0.76107167  0.78135509  0.22894419  1
  Ta5+  Ta19  1  0.13409658  0.85316797  0.87120066  1
  Ta5+  Ta20  1  0.39597753  0.59388575  0.35490663  1
  Ta5+  Ta21  1  0.83268942  0.88400989  0.60813507  1
  Ta5+  Ta22  1  0.37817936  0.44558434  0.11040345  1
  Ta5+  Ta23  1  0.60252541  0.62881496  0.86968408  1
  Ta5+  Ta24  1  0.34537444  0.39130248  0.88511680  1
  Ta5+  Ta25  1  0.08282193  0.09494451  0.37639653  1
  Ta5+  Ta26  1  0.10277331  0.38255415  0.62851223  1
  Ta5+  Ta27  1  0.82865458  0.12075882  0.64385284  1
  Ta5+  Ta28  1  0.63440524  0.09839344  0.09511561  1
  Ta5+  Ta29  1  0.61213406  0.40980380  0.37531565  1
  Ta5+  Ta30  1  0.33558650  0.10479355  0.87498826  1
  Ta5+  Ta31  1  0.14964924  0.40400158  0.87779054  1
  Ta5+  Ta32  1  0.12914642  0.09964244  0.88548858  1
  Ta5+  Ta33  1  0.60845739  0.87204572  0.86929623  1
  Ta5+  Ta34  1  0.45697164  0.63347252  0.12060899  1
  Ta5+  Ta35  1  0.69230780  0.89006427  0.39980652  1
  Ta5+  Ta36  1  0.87554713  0.64237801  0.11677904  1
  Ta5+  Ta37  1  0.43553283  0.62017747  0.86902207  1
  Ta5+  Ta38  1  0.36616140  0.38646095  0.62772660  1
  Ta5+  Ta39  1  0.67296843  0.64551121  0.39505533  1
  Ta5+  Ta40  1  0.38743112  0.86190313  0.86357302  1
  Ta5+  Ta41  1  0.40689760  0.35427628  0.28510900  1
  Ta5+  Ta42  1  0.14565032  0.86420237  0.61946721  1
  Ta5+  Ta43  1  0.85822396  0.90160328  0.36952300  1
  Ta5+  Ta44  1  0.67084620  0.09865533  0.85117239  1
  Ta5+  Ta45  1  0.90406114  0.89856305  0.11307620  1
  Ta5+  Ta46  1  0.84751457  0.63340662  0.60844839  1
  Ta5+  Ta47  1  0.15225618  0.86293679  0.37233992  1
  Ta5+  Ta48  1  0.35961011  0.10064782  0.62317356  1
  Ta5+  Ta49  1  0.40032551  0.08939125  0.16685953  1
  Ta5+  Ta50  1  0.83630466  0.38856172  0.63761979  1
  Ta5+  Ta51  1  0.87138115  0.11121449  0.37394670  1
  Ta5+  Ta52  1  0.85991250  0.38773838  0.37421379  1
  Ta5+  Ta53  1  0.11017948  0.41616107  0.19151243  1
  Ta5+  Ta54  1  0.59374962  0.43170421  0.13573961  1
  Ta5+  Ta55  1  0.37353378  0.10659039  0.37449120  1
  Ta5+  Ta56  1  0.60549943  0.63372193  0.63281160  1
  Ta5+  Ta57  1  0.13730412  0.86306002  0.11062192  1
  Ta5+  Ta58  1  0.63133952  0.38708287  0.64099284  1
  Ta5+  Ta59  1  0.08296747  0.08910656  0.12409838  1
  Ta5+  Ta60  1  0.58446495  0.10081405  0.34588525  1
  Ta5+  Ta61  1  0.83845058  0.63994785  0.37072627  1
  Ta5+  Ta62  1  0.31317403  0.85263529  0.62692643  1
  Ta5+  Ta63  1  0.43663330  0.62593281  0.61800899  1
  Ta5+  Ta64  1  0.62419335  0.65029209  0.11849364  1
  Ta5+  Ta65  1  0.61774773  0.37752957  0.88830390  1
  Ta5+  Ta66  1  0.38034178  0.86479186  0.38052536  1
  Ta5+  Ta67  1  0.12086917  0.63423592  0.11334822  1
  Ta5+  Ta68  1  0.88424981  0.13877341  0.13316212  1
  Ta5+  Ta69  1  0.87355910  0.39341014  0.13609743  1
  Ta5+  Ta70  1  0.67045412  0.87062767  0.65710966  1
  Ta5+  Ta71  1  0.85693020  0.38392136  0.88571257  1
  Ta5+  Ta72  1  0.13941677  0.60724504  0.36658360  1
  Ta5+  Ta73  1  0.09463891  0.11006854  0.63817112  1
  Ta5+  Ta74  1  0.43315723  0.85684877  0.12280399  1
  W6+  W75  1  0.86747431  0.11908325  0.89264304  1
  W6+  W76  1  0.59821059  0.87704037  0.12608778  1
  W6+  W77  1  0.83131313  0.63920025  0.87093002  1
  W6+  W78  1  0.61705917  0.11146877  0.64530387  1
  W6+  W79  1  0.81974065  0.89128812  0.86318300  1
  W6+  W80  1  0.09461572  0.62868187  0.87200637  1
  W6+  W81  1  0.09863482  0.43092017  0.40177347  1
  W6+  W82  1  0.09027877  0.63530641  0.61365000  1
  O2-  O83  1  0.14967856  -0.01328019  0.10029956  1
  O2-  O84  1  0.14240206  -0.01191341  0.38641924  1
  O2-  O85  1  0.13011181  -0.00650172  0.63312616  1
  O2-  O86  1  0.12282716  -0.01893096  0.88578217  1
  O2-  O87  1  0.14650661  0.51443137  0.12378677  1
  O2-  O88  1  0.19637974  0.52368916  0.43849555  1
  O2-  O89  1  0.10860837  0.49878519  0.61670467  1
  O2-  O90  1  0.07869527  0.49372901  0.90654472  1
  O2-  O91  1  0.38254146  -0.01719064  0.11422783  1
  O2-  O92  1  0.38573554  -0.01054439  0.40159822  1
  O2-  O93  1  0.34778395  -0.01619674  0.61558928  1
  O2-  O94  1  0.34549827  -0.01486631  0.88198414  1
  O2-  O95  1  0.33308335  0.55374410  0.13177584  1
  O2-  O96  1  0.38881181  0.46133910  0.34027698  1
  O2-  O97  1  0.38138990  0.50217783  0.61345365  1
  O2-  O98  1  0.41314266  0.49220712  0.87967046  1
  O2-  O99  1  0.68155246  -0.00906715  0.11735864  1
  O2-  O100  1  0.62201257  0.00161314  0.39975495  1
  O2-  O101  1  0.61288976  -0.02399471  0.66336285  1
  O2-  O102  1  0.69983069  -0.02117101  0.87061032  1
  O2-  O103  1  0.66607264  0.52588725  0.14683376  1
  O2-  O104  1  0.61798765  0.52777658  0.35920127  1
  O2-  O105  1  0.58866325  0.50011312  0.64066215  1
  O2-  O106  1  0.60480002  0.49393056  0.88054460  1
  O2-  O107  1  0.96144648  0.02563661  0.12447969  1
  O2-  O108  1  0.78949475  0.01421256  0.38661226  1
  O2-  O109  1  0.85759203  0.00709212  0.61472371  1
  O2-  O110  1  0.89269180  -0.00269226  0.87419652  1
  O2-  O111  1  0.86272733  0.51284600  0.12439403  1
  O2-  O112  1  0.84916521  0.50764541  0.37568176  1
  O2-  O113  1  0.86370428  0.50564465  0.61129903  1
  O2-  O114  1  0.85539292  0.50186870  0.88351784  1
  O2-  O115  1  0.17760896  0.16753162  0.12247919  1
  O2-  O116  1  0.17802702  0.17874988  0.37269797  1
  O2-  O117  1  0.10972303  0.24106439  0.65201404  1
  O2-  O118  1  0.12888551  0.28007789  0.91383413  1
  O2-  O119  1  0.19876738  0.74538407  0.11517883  1
  O2-  O120  1  0.19064994  0.73567451  0.38324439  1
  O2-  O121  1  0.05506196  0.76707734  0.61933582  1
  O2-  O122  1  0.05572662  0.76122717  0.88016989  1
  O2-  O123  1  0.35806074  0.19393878  0.11536325  1
  O2-  O124  1  0.35363463  0.24965634  0.33006162  1
  O2-  O125  1  0.47301982  0.14926513  0.60978091  1
  O2-  O126  1  0.30864199  0.26269102  0.88157711  1
  O2-  O127  1  0.38054326  0.73963561  0.14198926  1
  O2-  O128  1  0.38688955  0.73253046  0.36149131  1
  O2-  O129  1  0.36994205  0.73059161  0.61752910  1
  O2-  O130  1  0.36920279  0.73602722  0.86053578  1
  O2-  O131  1  0.67653660  0.21225225  0.10699108  1
  O2-  O132  1  0.72432391  0.36655901  0.38652164  1
  O2-  O133  1  0.62131476  0.25476977  0.60619359  1
  O2-  O134  1  0.51850474  0.29831871  0.89377168  1
  O2-  O135  1  0.67423817  0.76597381  0.11172957  1
  O2-  O136  1  0.65257258  0.77288381  0.41482888  1
  O2-  O137  1  0.61982477  0.76220210  0.63598431  1
  O2-  O138  1  0.57752007  0.75321860  0.86411706  1
  O2-  O139  1  0.84677364  0.26066471  0.13841483  1
  O2-  O140  1  0.82643558  0.23875115  0.35943770  1
  O2-  O141  1  0.83655152  0.25446126  0.63093852  1
  O2-  O142  1  0.92795996  0.26255191  0.89170054  1
  O2-  O143  1  0.87752416  0.77260084  0.13187983  1
  O2-  O144  1  0.86817537  0.76987548  0.35985001  1
  O2-  O145  1  0.87235782  0.76008327  0.59807226  1
  O2-  O146  1  0.86903646  0.76776413  0.86620756  1
  O2-  O147  1  0.06157836  0.12878295  -0.01122054  1
  O2-  O148  1  0.08821771  0.08952179  0.24901709  1
  O2-  O149  1  0.10269152  0.12955561  0.51058087  1
  O2-  O150  1  0.06735046  0.12732642  0.77660213  1
  O2-  O151  1  0.15966741  0.64171840  -0.00756536  1
  O2-  O152  1  0.13640816  0.66017002  0.23701087  1
  O2-  O153  1  0.07299707  0.64404936  0.46527242  1
  O2-  O154  1  0.05730360  0.64123470  0.74730248  1
  O2-  O155  1  0.42480050  0.14913139  -0.05634741  1
  O2-  O156  1  0.30835195  0.09714640  0.26073246  1
  O2-  O157  1  0.32952970  0.13119692  0.49205800  1
  O2-  O158  1  0.37832972  0.13456801  0.75094651  1
  O2-  O159  1  0.41937414  0.64263470  -0.00289274  1
  O2-  O160  1  0.46577732  0.61602459  0.25562855  1
  O2-  O161  1  0.40589660  0.60620739  0.48010998  1
  O2-  O162  1  0.43620208  0.61794850  0.74145521  1
  O2-  O163  1  0.61728144  0.10421140  -0.03064718  1
  O2-  O164  1  0.64068477  0.11547821  0.23855664  1
  O2-  O165  1  0.64415402  0.19883755  0.39246909  1
  O2-  O166  1  0.57146865  0.13128697  0.78447958  1
  O2-  O167  1  0.62853664  0.63344612  -0.00228551  1
  O2-  O168  1  0.65069330  0.67609553  0.25974070  1
  O2-  O169  1  0.64478000  0.62357048  0.51507572  1
  O2-  O170  1  0.64820083  0.62633547  0.75451836  1
  O2-  O171  1  0.83205082  0.11112045  0.02887475  1
  O2-  O172  1  0.99899097  0.19263087  0.13291393  1
  O2-  O173  1  0.86429875  0.14678022  0.49624596  1
  O2-  O174  1  0.88000693  0.14528158  0.75896854  1
  O2-  O175  1  0.82593542  0.64534764  0.00821313  1
  O2-  O176  1  0.83008846  0.64330877  0.23577571  1
  O2-  O177  1  0.89249070  0.63899066  0.48768227  1
  O2-  O178  1  0.85714320  0.64552593  0.73261756  1
  O2-  O179  1  0.13793551  0.33409201  0.10175150  1
  O2-  O180  1  0.15482706  0.35099660  0.28685104  1
  O2-  O181  1  0.10835083  0.33484490  0.50630283  1
  O2-  O182  1  0.10400080  0.36466000  0.76128974  1
  O2-  O183  1  0.19253289  0.84728480  -0.01152946  1
  O2-  O184  1  0.13322121  0.85738064  0.23474128  1
  O2-  O185  1  0.10903594  0.85454354  0.48874724  1
  O2-  O186  1  0.14543727  0.85504723  0.74974714  1
  O2-  O187  1  0.39108158  0.35532342  0.01047494  1
  O2-  O188  1  0.31282497  0.36362097  0.18958887  1
  O2-  O189  1  0.36026737  0.31769783  0.52149572  1
  O2-  O190  1  0.36891647  0.34318205  0.75181364  1
  O2-  O191  1  0.39248970  0.84483251  -0.00490188  1
  O2-  O192  1  0.43264287  0.86859800  0.25563454  1
  O2-  O193  1  0.33036988  0.83840350  0.49298955  1
  O2-  O194  1  0.33317464  0.86259813  0.75064467  1
  O2-  O195  1  0.60121621  0.37067481  0.02478746  1
  O2-  O196  1  0.63330795  0.37069665  0.24024315  1
  O2-  O197  1  0.58055061  0.39253857  0.49428523  1
  O2-  O198  1  0.60132394  0.34774741  0.76441501  1
  O2-  O199  1  0.60023331  0.88179370  -0.01281493  1
  O2-  O200  1  0.64291138  0.86964279  0.27138126  1
  O2-  O201  1  0.71654756  0.88783041  0.53324790  1
  O2-  O202  1  0.70392824  0.84158863  0.78361803  1
  O2-  O203  1  0.90146764  0.37435436  0.01054207  1
  O2-  O204  1  0.99124752  0.39349791  0.17080152  1
  O2-  O205  1  0.86910172  0.35156108  0.49736100  1
  O2-  O206  1  0.88691639  0.36907601  0.76399982  1
  O2-  O207  1  0.83954612  0.90639855  0.01500533  1
  O2-  O208  1  0.85588898  0.91231036  0.23006142  1
  O2-  O209  1  0.90180848  0.89167782  0.49017663  1
  O2-  O210  1  0.86442408  0.87435443  0.72955890  1
  O2-  O211  1  0.02001334  -0.14429188  0.08240762  1
  O2-  O212  1  -0.04073199  0.02177598  0.37110450  1
  O2-  O213  1  -0.01098615  0.18091611  0.37863049  1
  O2-  O214  1  -0.02484449  0.13956018  0.62449333  1
  O2-  O215  1  0.00062741  0.63865826  0.10675954  1
  O2-  O216  1  0.08784289  0.51097993  0.29006282  1
  O2-  O217  1  -0.02211541  0.37103568  0.36228849  1
  O2-  O218  1  -0.02002151  0.35682496  0.62812793  1
  O2-  O219  1  0.23830502  0.11841475  -0.03890259  1
  O2-  O220  1  0.27159865  -0.12717345  0.31781072  1
  O2-  O221  1  0.24306537  0.15315471  0.63137398  1
  O2-  O222  1  0.22511831  0.12161316  0.80259351  1
  O2-  O223  1  0.24312070  0.40375845  -0.03123677  1
  O2-  O224  1  0.27741038  0.60317117  0.31938381  1
  O2-  O225  1  0.23724061  0.35704400  0.63085569  1
  O2-  O226  1  0.24854369  0.43639709  0.81048971  1
  O2-  O227  1  0.51165574  0.11869126  0.11304385  1
  O2-  O228  1  0.46988363  0.08132258  0.27575131  1
  O2-  O229  1  0.48538040  0.14658563  0.41964736  1
  O2-  O230  1  0.49709515  -0.09008621  0.83072760  1
  O2-  O231  1  0.49299939  0.50044473  0.09014448  1
  O2-  O232  1  0.47430161  0.36120305  0.17388558  1
  O2-  O233  1  0.50951554  0.32894564  0.35350372  1
  O2-  O234  1  0.48636784  0.34777971  0.63642945  1
  O2-  O235  1  0.74872215  0.18408870  -0.11712421  1
  O2-  O236  1  0.83612751  0.11352811  0.24384875  1
  O2-  O237  1  0.72258752  0.11948866  0.56695098  1
  O2-  O238  1  0.72885080  0.09796183  0.72725969  1
  O2-  O239  1  0.73918386  0.35738036  -0.09892252  1
  O2-  O240  1  0.81920906  0.38127036  0.24798542  1
  O2-  O241  1  0.72966254  0.38303126  0.56093214  1
  O2-  O242  1  0.73841269  0.41012047  0.71304570  1
