# generated using pymatgen
data_Gd19Ta56(WO20)8
_symmetry_space_group_name_H-M   'P 1'
_cell_length_a   15.48875244
_cell_length_b   15.56749904
_cell_length_c   15.20955883
_cell_angle_alpha   90.16759747
_cell_angle_beta   89.91279388
_cell_angle_gamma   89.91687156
_symmetry_Int_Tables_number   1
_chemical_formula_structural   Gd19Ta56(WO20)8
_chemical_formula_sum   'Gd19 Ta56 W8 O160'
_cell_volume   3667.32232419
_cell_formula_units_Z   1
loop_
 _symmetry_equiv_pos_site_id
 _symmetry_equiv_pos_as_xyz
  1  'x, y, z'
loop_
 _atom_type_symbol
 _atom_type_oxidation_number
  Gd3+  3.0
  Ta5+  5.0
  W6+  6.0
  O2-  -2.0
loop_
 _atom_site_type_symbol
 _atom_site_label
 _atom_site_symmetry_multiplicity
 _atom_site_fract_x
 _atom_site_fract_y
 _atom_site_fract_z
 _atom_site_occupancy
  Gd3+  Gd0  1  0.51396839  0.25024407  0.74441091  1
  Gd3+  Gd1  1  0.72790859  0.25410676  -0.02316499  1
  Gd3+  Gd2  1  0.00437293  0.26233063  0.74245403  1
  Gd3+  Gd3  1  -0.01907684  0.74550026  -0.01303864  1
  Gd3+  Gd4  1  0.00629000  0.75282523  0.51364059  1
  Gd3+  Gd5  1  0.74671443  0.24924946  0.50429630  1
  Gd3+  Gd6  1  0.75472113  0.76099678  0.49299740  1
  Gd3+  Gd7  1  0.74562585  0.25598223  0.21928342  1
  Gd3+  Gd8  1  0.00920346  0.75446246  0.23871737  1
  Gd3+  Gd9  1  0.74215400  0.75536184  0.24701127  1
  Gd3+  Gd10  1  0.26188360  0.23752189  0.00972418  1
  Gd3+  Gd11  1  0.24606418  0.75734813  0.52060270  1
  Gd3+  Gd12  1  0.50091168  0.74275167  -0.01839158  1
  Gd3+  Gd13  1  0.24606016  0.74487115  0.77314373  1
  Gd3+  Gd14  1  0.00803674  0.23471323  0.49703715  1
  Gd3+  Gd15  1  0.27397678  0.23725794  0.24400329  1
  Gd3+  Gd16  1  0.74199849  0.75312322  0.75306643  1
  Gd3+  Gd17  1  0.26117156  0.24966572  0.49003495  1
  Gd3+  Gd18  1  0.25184612  0.28054456  0.77299180  1
  Ta5+  Ta19  1  0.13686338  0.39213707  0.59954424  1
  Ta5+  Ta20  1  0.87313565  0.61492113  0.13065965  1
  Ta5+  Ta21  1  0.14436116  0.63043765  0.37341975  1
  Ta5+  Ta22  1  0.63799895  0.61309837  0.37196346  1
  Ta5+  Ta23  1  0.61846579  0.37417875  0.36792437  1
  Ta5+  Ta24  1  0.90499693  0.38754276  0.89679974  1
  Ta5+  Ta25  1  0.12902775  0.11741533  0.37132239  1
  Ta5+  Ta26  1  0.87203274  0.62521003  0.62873504  1
  Ta5+  Ta27  1  0.12829834  0.61215074  0.89681584  1
  Ta5+  Ta28  1  0.38368253  0.87384594  0.13164378  1
  Ta5+  Ta29  1  0.62676192  0.62228695  0.61744299  1
  Ta5+  Ta30  1  0.90920943  0.13708986  0.10646832  1
  Ta5+  Ta31  1  0.34996520  0.12723931  0.63885903  1
  Ta5+  Ta32  1  0.40974686  0.37490979  0.11671214  1
  Ta5+  Ta33  1  0.58164201  0.11798458  0.89024033  1
  Ta5+  Ta34  1  0.88137529  0.12546270  0.63312773  1
  Ta5+  Ta35  1  0.38696243  0.62928986  0.62947830  1
  Ta5+  Ta36  1  0.87715617  0.89540110  0.12114805  1
  Ta5+  Ta37  1  0.13674551  0.12302484  0.63926286  1
  Ta5+  Ta38  1  0.82187183  0.89266515  0.89073801  1
  Ta5+  Ta39  1  0.41403564  0.12420131  0.89609912  1
  Ta5+  Ta40  1  0.57940627  0.38866920  0.89485152  1
  Ta5+  Ta41  1  0.64653106  0.88116764  0.10592369  1
  Ta5+  Ta42  1  0.09175841  0.37534813  0.13589740  1
  Ta5+  Ta43  1  0.61971433  0.37865118  0.63222217  1
  Ta5+  Ta44  1  0.37956805  0.88336014  0.63823377  1
  Ta5+  Ta45  1  0.38158101  0.62190155  0.13422032  1
  Ta5+  Ta46  1  0.37587799  0.39125076  0.36905661  1
  Ta5+  Ta47  1  0.08467664  0.12720972  0.90168596  1
  Ta5+  Ta48  1  0.65188718  0.61827042  0.88007343  1
  Ta5+  Ta49  1  0.13804752  0.62167070  0.11923603  1
  Ta5+  Ta50  1  0.36944776  0.61176147  0.88259224  1
  Ta5+  Ta51  1  0.65245670  0.88431140  0.88912199  1
  Ta5+  Ta52  1  0.91428736  0.12431563  0.88977581  1
  Ta5+  Ta53  1  0.87438838  0.88153609  0.63760047  1
  Ta5+  Ta54  1  0.42169480  0.12005344  0.11908602  1
  Ta5+  Ta55  1  0.88040928  0.12809120  0.35801541  1
  Ta5+  Ta56  1  0.86805667  0.38847247  0.62991256  1
  Ta5+  Ta57  1  0.31129360  0.63119684  0.37037188  1
  Ta5+  Ta58  1  0.11928202  0.87900622  0.64560232  1
  Ta5+  Ta59  1  0.59232011  0.12361219  0.10949766  1
  Ta5+  Ta60  1  0.41125061  0.37595684  0.90116990  1
  Ta5+  Ta61  1  0.87620032  0.37476039  0.36225681  1
  Ta5+  Ta62  1  0.36575744  0.88539275  0.88624423  1
  Ta5+  Ta63  1  0.10210309  0.36736082  0.91339758  1
  Ta5+  Ta64  1  0.37357935  0.38428689  0.62916009  1
  Ta5+  Ta65  1  0.82334165  0.62199140  0.88495579  1
  Ta5+  Ta66  1  0.08045387  0.13138187  0.12352738  1
  Ta5+  Ta67  1  0.38671639  0.87084329  0.38211646  1
  Ta5+  Ta68  1  0.88818557  0.61974024  0.36441136  1
  Ta5+  Ta69  1  0.62581378  0.87949799  0.36563204  1
  Ta5+  Ta70  1  0.57952508  0.37349720  0.11281821  1
  Ta5+  Ta71  1  0.12259703  0.88428830  0.89307202  1
  Ta5+  Ta72  1  0.62395804  0.88159191  0.62716712  1
  Ta5+  Ta73  1  0.13715137  0.88571543  0.12059050  1
  Ta5+  Ta74  1  0.62711342  0.12487414  0.36365721  1
  W6+  W75  1  0.91911652  0.37205958  0.11554436  1
  W6+  W76  1  0.63660231  0.11799915  0.63073755  1
  W6+  W77  1  0.63096614  0.61723840  0.12165602  1
  W6+  W78  1  0.12764113  0.86980678  0.37541651  1
  W6+  W79  1  0.38619619  0.12275161  0.38064602  1
  W6+  W80  1  0.12340309  0.61940731  0.64025462  1
  W6+  W81  1  0.11016294  0.38489939  0.38524925  1
  W6+  W82  1  0.88792757  0.88522522  0.36544261  1
  O2-  O83  1  0.10758369  0.00005691  0.13112405  1
  O2-  O84  1  0.13089524  0.00026928  0.35851082  1
  O2-  O85  1  0.12729445  0.00158164  0.64540674  1
  O2-  O86  1  0.10475862  0.00517750  0.88925800  1
  O2-  O87  1  0.11409721  0.50353554  0.13125942  1
  O2-  O88  1  0.11492975  0.51591679  0.37333567  1
  O2-  O89  1  0.08917210  0.48995702  0.64691245  1
  O2-  O90  1  0.11854870  0.48960290  0.90105225  1
  O2-  O91  1  0.41934345  -0.01136425  0.12866896  1
  O2-  O92  1  0.36935842  -0.01375119  0.38529790  1
  O2-  O93  1  0.36055969  0.00218234  0.64443644  1
  O2-  O94  1  0.39737545  0.00050967  0.87436616  1
  O2-  O95  1  0.40257483  0.50426411  0.13318481  1
  O2-  O96  1  0.33899612  0.50434129  0.37404179  1
  O2-  O97  1  0.38751294  0.50744199  0.63020928  1
  O2-  O98  1  0.38322449  0.49342065  0.86778900  1
  O2-  O99  1  0.61309150  -0.00038215  0.11782553  1
  O2-  O100  1  0.62311658  0.00066136  0.36317317  1
  O2-  O101  1  0.67148357  -0.01064222  0.63138252  1
  O2-  O102  1  0.60161995  -0.00615362  0.88900455  1
  O2-  O103  1  0.59244336  0.49094460  0.12241135  1
  O2-  O104  1  0.66266638  0.48710281  0.36788525  1
  O2-  O105  1  0.61264290  0.50191483  0.62140472  1
  O2-  O106  1  0.60232105  0.50659986  0.86857070  1
  O2-  O107  1  0.88172629  0.01190229  0.10377288  1
  O2-  O108  1  0.85806650  0.01492507  0.38297510  1
  O2-  O109  1  0.87614039  0.00592597  0.62092933  1
  O2-  O110  1  0.86925405  0.00744819  0.89208268  1
  O2-  O111  1  0.91099340  0.50577983  0.10952532  1
  O2-  O112  1  0.88956703  0.49743336  0.37735492  1
  O2-  O113  1  0.89443816  0.50475682  0.60530245  1
  O2-  O114  1  0.87373396  0.50468131  0.88980422  1
  O2-  O115  1  0.05207208  0.25512994  0.12159712  1
  O2-  O116  1  0.25079560  0.13528001  0.37678665  1
  O2-  O117  1  0.12971425  0.26300531  0.62250202  1
  O2-  O118  1  0.15201055  0.24396717  0.89961783  1
  O2-  O119  1  0.09171400  0.74844698  0.10816555  1
  O2-  O120  1  0.07167705  0.74575886  0.37813264  1
  O2-  O121  1  0.16096879  0.75370079  0.64887614  1
  O2-  O122  1  0.11294076  0.74929086  0.89448469  1
  O2-  O123  1  0.37105833  0.24669943  0.11929863  1
  O2-  O124  1  0.35242897  0.26272221  0.37212089  1
  O2-  O125  1  0.33426177  0.25862060  0.63276916  1
  O2-  O126  1  0.35885424  0.24755058  0.89428373  1
  O2-  O127  1  0.42694008  0.74930307  0.11859985  1
  O2-  O128  1  0.31272942  0.76503857  0.38335310  1
  O2-  O129  1  0.33921573  0.75440132  0.64205073  1
  O2-  O130  1  0.37966619  0.74887067  0.87782908  1
  O2-  O131  1  0.64094867  0.24969103  0.10458957  1
  O2-  O132  1  0.66652388  0.25533108  0.36716345  1
  O2-  O133  1  0.62008865  0.25124426  0.63051687  1
  O2-  O134  1  0.59460809  0.25335192  0.88491371  1
  O2-  O135  1  0.66217137  0.75282164  0.11947891  1
  O2-  O136  1  0.64932140  0.74190772  0.37579482  1
  O2-  O137  1  0.65817420  0.75595640  0.61650832  1
  O2-  O138  1  0.64321256  0.75072730  0.88442398  1
  O2-  O139  1  0.86367929  0.25164672  0.12646383  1
  O2-  O140  1  0.82776831  0.24743087  0.36214590  1
  O2-  O141  1  0.91215861  0.27144689  0.62182639  1
  O2-  O142  1  0.94089465  0.26002840  0.87696091  1
  O2-  O143  1  0.89888533  0.74917219  0.13332607  1
  O2-  O144  1  0.87930039  0.74848670  0.33375767  1
  O2-  O145  1  0.83770881  0.75579743  0.63357276  1
  O2-  O146  1  0.83784448  0.75484189  0.87802492  1
  O2-  O147  1  0.15585911  0.13115698  0.02188574  1
  O2-  O148  1  0.13664730  0.15122757  0.24192977  1
  O2-  O149  1  0.09935742  0.11726557  0.49817186  1
  O2-  O150  1  0.08496279  0.14292883  0.77152531  1
  O2-  O151  1  0.06235091  0.61995428  0.00996151  1
  O2-  O152  1  0.12909604  0.64854667  0.24142854  1
  O2-  O153  1  0.12738227  0.65492807  0.50489687  1
  O2-  O154  1  0.14757077  0.62442857  0.77417839  1
  O2-  O155  1  0.34566353  0.11069845  0.00942134  1
  O2-  O156  1  0.37938089  0.13058585  0.23885175  1
  O2-  O157  1  0.40332772  0.13969054  0.52742528  1
  O2-  O158  1  0.40799071  0.14595655  0.75532997  1
  O2-  O159  1  0.41124908  0.62176007  0.00121193  1
  O2-  O160  1  0.36608902  0.64140475  0.25587485  1
  O2-  O161  1  0.34327519  0.63951926  0.50982667  1
  O2-  O162  1  0.34390716  0.62872830  0.75147031  1
  O2-  O163  1  0.66115252  0.12260909  -0.00361094  1
  O2-  O164  1  0.65257111  0.13542540  0.23707801  1
  O2-  O165  1  0.66806283  0.12737487  0.48502949  1
  O2-  O166  1  0.59670108  0.12629219  0.76341166  1
  O2-  O167  1  0.59844980  0.62956234  -0.00284203  1
  O2-  O168  1  0.59468393  0.62304672  0.25911633  1
  O2-  O169  1  0.58972930  0.61910611  0.48709039  1
  O2-  O170  1  0.65139411  0.63173871  0.74295309  1
  O2-  O171  1  0.84318090  0.15834909  -0.01005563  1
  O2-  O172  1  0.85888416  0.12853484  0.23489153  1
  O2-  O173  1  0.87849046  0.15522448  0.49674285  1
  O2-  O174  1  0.89479618  0.13828870  0.75845945  1
  O2-  O175  1  0.85846531  0.64358136  0.00919951  1
  O2-  O176  1  0.94212207  0.61598116  0.24790904  1
  O2-  O177  1  0.89701833  0.65475045  0.48802721  1
  O2-  O178  1  0.84030195  0.62084534  0.74857753  1
  O2-  O179  1  0.16289981  0.35759485  0.03026471  1
  O2-  O180  1  0.14451746  0.35542387  0.24478909  1
  O2-  O181  1  0.13465438  0.25253487  0.40881167  1
  O2-  O182  1  0.11381013  0.35154225  0.78396569  1
  O2-  O183  1  0.07151058  0.87499392  0.01023511  1
  O2-  O184  1  0.12241224  0.85419365  0.23846880  1
  O2-  O185  1  0.12873097  0.86207877  0.51705259  1
  O2-  O186  1  0.15477247  0.87158930  0.76717279  1
  O2-  O187  1  0.33778353  0.38025010  0.00969899  1
  O2-  O188  1  0.35905421  0.36996880  0.24358332  1
  O2-  O189  1  0.36492655  0.37417394  0.50166731  1
  O2-  O190  1  0.39277553  0.35114883  0.76310655  1
  O2-  O191  1  0.40678069  0.86719685  0.00224910  1
  O2-  O192  1  0.38874329  0.86108114  0.25616844  1
  O2-  O193  1  0.34754172  0.86849795  0.51663017  1
  O2-  O194  1  0.33833303  0.86892719  0.75791565  1
  O2-  O195  1  0.65123803  0.38165445  -0.00045678  1
  O2-  O196  1  0.62703515  0.35645503  0.24068220  1
  O2-  O197  1  0.64233854  0.36311394  0.49661260  1
  O2-  O198  1  0.60028685  0.37468084  0.75817896  1
  O2-  O199  1  0.57621340  0.86346009  0.00483830  1
  O2-  O200  1  0.61206362  0.86330302  0.24145451  1
  O2-  O201  1  0.65104167  0.87089510  0.49997667  1
  O2-  O202  1  0.64121608  0.86512049  0.75388415  1
  O2-  O203  1  0.83410735  0.35865437  -0.00816425  1
  O2-  O204  1  0.83546096  0.37900397  0.24322981  1
  O2-  O205  1  0.84680948  0.36369301  0.49081496  1
  O2-  O206  1  0.90257153  0.38448846  0.75312390  1
  O2-  O207  1  0.90001547  0.86560784  0.00161697  1
  O2-  O208  1  0.93955782  0.89080052  0.22979960  1
  O2-  O209  1  0.87314137  0.85273630  0.50395871  1
  O2-  O210  1  0.83705539  0.88488428  0.75747318  1
  O2-  O211  1  -0.00383552  0.12360242  0.00530231  1
  O2-  O212  1  -0.00057537  0.14522479  0.35788286  1
  O2-  O213  1  0.00800128  0.14568443  0.62666634  1
  O2-  O214  1  -0.00310417  -0.14487005  0.64409354  1
  O2-  O215  1  -0.00084260  0.38615183  -0.00744621  1
  O2-  O216  1  -0.01368132  0.33528395  0.34838406  1
  O2-  O217  1  0.03758920  0.37614742  0.51804634  1
  O2-  O218  1  -0.01146525  0.66488215  0.63458004  1
  O2-  O219  1  0.24564074  -0.11944060  -0.08178879  1
  O2-  O220  1  0.26073992  -0.12285521  0.11466800  1
  O2-  O221  1  0.24196968  0.12148067  0.56418012  1
  O2-  O222  1  0.23836082  0.14469600  0.72030155  1
  O2-  O223  1  0.24919336  0.62537371  -0.08234241  1
  O2-  O224  1  0.25791177  0.63451712  0.10581532  1
  O2-  O225  1  0.20153402  0.39606268  0.49287015  1
  O2-  O226  1  0.24773320  0.39488745  0.66707348  1
  O2-  O227  1  0.50139488  0.15277537  0.00599724  1
  O2-  O228  1  0.51560657  0.15287536  0.37025356  1
  O2-  O229  1  0.50505208  -0.14634732  0.40210702  1
  O2-  O230  1  0.50036577  -0.12441669  0.63015319  1
  O2-  O231  1  0.49485019  0.33913708  0.00863778  1
  O2-  O232  1  0.49869217  0.38850345  0.37255100  1
  O2-  O233  1  0.49479376  0.36051942  0.61918947  1
  O2-  O234  1  0.50275531  0.65752814  0.63553950  1
  O2-  O235  1  0.73512811  -0.10715082  -0.00020243  1
  O2-  O236  1  0.76526299  -0.11643825  0.17022658  1
  O2-  O237  1  0.75218759  -0.13722607  0.35892006  1
  O2-  O238  1  0.76735887  0.16853628  0.63245497  1
  O2-  O239  1  0.76295568  0.61691402  0.18401239  1
  O2-  O240  1  0.76365956  0.62507652  0.37319529  1
  O2-  O241  1  0.74896527  0.62055279  0.57782234  1
  O2-  O242  1  0.74980673  0.37960985  0.64316370  1
