# generated using pymatgen
data_Gd19Ta56(WO20)8
_symmetry_space_group_name_H-M   'P 1'
_cell_length_a   15.52320754
_cell_length_b   15.48357782
_cell_length_c   15.30547659
_cell_angle_alpha   89.93668942
_cell_angle_beta   90.05201497
_cell_angle_gamma   90.07840503
_symmetry_Int_Tables_number   1
_chemical_formula_structural   Gd19Ta56(WO20)8
_chemical_formula_sum   'Gd19 Ta56 W8 O160'
_cell_volume   3678.73744211
_cell_formula_units_Z   1
loop_
 _symmetry_equiv_pos_site_id
 _symmetry_equiv_pos_as_xyz
  1  'x, y, z'
loop_
 _atom_type_symbol
 _atom_type_oxidation_number
  Gd3+  3.0
  Ta5+  5.0
  W6+  6.0
  O2-  -2.0
loop_
 _atom_site_type_symbol
 _atom_site_label
 _atom_site_symmetry_multiplicity
 _atom_site_fract_x
 _atom_site_fract_y
 _atom_site_fract_z
 _atom_site_occupancy
  Gd3+  Gd0  1  0.52846277  0.72462036  0.53698426  1
  Gd3+  Gd1  1  0.48581462  0.25296111  0.25480729  1
  Gd3+  Gd2  1  0.75145416  0.75250042  0.50422427  1
  Gd3+  Gd3  1  0.01392583  0.25846450  0.76132181  1
  Gd3+  Gd4  1  0.05571423  0.76270475  0.73878592  1
  Gd3+  Gd5  1  0.71289388  0.77453904  0.76169543  1
  Gd3+  Gd6  1  0.75609053  0.76466697  0.25359581  1
  Gd3+  Gd7  1  0.74104336  0.24093792  -0.00917696  1
  Gd3+  Gd8  1  0.26184649  0.27813208  0.49256390  1
  Gd3+  Gd9  1  0.71371024  0.23159493  0.72689286  1
  Gd3+  Gd10  1  0.50399345  0.24465184  0.50892338  1
  Gd3+  Gd11  1  0.01273309  0.26030855  0.50841965  1
  Gd3+  Gd12  1  0.46997141  0.74816298  0.76178266  1
  Gd3+  Gd13  1  0.00185129  0.25160220  0.01542037  1
  Gd3+  Gd14  1  0.52019757  0.76622112  0.18352802  1
  Gd3+  Gd15  1  0.75592544  0.75459785  -0.01213718  1
  Gd3+  Gd16  1  0.80330585  0.23016754  0.21776596  1
  Gd3+  Gd17  1  0.23466671  0.74506173  0.24161153  1
  Gd3+  Gd18  1  0.23655337  0.73632486  0.48176321  1
  Ta5+  Ta19  1  0.41827953  0.11934346  0.11550520  1
  Ta5+  Ta20  1  0.32832842  0.87461194  0.87682075  1
  Ta5+  Ta21  1  0.34994810  0.87629201  0.62025582  1
  Ta5+  Ta22  1  0.35272102  0.88040187  0.12396623  1
  Ta5+  Ta23  1  0.82822505  0.12600012  0.40972788  1
  Ta5+  Ta24  1  0.88451720  0.63168724  0.62882184  1
  Ta5+  Ta25  1  0.12896635  0.12054114  0.38048376  1
  Ta5+  Ta26  1  0.09435380  0.87589186  0.37662736  1
  Ta5+  Ta27  1  0.35097128  0.61473615  0.88674217  1
  Ta5+  Ta28  1  0.89713724  0.88776870  0.37892299  1
  Ta5+  Ta29  1  0.57968879  0.88239677  0.90168427  1
  Ta5+  Ta30  1  0.35419419  0.60963500  0.62832964  1
  Ta5+  Ta31  1  0.64132106  0.38389345  0.61732943  1
  Ta5+  Ta32  1  0.60864498  0.61199530  0.86501483  1
  Ta5+  Ta33  1  0.58860102  0.12797088  0.12150653  1
  Ta5+  Ta34  1  0.12675125  0.61002527  0.62334369  1
  Ta5+  Ta35  1  0.38542874  0.12562706  0.86982323  1
  Ta5+  Ta36  1  0.11042922  0.88712241  0.13472814  1
  Ta5+  Ta37  1  0.14587199  0.12030921  0.64247100  1
  Ta5+  Ta38  1  0.40727768  0.37420052  0.88754611  1
  Ta5+  Ta39  1  0.13775750  0.62902222  0.88300724  1
  Ta5+  Ta40  1  0.62777404  0.11465489  0.37335858  1
  Ta5+  Ta41  1  0.37686198  0.38378690  0.36693615  1
  Ta5+  Ta42  1  0.62652013  0.60839613  0.09580472  1
  Ta5+  Ta43  1  0.85836881  0.88027927  0.64575579  1
  Ta5+  Ta44  1  0.39698957  0.62805946  0.37026649  1
  Ta5+  Ta45  1  0.16049104  0.44017494  0.88329750  1
  Ta5+  Ta46  1  0.10406076  0.61632608  0.12318701  1
  Ta5+  Ta47  1  0.37625052  0.60487041  0.12648016  1
  Ta5+  Ta48  1  0.95388845  0.05990141  0.11621554  1
  Ta5+  Ta49  1  0.62031747  0.36037018  0.11748503  1
  Ta5+  Ta50  1  0.87512470  0.36792796  0.35541901  1
  Ta5+  Ta51  1  0.16323403  0.37050531  0.11896207  1
  Ta5+  Ta52  1  0.61680840  0.36628157  0.87325198  1
  Ta5+  Ta53  1  0.86346540  0.38910970  0.87484115  1
  Ta5+  Ta54  1  0.87854419  0.11783690  0.88340729  1
  Ta5+  Ta55  1  0.37415404  0.11101338  0.37876441  1
  Ta5+  Ta56  1  0.39094429  0.86554869  0.36555048  1
  Ta5+  Ta57  1  0.35424570  0.12020968  0.64061174  1
  Ta5+  Ta58  1  0.63010850  0.10228402  0.87716315  1
  Ta5+  Ta59  1  0.59938527  0.89346207  0.63585897  1
  Ta5+  Ta60  1  0.89078695  0.60117646  0.37890339  1
  Ta5+  Ta61  1  0.85484804  0.39448107  0.66642749  1
  Ta5+  Ta62  1  0.33467944  0.35768782  0.11610292  1
  Ta5+  Ta63  1  0.08648607  0.61727822  0.36814667  1
  Ta5+  Ta64  1  0.88468486  0.88296169  0.85717155  1
  Ta5+  Ta65  1  0.14943876  0.12749201  0.88826246  1
  Ta5+  Ta66  1  0.12461506  0.38381039  0.36733391  1
  Ta5+  Ta67  1  0.86480982  0.89781237  0.12021442  1
  Ta5+  Ta68  1  0.89181058  0.12416925  0.63858511  1
  Ta5+  Ta69  1  0.64813784  0.57506296  0.66941623  1
  Ta5+  Ta70  1  0.39170479  0.37754385  0.64080698  1
  Ta5+  Ta71  1  0.59984406  0.61392335  0.34294786  1
  Ta5+  Ta72  1  0.14403278  0.38934285  0.63790163  1
  Ta5+  Ta73  1  0.89689261  0.39744168  0.10565667  1
  Ta5+  Ta74  1  0.11223364  0.12260541  0.13980303  1
  W6+  W75  1  0.63135246  0.10390594  0.60389580  1
  W6+  W76  1  0.63165780  0.88400669  0.09544974  1
  W6+  W77  1  0.16537017  0.87758140  0.88596431  1
  W6+  W78  1  0.85215184  0.62901051  0.12461242  1
  W6+  W79  1  0.62712560  0.37446058  0.37078656  1
  W6+  W80  1  0.18050724  0.87523064  0.62019017  1
  W6+  W81  1  0.88364066  0.63441837  0.86316040  1
  W6+  W82  1  0.60085817  0.86315667  0.37057860  1
  O2-  O83  1  0.15065252  0.00475306  0.15429657  1
  O2-  O84  1  0.11036003  -0.00125447  0.37375896  1
  O2-  O85  1  0.14248227  0.00673553  0.62098124  1
  O2-  O86  1  0.14707724  0.01074033  0.87206867  1
  O2-  O87  1  0.13588969  0.49823367  0.11955887  1
  O2-  O88  1  0.14194195  0.50366913  0.38257344  1
  O2-  O89  1  0.07777788  0.49066930  0.63131218  1
  O2-  O90  1  0.06701553  0.51695166  0.88977766  1
  O2-  O91  1  0.39491465  -0.00779937  0.12386303  1
  O2-  O92  1  0.38644281  -0.01179308  0.38732384  1
  O2-  O93  1  0.34993914  -0.00150872  0.61037947  1
  O2-  O94  1  0.35528476  -0.00738302  0.86916750  1
  O2-  O95  1  0.35578499  0.48761691  0.12119818  1
  O2-  O96  1  0.39019280  0.50522108  0.36517791  1
  O2-  O97  1  0.40558146  0.50113659  0.61643810  1
  O2-  O98  1  0.40725621  0.50600317  0.89692088  1
  O2-  O99  1  0.60282062  0.01171413  0.11553524  1
  O2-  O100  1  0.61921242  -0.00329837  0.36241402  1
  O2-  O101  1  0.68039013  -0.02082113  0.61230363  1
  O2-  O102  1  0.55693543  0.00835413  0.89377619  1
  O2-  O103  1  0.62695202  0.48646102  0.10849707  1
  O2-  O104  1  0.65163764  0.51037386  0.36712749  1
  O2-  O105  1  0.57144477  0.48790949  0.62796747  1
  O2-  O106  1  0.60833656  0.48871552  0.87356088  1
  O2-  O107  1  0.82524565  0.00616529  0.09289445  1
  O2-  O108  1  0.86869637  0.01329233  0.39021982  1
  O2-  O109  1  0.87730054  0.00738083  0.63893675  1
  O2-  O110  1  0.91774756  0.00650961  0.84789950  1
  O2-  O111  1  0.83549983  0.49639153  0.11202664  1
  O2-  O112  1  0.85370728  0.47844834  0.40250265  1
  O2-  O113  1  0.89229072  0.50660304  0.63057989  1
  O2-  O114  1  0.85857084  0.50788365  0.86694046  1
  O2-  O115  1  0.11807917  0.25395174  0.11865126  1
  O2-  O116  1  0.14027116  0.25383821  0.39960564  1
  O2-  O117  1  0.10401522  0.26819919  0.63818614  1
  O2-  O118  1  0.06911212  0.23189052  0.89326890  1
  O2-  O119  1  0.12360659  0.75510871  0.13910805  1
  O2-  O120  1  0.14301638  0.73935578  0.36569275  1
  O2-  O121  1  0.17006335  0.73221097  0.62066426  1
  O2-  O122  1  0.10881650  0.74760324  0.87763438  1
  O2-  O123  1  0.37487876  0.23614631  0.12021925  1
  O2-  O124  1  0.38719262  0.24744107  0.37583727  1
  O2-  O125  1  0.39050412  0.24889651  0.63153940  1
  O2-  O126  1  0.41988279  0.24749333  0.86834742  1
  O2-  O127  1  0.37855325  0.75225183  0.14208641  1
  O2-  O128  1  0.33262930  0.74197355  0.36142820  1
  O2-  O129  1  0.40530732  0.73074992  0.62329544  1
  O2-  O130  1  0.38109667  0.74152121  0.88219164  1
  O2-  O131  1  0.67774811  0.24089606  0.13242447  1
  O2-  O132  1  0.58088137  0.24421086  0.37969392  1
  O2-  O133  1  0.61152188  0.24586515  0.61390746  1
  O2-  O134  1  0.65675410  0.23736339  0.86123679  1
  O2-  O135  1  0.63995351  0.74084134  0.08754522  1
  O2-  O136  1  0.65560811  0.71735783  0.38293262  1
  O2-  O137  1  0.59793791  0.76431688  0.66608452  1
  O2-  O138  1  0.60556167  0.74762320  0.87260213  1
  O2-  O139  1  0.85574329  0.27822396  0.08509096  1
  O2-  O140  1  0.88861181  0.23097655  0.36730870  1
  O2-  O141  1  0.92599987  0.29603834  0.62860942  1
  O2-  O142  1  0.88081255  0.24926817  0.89988311  1
  O2-  O143  1  0.82656469  0.77056768  0.12204265  1
  O2-  O144  1  0.82489907  0.78626367  0.38129893  1
  O2-  O145  1  0.81866562  0.74684792  0.64531765  1
  O2-  O146  1  0.83512578  0.76135117  0.85205987  1
  O2-  O147  1  0.12314665  0.12087330  0.01060933  1
  O2-  O148  1  0.08658707  0.14523811  0.26902227  1
  O2-  O149  1  0.08065387  0.13189155  0.49738946  1
  O2-  O150  1  0.11608468  0.15024171  0.76490449  1
  O2-  O151  1  0.14940782  0.63325581  0.00887486  1
  O2-  O152  1  0.13773474  0.62352599  0.24938859  1
  O2-  O153  1  0.12074807  0.62278631  0.49452942  1
  O2-  O154  1  0.12198769  0.62257811  0.75007996  1
  O2-  O155  1  0.42525069  0.11290083  -0.01551434  1
  O2-  O156  1  0.40455485  0.11973334  0.25678146  1
  O2-  O157  1  0.39003334  0.13676185  0.50326050  1
  O2-  O158  1  0.42340050  0.11111729  0.74509023  1
  O2-  O159  1  0.33113461  0.62844418  0.01486682  1
  O2-  O160  1  0.32880594  0.61912068  0.24506669  1
  O2-  O161  1  0.34553487  0.62946357  0.49068453  1
  O2-  O162  1  0.36084392  0.62182325  0.75356619  1
  O2-  O163  1  0.61761070  0.15023983  -0.00412551  1
  O2-  O164  1  0.58551252  0.13752981  0.25384785  1
  O2-  O165  1  0.56162622  0.11192111  0.48250984  1
  O2-  O166  1  0.64515593  0.10323463  0.75022823  1
  O2-  O167  1  0.67241878  0.61555508  -0.02130470  1
  O2-  O168  1  0.64714206  0.63749308  0.22472365  1
  O2-  O169  1  0.65912998  0.63773983  0.56529268  1
  O2-  O170  1  0.70914170  0.62515454  0.77788573  1
  O2-  O171  1  0.93115178  0.11585944  -0.00095149  1
  O2-  O172  1  0.90612060  0.13585755  0.19529564  1
  O2-  O173  1  0.89262367  0.16098833  0.51798712  1
  O2-  O174  1  0.85303186  0.16147284  0.75236104  1
  O2-  O175  1  0.85261790  0.64856084  -0.01075274  1
  O2-  O176  1  0.83611320  0.63462617  0.27543325  1
  O2-  O177  1  0.84623701  0.63296598  0.49854185  1
  O2-  O178  1  0.93646805  0.65605196  0.74007428  1
  O2-  O179  1  0.15431997  0.37437052  -0.01593549  1
  O2-  O180  1  0.12550858  0.37342323  0.24785868  1
  O2-  O181  1  0.13382284  0.37141179  0.51113553  1
  O2-  O182  1  0.14183651  0.38119789  0.77113528  1
  O2-  O183  1  0.13807271  0.88784990  0.01797588  1
  O2-  O184  1  0.15063540  0.87073955  0.26023956  1
  O2-  O185  1  0.16482325  0.86416339  0.47821386  1
  O2-  O186  1  0.15491228  0.86496439  0.75434047  1
  O2-  O187  1  0.34165046  0.36012677  -0.01150010  1
  O2-  O188  1  0.38181584  0.36517180  0.24353902  1
  O2-  O189  1  0.39209939  0.36489112  0.49878251  1
  O2-  O190  1  0.38182213  0.38820835  0.76155754  1
  O2-  O191  1  0.32172412  0.86591389  0.00628050  1
  O2-  O192  1  0.32183837  0.87291892  0.25421116  1
  O2-  O193  1  0.33892474  0.84885924  0.49494330  1
  O2-  O194  1  0.35843423  0.85123516  0.74710457  1
  O2-  O195  1  0.59449036  0.33779220  -0.00244758  1
  O2-  O196  1  0.59099058  0.35804446  0.23994721  1
  O2-  O197  1  0.59480111  0.37401874  0.50191372  1
  O2-  O198  1  0.61878033  0.35708779  0.74258185  1
  O2-  O199  1  0.68658527  0.88898191  -0.03887893  1
  O2-  O200  1  0.63937862  0.84796865  0.23399699  1
  O2-  O201  1  0.62908261  0.84070932  0.51418400  1
  O2-  O202  1  0.59438670  0.88998546  0.76876940  1
  O2-  O203  1  0.94005508  0.39079291  -0.01861487  1
  O2-  O204  1  0.90260724  0.37464676  0.23571156  1
  O2-  O205  1  0.99921322  0.36201923  0.39684030  1
  O2-  O206  1  0.79628180  0.34697225  0.76737315  1
  O2-  O207  1  0.87693615  0.87338422  -0.01972362  1
  O2-  O208  1  0.83969872  0.89458711  0.24700054  1
  O2-  O209  1  0.83578302  0.87425964  0.52343737  1
  O2-  O210  1  0.94824493  0.85923750  0.73748333  1
  O2-  O211  1  -0.00960004  -0.07687158  0.13208323  1
  O2-  O212  1  -0.01176096  -0.15199133  0.30543160  1
  O2-  O213  1  -0.00770555  -0.10695057  0.45728975  1
  O2-  O214  1  0.00915034  0.13256695  0.65202957  1
  O2-  O215  1  -0.01217373  0.61696883  0.12275832  1
  O2-  O216  1  -0.00975745  0.54296307  0.32883914  1
  O2-  O217  1  -0.01801566  0.68256564  0.40176544  1
  O2-  O218  1  -0.05280906  0.38863518  0.77440824  1
  O2-  O219  1  0.26785705  0.15617032  -0.11031770  1
  O2-  O220  1  0.25191380  0.11799558  0.37732624  1
  O2-  O221  1  0.23867737  0.16071917  0.56706180  1
  O2-  O222  1  0.25722080  0.10985446  0.71393525  1
  O2-  O223  1  0.23974263  0.53961201  -0.13376530  1
  O2-  O224  1  0.25548591  0.37667895  0.37597023  1
  O2-  O225  1  0.26425194  0.37305360  0.62235627  1
  O2-  O226  1  0.24092374  0.56267853  0.62438077  1
  O2-  O227  1  0.52368761  -0.14496267  0.00863908  1
  O2-  O228  1  0.48602535  -0.12831220  0.28465889  1
  O2-  O229  1  0.48532942  -0.19163468  0.42981027  1
  O2-  O230  1  0.48019216  -0.11235213  0.61465749  1
  O2-  O231  1  0.49929385  0.61728818  0.11260971  1
  O2-  O232  1  0.48991343  0.66493628  0.28815982  1
  O2-  O233  1  0.50882067  0.61353101  0.43866254  1
  O2-  O234  1  0.54988592  0.61634684  0.74760168  1
  O2-  O235  1  0.75863819  0.10212384  -0.09653651  1
  O2-  O236  1  0.74579637  0.13311424  0.31311327  1
  O2-  O237  1  0.72510337  0.12342163  0.47637051  1
  O2-  O238  1  0.79207766  -0.10069040  0.75726075  1
  O2-  O239  1  0.74485150  0.37458700  -0.07729394  1
  O2-  O240  1  0.75840474  0.33472525  0.33237586  1
  O2-  O241  1  0.76252759  0.33901748  0.59651235  1
  O2-  O242  1  0.72891097  0.47929885  0.66660218  1
