# generated using pymatgen
data_Gd19Ta56(WO20)8
_symmetry_space_group_name_H-M   'P 1'
_cell_length_a   15.54141950
_cell_length_b   15.46089903
_cell_length_c   15.28390829
_cell_angle_alpha   89.87525223
_cell_angle_beta   89.87320933
_cell_angle_gamma   90.03035497
_symmetry_Int_Tables_number   1
_chemical_formula_structural   Gd19Ta56(WO20)8
_chemical_formula_sum   'Gd19 Ta56 W8 O160'
_cell_volume   3672.46525185
_cell_formula_units_Z   1
loop_
 _symmetry_equiv_pos_site_id
 _symmetry_equiv_pos_as_xyz
  1  'x, y, z'
loop_
 _atom_type_symbol
 _atom_type_oxidation_number
  Gd3+  3.0
  Ta5+  5.0
  W6+  6.0
  O2-  -2.0
loop_
 _atom_site_type_symbol
 _atom_site_label
 _atom_site_symmetry_multiplicity
 _atom_site_fract_x
 _atom_site_fract_y
 _atom_site_fract_z
 _atom_site_occupancy
  Gd3+  Gd0  1  0.53569032  0.24107932  0.25580776  1
  Gd3+  Gd1  1  0.72416670  0.73048525  0.75846846  1
  Gd3+  Gd2  1  0.72661319  0.23500460  0.76546284  1
  Gd3+  Gd3  1  0.75843620  0.23551025  0.22743110  1
  Gd3+  Gd4  1  0.01503154  0.75396461  0.51290698  1
  Gd3+  Gd5  1  0.24374068  0.24616861  0.23831849  1
  Gd3+  Gd6  1  0.48823491  0.26799939  0.76034758  1
  Gd3+  Gd7  1  0.28468520  0.73360169  0.50321613  1
  Gd3+  Gd8  1  0.24807609  0.25178374  0.50579637  1
  Gd3+  Gd9  1  -0.02384262  0.26243060  0.75072027  1
  Gd3+  Gd10  1  0.72283626  0.24670616  0.50778174  1
  Gd3+  Gd11  1  0.25079203  0.26422075  0.74876279  1
  Gd3+  Gd12  1  0.25969021  0.75238414  0.27226990  1
  Gd3+  Gd13  1  0.01230833  0.77721873  0.25272665  1
  Gd3+  Gd14  1  0.70750905  0.72387475  0.48165463  1
  Gd3+  Gd15  1  -0.02239213  0.24890357  0.00270239  1
  Gd3+  Gd16  1  0.25355670  0.74151262  -0.01523115  1
  Gd3+  Gd17  1  -0.01173672  0.77523592  0.00656055  1
  Gd3+  Gd18  1  0.25389863  0.25097669  -0.00259310  1
  Ta5+  Ta19  1  0.15310679  0.87808472  0.63729205  1
  Ta5+  Ta20  1  0.60973824  0.38477613  0.37765686  1
  Ta5+  Ta21  1  0.39306882  0.11865964  0.11233085  1
  Ta5+  Ta22  1  0.94778145  0.59015752  0.37807761  1
  Ta5+  Ta23  1  0.40629667  0.64618204  0.86907998  1
  Ta5+  Ta24  1  0.39489255  0.88162289  0.62165963  1
  Ta5+  Ta25  1  0.17202637  0.89951151  0.12612191  1
  Ta5+  Ta26  1  0.60980588  0.86845928  0.12727395  1
  Ta5+  Ta27  1  0.61233614  0.04142253  0.61817324  1
  Ta5+  Ta28  1  0.59294415  0.84491007  0.62704903  1
  Ta5+  Ta29  1  0.11131927  0.12362700  0.63447172  1
  Ta5+  Ta30  1  0.13940993  0.87814091  0.87323500  1
  Ta5+  Ta31  1  0.34954289  0.40424053  0.87631390  1
  Ta5+  Ta32  1  0.86660099  0.63399095  0.61469985  1
  Ta5+  Ta33  1  0.86664827  0.39018148  0.62143608  1
  Ta5+  Ta34  1  0.35120126  0.10608289  0.86868759  1
  Ta5+  Ta35  1  0.39112306  0.11324061  0.62320889  1
  Ta5+  Ta36  1  0.37829276  0.11808408  0.36832806  1
  Ta5+  Ta37  1  0.11565734  0.38509353  0.12105649  1
  Ta5+  Ta38  1  0.13420214  0.60055808  0.38436699  1
  Ta5+  Ta39  1  0.10802359  0.38802800  0.62827945  1
  Ta5+  Ta40  1  0.62848029  0.63241428  0.12933982  1
  Ta5+  Ta41  1  0.87124715  0.12327640  0.62925626  1
  Ta5+  Ta42  1  0.62882494  0.38221897  0.11510305  1
  Ta5+  Ta43  1  0.39990881  0.86037821  0.87358802  1
  Ta5+  Ta44  1  0.39086766  0.37830552  0.11681829  1
  Ta5+  Ta45  1  0.07798440  0.63368652  0.87332557  1
  Ta5+  Ta46  1  0.57220543  0.64219920  0.88659680  1
  Ta5+  Ta47  1  0.85168611  0.88219609  0.13713918  1
  Ta5+  Ta48  1  0.13781978  0.12056976  0.87291586  1
  Ta5+  Ta49  1  0.41449958  0.87665661  0.36763925  1
  Ta5+  Ta50  1  0.42434768  0.62851798  0.62304308  1
  Ta5+  Ta51  1  0.13703077  0.39594348  0.87833235  1
  Ta5+  Ta52  1  0.36961808  0.37740102  0.37155499  1
  Ta5+  Ta53  1  0.13174263  0.90581694  0.38599654  1
  Ta5+  Ta54  1  0.56773272  0.84217468  0.88224273  1
  Ta5+  Ta55  1  0.12490480  0.63425697  0.12660223  1
  Ta5+  Ta56  1  0.11610475  0.09266532  0.11753834  1
  Ta5+  Ta57  1  0.85592904  0.88031349  0.86445992  1
  Ta5+  Ta58  1  0.36348911  0.62497936  0.12252619  1
  Ta5+  Ta59  1  0.12132679  0.12171713  0.37499664  1
  Ta5+  Ta60  1  0.57986423  0.85979694  0.36674158  1
  Ta5+  Ta61  1  0.88202873  0.13536059  0.38303199  1
  Ta5+  Ta62  1  0.40136049  0.62144497  0.37190369  1
  Ta5+  Ta63  1  0.60661284  0.39810471  0.63236353  1
  Ta5+  Ta64  1  0.87833496  0.62707762  0.14041368  1
  Ta5+  Ta65  1  0.87440703  0.37177458  0.37854137  1
  Ta5+  Ta66  1  0.58968815  0.60886558  0.62832288  1
  Ta5+  Ta67  1  0.63223452  0.11187393  0.10777363  1
  Ta5+  Ta68  1  0.39711899  0.42224339  0.61960982  1
  Ta5+  Ta69  1  0.85938791  0.41491944  0.87851545  1
  Ta5+  Ta70  1  0.88373161  0.38443491  0.13097743  1
  Ta5+  Ta71  1  0.87736511  0.89063867  0.39780445  1
  Ta5+  Ta72  1  0.12431874  0.63554156  0.63992502  1
  Ta5+  Ta73  1  0.34002211  0.88180065  0.12263328  1
  Ta5+  Ta74  1  0.85034999  0.07192104  0.87765741  1
  W6+  W75  1  0.12523240  0.38124413  0.37379187  1
  W6+  W76  1  0.81588072  0.87858635  0.60109565  1
  W6+  W77  1  0.62985919  0.10535746  0.38222676  1
  W6+  W78  1  0.91633000  0.62904911  0.87003226  1
  W6+  W79  1  0.56543532  0.63111956  0.36272661  1
  W6+  W80  1  0.65589783  0.43438981  0.86644667  1
  W6+  W81  1  0.88807464  0.11448872  0.12433713  1
  W6+  W82  1  0.62065392  0.08149182  0.86123413  1
  O2-  O83  1  0.06524588  -0.01575939  0.11004393  1
  O2-  O84  1  0.18786884  0.01436209  0.38355496  1
  O2-  O85  1  0.13125865  0.00399148  0.64680652  1
  O2-  O86  1  0.11555241  0.00165151  0.87052186  1
  O2-  O87  1  0.10220691  0.50454173  0.12049357  1
  O2-  O88  1  0.18876430  0.49292254  0.38981540  1
  O2-  O89  1  0.12128035  0.50763401  0.63114890  1
  O2-  O90  1  0.12141437  0.51330500  0.88977531  1
  O2-  O91  1  0.39687959  -0.00067119  0.11770602  1
  O2-  O92  1  0.38016677  -0.00025277  0.35283364  1
  O2-  O93  1  0.34540765  0.00343817  0.64078635  1
  O2-  O94  1  0.37425449  -0.00962134  0.87183223  1
  O2-  O95  1  0.38652534  0.49964036  0.12300886  1
  O2-  O96  1  0.38003286  0.49605775  0.35816771  1
  O2-  O97  1  0.33627717  0.52336748  0.63397731  1
  O2-  O98  1  0.37693392  0.51915952  0.87991841  1
  O2-  O99  1  0.59785401  -0.00353506  0.12845977  1
  O2-  O100  1  0.61491042  -0.02590871  0.37084703  1
  O2-  O101  1  0.68689304  -0.06515852  0.62077913  1
  O2-  O102  1  0.57277162  -0.03637734  0.86962015  1
  O2-  O103  1  0.64016674  0.50098169  0.14200668  1
  O2-  O104  1  0.59166627  0.49918247  0.35815424  1
  O2-  O105  1  0.66976006  0.50174827  0.63746696  1
  O2-  O106  1  0.56622918  0.51999942  0.89334793  1
  O2-  O107  1  0.90182683  -0.01510323  0.16165479  1
  O2-  O108  1  0.87198297  0.01172563  0.39249139  1
  O2-  O109  1  0.84802906  0.00849130  0.61804605  1
  O2-  O110  1  0.77531117  -0.02675658  0.89917471  1
  O2-  O111  1  0.90255413  0.50732128  0.15118716  1
  O2-  O112  1  0.86597946  0.49586214  0.38073895  1
  O2-  O113  1  0.86443122  0.50906593  0.59575417  1
  O2-  O114  1  0.94884321  0.49653852  0.86824060  1
  O2-  O115  1  0.15827571  0.24330029  0.11338466  1
  O2-  O116  1  0.15764379  0.24091123  0.36937117  1
  O2-  O117  1  0.14137658  0.25267427  0.64446493  1
  O2-  O118  1  0.15651545  0.25496144  0.87364012  1
  O2-  O119  1  0.09659939  0.76828614  0.12367766  1
  O2-  O120  1  0.21502269  0.81871018  0.40216185  1
  O2-  O121  1  0.09218958  0.76676969  0.64310454  1
  O2-  O122  1  0.08214815  0.76690156  0.87577185  1
  O2-  O123  1  0.34615246  0.25039769  0.11166445  1
  O2-  O124  1  0.33283284  0.24654544  0.38061172  1
  O2-  O125  1  0.32542732  0.21961391  0.63035862  1
  O2-  O126  1  0.34642037  0.25918195  0.86412011  1
  O2-  O127  1  0.31214354  0.75049744  0.12475278  1
  O2-  O128  1  0.38726659  0.75299322  0.38570471  1
  O2-  O129  1  0.40513868  0.75279609  0.60201848  1
  O2-  O130  1  0.33222127  0.75380893  0.85941155  1
  O2-  O131  1  0.65001217  0.25394788  0.12218703  1
  O2-  O132  1  0.63636913  0.24612240  0.39117390  1
  O2-  O133  1  0.67378371  0.29217660  0.63849718  1
  O2-  O134  1  0.59719335  0.20926493  0.82389829  1
  O2-  O135  1  0.66013435  0.75344366  0.13632771  1
  O2-  O136  1  0.63935755  0.74558026  0.35289603  1
  O2-  O137  1  0.64179679  0.72724695  0.62300616  1
  O2-  O138  1  0.65980365  0.74306164  0.89284389  1
  O2-  O139  1  0.86118390  0.25576054  0.11090149  1
  O2-  O140  1  0.81682677  0.25112509  0.37294313  1
  O2-  O141  1  0.84892311  0.25467266  0.65151000  1
  O2-  O142  1  0.92973447  0.29648668  0.87845362  1
  O2-  O143  1  0.91028704  0.76400088  0.13820159  1
  O2-  O144  1  1.03333082  0.70313515  0.37770815  1
  O2-  O145  1  0.80245105  0.74168977  0.60768647  1
  O2-  O146  1  0.89657256  0.76588436  0.88350700  1
  O2-  O147  1  0.08307482  0.13835420  -0.00796255  1
  O2-  O148  1  0.11837731  0.11735708  0.24653448  1
  O2-  O149  1  0.14952134  0.13432399  0.51220189  1
  O2-  O150  1  0.07112345  0.14510745  0.76431263  1
  O2-  O151  1  0.11700713  0.65446545  -0.00191286  1
  O2-  O152  1  0.13785809  0.66094142  0.25406848  1
  O2-  O153  1  0.15402417  0.66214872  0.51302075  1
  O2-  O154  1  0.13363932  0.63968540  0.76213494  1
  O2-  O155  1  0.40100882  0.13442866  -0.01443974  1
  O2-  O156  1  0.35045177  0.13567667  0.23905844  1
  O2-  O157  1  0.36076769  0.11944971  0.49756820  1
  O2-  O158  1  0.41248572  0.13525435  0.75816575  1
  O2-  O159  1  0.37544506  0.65167709  0.00082680  1
  O2-  O160  1  0.37171780  0.64696409  0.24611125  1
  O2-  O161  1  0.38619296  0.61499508  0.49665356  1
  O2-  O162  1  0.40722345  0.63999443  0.74502404  1
  O2-  O163  1  0.60592820  0.11627368  -0.00890619  1
  O2-  O164  1  0.64128821  0.14013380  0.24837383  1
  O2-  O165  1  0.66062759  0.10299124  0.52260105  1
  O2-  O166  1  0.66074506  0.08329604  0.71966654  1
  O2-  O167  1  0.57402566  0.64005175  0.02285671  1
  O2-  O168  1  0.55400270  0.63690099  0.22288884  1
  O2-  O169  1  0.59873619  0.62177275  0.49871158  1
  O2-  O170  1  0.60557928  0.63383015  0.75839901  1
  O2-  O171  1  0.90242505  0.11692029  -0.02221997  1
  O2-  O172  1  0.86702110  0.13704680  0.26047100  1
  O2-  O173  1  0.84274868  0.15241317  0.50648287  1
  O2-  O174  1  0.88042923  0.12865196  0.76374777  1
  O2-  O175  1  0.92096897  0.64030399  0.02164755  1
  O2-  O176  1  0.90711236  0.65204723  0.26456848  1
  O2-  O177  1  0.89129749  0.65984111  0.48156370  1
  O2-  O178  1  0.88322642  0.63774421  0.73509989  1
  O2-  O179  1  0.08135926  0.36005896  -0.00784616  1
  O2-  O180  1  0.15680642  0.37056869  0.23757573  1
  O2-  O181  1  0.14814055  0.36337727  0.51258777  1
  O2-  O182  1  0.07926908  0.37108104  0.76239275  1
  O2-  O183  1  0.16711217  0.87367976  -0.00277605  1
  O2-  O184  1  0.14263241  0.87456401  0.25647301  1
  O2-  O185  1  0.10569571  0.88396202  0.51178851  1
  O2-  O186  1  0.18543424  0.86830497  0.75776583  1
  O2-  O187  1  0.40456795  0.37117264  -0.00917690  1
  O2-  O188  1  0.34972951  0.35823030  0.24359452  1
  O2-  O189  1  0.35529170  0.37600824  0.50650926  1
  O2-  O190  1  0.39419721  0.38523942  0.74948970  1
  O2-  O191  1  0.35502988  0.85570317  -0.00280927  1
  O2-  O192  1  0.36502193  0.86012814  0.24684864  1
  O2-  O193  1  0.40472555  0.89242691  0.49385211  1
  O2-  O194  1  0.40559347  0.86366548  0.74382977  1
  O2-  O195  1  0.64657580  0.39152873  -0.00214619  1
  O2-  O196  1  0.65028965  0.35395175  0.25777842  1
  O2-  O197  1  0.63599194  0.38507830  0.49985332  1
  O2-  O198  1  0.58885273  0.38629853  0.75971061  1
  O2-  O199  1  0.56231764  0.84911480  0.01684909  1
  O2-  O200  1  0.55154263  0.85687237  0.23521629  1
  O2-  O201  1  0.59291353  0.83444148  0.49741404  1
  O2-  O202  1  0.60851746  0.83126149  0.75351939  1
  O2-  O203  1  0.87337984  0.39780320  0.00772046  1
  O2-  O204  1  0.83922128  0.36699277  0.25305201  1
  O2-  O205  1  0.98759431  0.34621102  0.38284858  1
  O2-  O206  1  0.87420727  0.39793451  0.74466903  1
  O2-  O207  1  0.87902453  0.87808460  0.01213133  1
  O2-  O208  1  0.86290110  0.85242640  0.27754055  1
  O2-  O209  1  0.92569841  0.86337028  0.51604247  1
  O2-  O210  1  0.81245158  0.85785470  0.75019885  1
  O2-  O211  1  -0.06734604  -0.02575746  -0.15544871  1
  O2-  O212  1  0.00853835  -0.11570785  0.36237949  1
  O2-  O213  1  0.00083574  0.14685933  0.39719836  1
  O2-  O214  1  -0.00739539  0.14006933  0.60859756  1
  O2-  O215  1  0.00008418  0.34634408  0.14764230  1
  O2-  O216  1  0.03784622  0.53995229  0.30891128  1
  O2-  O217  1  0.03359934  0.56375744  0.46757674  1
  O2-  O218  1  -0.01209470  0.35904389  0.60664135  1
  O2-  O219  1  0.24509955  0.11327535  -0.05317025  1
  O2-  O220  1  0.21929565  0.03010355  0.12032356  1
  O2-  O221  1  0.26610698  -0.14666051  0.59983512  1
  O2-  O222  1  0.24263418  0.11997414  0.78565638  1
  O2-  O223  1  0.24443071  0.39327606  -0.04080098  1
  O2-  O224  1  0.24114618  0.59941823  0.11423635  1
  O2-  O225  1  0.25555720  0.64717568  0.37811124  1
  O2-  O226  1  0.24066056  0.40310768  0.79960371  1
  O2-  O227  1  0.50484151  0.15437169  0.14027828  1
  O2-  O228  1  0.49442652  0.14606656  0.36367835  1
  O2-  O229  1  0.51122895  0.12542086  0.61335863  1
  O2-  O230  1  0.51563396  -0.04879248  0.62864473  1
  O2-  O231  1  0.50760451  0.35642482  0.14809296  1
  O2-  O232  1  0.49063364  0.34270793  0.36823753  1
  O2-  O233  1  0.49542839  0.32952137  0.61985907  1
  O2-  O234  1  0.50225957  0.49776987  0.62307282  1
  O2-  O235  1  0.75221429  0.10794224  0.11100862  1
  O2-  O236  1  0.73481273  -0.09847327  0.13217639  1
  O2-  O237  1  0.77529820  -0.14159408  0.45906314  1
  O2-  O238  1  0.74875870  0.14000196  0.87611200  1
  O2-  O239  1  0.77075173  0.49979536  -0.11119607  1
  O2-  O240  1  0.76155699  0.62233255  0.13277206  1
  O2-  O241  1  0.82801019  0.35846317  0.49879493  1
  O2-  O242  1  0.75370663  0.34024898  0.85558444  1
