# generated using pymatgen
data_Gd19Ta56(WO20)8
_symmetry_space_group_name_H-M   'P 1'
_cell_length_a   15.48930238
_cell_length_b   15.44365461
_cell_length_c   15.17900390
_cell_angle_alpha   89.89092887
_cell_angle_beta   90.39260204
_cell_angle_gamma   90.03637631
_symmetry_Int_Tables_number   1
_chemical_formula_structural   Gd19Ta56(WO20)8
_chemical_formula_sum   'Gd19 Ta56 W8 O160'
_cell_volume   3630.89879883
_cell_formula_units_Z   1
loop_
 _symmetry_equiv_pos_site_id
 _symmetry_equiv_pos_as_xyz
  1  'x, y, z'
loop_
 _atom_type_symbol
 _atom_type_oxidation_number
  Gd3+  3.0
  Ta5+  5.0
  W6+  6.0
  O2-  -2.0
loop_
 _atom_site_type_symbol
 _atom_site_label
 _atom_site_symmetry_multiplicity
 _atom_site_fract_x
 _atom_site_fract_y
 _atom_site_fract_z
 _atom_site_occupancy
  Gd3+  Gd0  1  0.46493535  0.25792975  -0.02005277  1
  Gd3+  Gd1  1  0.52082366  0.71992983  0.49507196  1
  Gd3+  Gd2  1  0.02169588  0.77180756  0.49202366  1
  Gd3+  Gd3  1  0.05738721  0.73693792  0.73505854  1
  Gd3+  Gd4  1  0.72775640  0.25003670  0.26787789  1
  Gd3+  Gd5  1  0.75629764  0.74294481  0.76695414  1
  Gd3+  Gd6  1  0.70264028  0.23428849  0.50435076  1
  Gd3+  Gd7  1  0.49404188  0.22964758  0.26309306  1
  Gd3+  Gd8  1  0.23870468  0.27543773  0.74753821  1
  Gd3+  Gd9  1  -0.01910595  0.27111692  0.75913164  1
  Gd3+  Gd10  1  0.46032188  0.74148022  0.25217911  1
  Gd3+  Gd11  1  0.48660952  0.74700874  -0.00771090  1
  Gd3+  Gd12  1  0.27661229  0.73803446  0.46476797  1
  Gd3+  Gd13  1  0.43286121  0.24000599  0.51678484  1
  Gd3+  Gd14  1  0.25287942  0.74316175  0.02020954  1
  Gd3+  Gd15  1  0.74935069  0.25455715  0.73600563  1
  Gd3+  Gd16  1  0.79826560  0.76425235  0.19990708  1
  Gd3+  Gd17  1  0.47442968  0.25239339  0.73995735  1
  Gd3+  Gd18  1  0.03510202  0.25187301  0.23581477  1
  Ta5+  Ta19  1  0.12264479  0.91294611  0.36750872  1
  Ta5+  Ta20  1  0.64737711  0.85122934  0.36846686  1
  Ta5+  Ta21  1  0.61588783  0.10626903  0.67629088  1
  Ta5+  Ta22  1  0.33094306  0.10545721  0.36966114  1
  Ta5+  Ta23  1  0.17072428  0.12620617  0.11802146  1
  Ta5+  Ta24  1  0.88334691  0.89459174  0.62758665  1
  Ta5+  Ta25  1  0.17318576  0.38641381  0.13590263  1
  Ta5+  Ta26  1  0.11127795  0.61505127  0.36849314  1
  Ta5+  Ta27  1  0.88446016  0.13886538  0.11948109  1
  Ta5+  Ta28  1  0.33787604  0.13716727  0.12085001  1
  Ta5+  Ta29  1  0.63902151  0.87101798  0.89768136  1
  Ta5+  Ta30  1  0.60143283  0.87575020  0.12729401  1
  Ta5+  Ta31  1  0.63320767  0.11945634  0.12182215  1
  Ta5+  Ta32  1  0.32717221  0.87457376  0.87278530  1
  Ta5+  Ta33  1  0.12034203  0.62942345  0.13267773  1
  Ta5+  Ta34  1  0.38878905  0.89440283  0.12252471  1
  Ta5+  Ta35  1  0.35969152  0.85148796  0.62466850  1
  Ta5+  Ta36  1  0.34369459  0.54270106  0.34580097  1
  Ta5+  Ta37  1  0.60067043  0.39234615  0.64304173  1
  Ta5+  Ta38  1  0.84207484  0.42093094  0.61629079  1
  Ta5+  Ta39  1  0.33811195  0.35588991  0.14086658  1
  Ta5+  Ta40  1  0.90578399  0.87981742  0.87479603  1
  Ta5+  Ta41  1  0.15810300  0.87719403  0.86553801  1
  Ta5+  Ta42  1  0.33901117  0.42807384  0.88569230  1
  Ta5+  Ta43  1  0.16223131  0.12999574  0.36281427  1
  Ta5+  Ta44  1  0.34789456  0.11082985  0.86380320  1
  Ta5+  Ta45  1  0.40383689  0.59089380  0.11872935  1
  Ta5+  Ta46  1  0.85975362  0.08938272  0.61521356  1
  Ta5+  Ta47  1  0.87717487  0.38741916  0.13065401  1
  Ta5+  Ta48  1  0.62466907  0.37857117  0.12931869  1
  Ta5+  Ta49  1  0.15665329  0.38523698  0.36269004  1
  Ta5+  Ta50  1  0.36292748  0.62101378  0.86123570  1
  Ta5+  Ta51  1  0.35677817  0.40642337  0.61937213  1
  Ta5+  Ta52  1  0.11254147  0.88616849  0.11505191  1
  Ta5+  Ta53  1  0.87439462  0.64395382  0.36633504  1
  Ta5+  Ta54  1  0.95309663  0.62951746  0.13005800  1
  Ta5+  Ta55  1  0.66088410  0.04523454  0.35652033  1
  Ta5+  Ta56  1  0.11249262  0.12361627  0.87203691  1
  Ta5+  Ta57  1  0.38987747  0.05350988  0.61800873  1
  Ta5+  Ta58  1  0.87842122  0.89487114  0.36995221  1
  Ta5+  Ta59  1  0.09805941  0.14465746  0.60501708  1
  Ta5+  Ta60  1  0.84426069  0.39675066  0.37259747  1
  Ta5+  Ta61  1  0.17255263  0.91692258  0.62052887  1
  Ta5+  Ta62  1  0.09128372  0.37306000  0.60585747  1
  Ta5+  Ta63  1  0.65937952  0.62618133  0.36086835  1
  Ta5+  Ta64  1  0.90778071  0.63826179  0.88508731  1
  Ta5+  Ta65  1  0.32612306  0.37193385  0.36255488  1
  Ta5+  Ta66  1  0.89131268  0.65063223  0.62101701  1
  Ta5+  Ta67  1  0.85790702  0.39750231  0.87957012  1
  Ta5+  Ta68  1  0.65823457  0.60502357  0.62773682  1
  Ta5+  Ta69  1  0.61592912  0.62257231  0.12807719  1
  Ta5+  Ta70  1  0.15171274  0.60970349  0.87388282  1
  Ta5+  Ta71  1  0.17932912  0.59380293  0.61362103  1
  Ta5+  Ta72  1  0.10676820  0.37425010  0.89583463  1
  Ta5+  Ta73  1  0.87953084  0.13750753  0.37576245  1
  Ta5+  Ta74  1  0.35179528  0.90578244  0.36365751  1
  W6+  W75  1  0.65132284  0.61888750  0.89903179  1
  W6+  W76  1  0.94896932  0.89355864  0.12563762  1
  W6+  W77  1  0.60185462  0.11984364  0.89099599  1
  W6+  W78  1  0.86235044  0.12833810  0.86542117  1
  W6+  W79  1  0.60909063  0.38680391  0.86754414  1
  W6+  W80  1  0.58861060  0.39145751  0.37770543  1
  W6+  W81  1  0.61499618  0.85602180  0.63707377  1
  W6+  W82  1  0.35219041  0.60572897  0.60244437  1
  O2-  O83  1  0.16149855  -0.00245138  0.10934226  1
  O2-  O84  1  0.08183078  0.02616709  0.38145024  1
  O2-  O85  1  0.13343728  0.03288828  0.64039715  1
  O2-  O86  1  0.11794057  0.00319282  0.85607819  1
  O2-  O87  1  0.14735588  0.51151832  0.13195927  1
  O2-  O88  1  0.07798506  0.50232201  0.36508862  1
  O2-  O89  1  0.10180660  0.49410988  0.61160569  1
  O2-  O90  1  0.10147407  0.49617774  0.87425865  1
  O2-  O91  1  0.36310863  0.01205718  0.12085602  1
  O2-  O92  1  0.42030218  0.00161727  0.37107857  1
  O2-  O93  1  0.44850813  -0.05614101  0.60494339  1
  O2-  O94  1  0.37282183  -0.00742028  0.87378093  1
  O2-  O95  1  0.39084770  0.47292835  0.12751761  1
  O2-  O96  1  0.43510342  0.46330375  0.35419355  1
  O2-  O97  1  0.26946000  0.49182433  0.60470417  1
  O2-  O98  1  0.42978571  0.51485945  0.88707236  1
  O2-  O99  1  0.63451125  -0.00418701  0.12745322  1
  O2-  O100  1  0.57905701  -0.04981816  0.35182414  1
  O2-  O101  1  0.61797987  -0.00812674  0.65051529  1
  O2-  O102  1  0.60828337  -0.01513267  0.90004270  1
  O2-  O103  1  0.64192036  0.49932590  0.13093833  1
  O2-  O104  1  0.61293217  0.51994952  0.35087845  1
  O2-  O105  1  0.57400654  0.51485356  0.62791727  1
  O2-  O106  1  0.66502127  0.48860662  0.90807893  1
  O2-  O107  1  0.93432314  0.03249428  0.13364291  1
  O2-  O108  1  0.90192765  0.01599487  0.37816494  1
  O2-  O109  1  0.79489741  -0.02027768  0.60597517  1
  O2-  O110  1  0.89312387  -0.00326888  0.85115451  1
  O2-  O111  1  0.92744848  0.49611632  0.13799833  1
  O2-  O112  1  0.85540068  0.52346643  0.36701244  1
  O2-  O113  1  0.91515566  0.53230556  0.62431171  1
  O2-  O114  1  0.85885605  0.52630171  0.86607625  1
  O2-  O115  1  0.14926674  0.25518084  0.13975540  1
  O2-  O116  1  0.14323774  0.25247977  0.35041233  1
  O2-  O117  1  0.15716530  0.25988877  0.61781839  1
  O2-  O118  1  0.06878574  0.24968271  0.88353730  1
  O2-  O119  1  0.15420430  0.76175887  0.12892036  1
  O2-  O120  1  0.15271247  0.78307904  0.40017866  1
  O2-  O121  1  0.08786904  0.68502229  0.59789042  1
  O2-  O122  1  0.17439545  0.74126814  0.85973540  1
  O2-  O123  1  0.42086613  0.24662429  0.12166782  1
  O2-  O124  1  0.43954489  0.17864674  0.38886381  1
  O2-  O125  1  0.34714677  0.27372970  0.64576144  1
  O2-  O126  1  0.38058193  0.23862051  0.84905664  1
  O2-  O127  1  0.38915415  0.74961120  0.11523909  1
  O2-  O128  1  0.41038589  0.78989418  0.38336973  1
  O2-  O129  1  0.40449992  0.74274435  0.57891507  1
  O2-  O130  1  0.36992541  0.74482229  0.89405116  1
  O2-  O131  1  0.62032568  0.24447713  0.15498082  1
  O2-  O132  1  0.61865463  0.25995777  0.36620801  1
  O2-  O133  1  0.61075863  0.24776997  0.65517929  1
  O2-  O134  1  0.57067563  0.25510967  0.86921440  1
  O2-  O135  1  0.57291142  0.74810613  0.12803902  1
  O2-  O136  1  0.58599495  0.73567588  0.34863373  1
  O2-  O137  1  0.59174130  0.71174033  0.62757600  1
  O2-  O138  1  0.59666731  0.74711323  0.89498214  1
  O2-  O139  1  0.92917499  0.26872291  0.11916552  1
  O2-  O140  1  0.82592162  0.26162890  0.39038177  1
  O2-  O141  1  0.78816431  0.30844027  0.60149993  1
  O2-  O142  1  0.83806608  0.27118183  0.86200247  1
  O2-  O143  1  0.93521297  0.75622852  0.13119351  1
  O2-  O144  1  0.82888473  0.76725582  0.35541739  1
  O2-  O145  1  0.94952953  0.77443117  0.62978705  1
  O2-  O146  1  0.84841066  0.75195916  0.89030888  1
  O2-  O147  1  0.13289976  0.12972337  -0.00506994  1
  O2-  O148  1  0.11809154  0.12056274  0.23892109  1
  O2-  O149  1  0.15207736  0.13677313  0.49392629  1
  O2-  O150  1  0.08141312  0.16174763  0.74055089  1
  O2-  O151  1  0.14584151  0.63407054  -0.00110318  1
  O2-  O152  1  0.15876740  0.64121095  0.26106011  1
  O2-  O153  1  0.17890411  0.61933004  0.47647807  1
  O2-  O154  1  0.16381167  0.61222650  0.73799883  1
  O2-  O155  1  0.35806276  0.13908789  -0.01293351  1
  O2-  O156  1  0.35019141  0.13487936  0.24978216  1
  O2-  O157  1  0.34343989  0.10605248  0.51586153  1
  O2-  O158  1  0.35586070  0.10417099  0.72564768  1
  O2-  O159  1  0.34034958  0.61962705  0.01069674  1
  O2-  O160  1  0.34702872  0.61575309  0.23530455  1
  O2-  O161  1  0.35950627  0.60830175  0.45089462  1
  O2-  O162  1  0.36153287  0.62428881  0.74223872  1
  O2-  O163  1  0.55925540  0.13696220  0.02422657  1
  O2-  O164  1  0.60626022  0.10794002  0.25767393  1
  O2-  O165  1  0.63953124  0.09898251  0.45983116  1
  O2-  O166  1  0.69045694  0.12311411  0.78287329  1
  O2-  O167  1  0.68578026  0.64781110  0.03074228  1
  O2-  O168  1  0.69033758  0.65252483  0.23215830  1
  O2-  O169  1  0.65311147  0.62944967  0.49019370  1
  O2-  O170  1  0.67311953  0.61603595  0.75343137  1
  O2-  O171  1  0.87529334  0.13866474  -0.00089144  1
  O2-  O172  1  0.91329415  0.16451013  0.25580263  1
  O2-  O173  1  0.83614348  0.13137816  0.49899669  1
  O2-  O174  1  0.87558066  0.15803055  0.72162044  1
  O2-  O175  1  0.92821142  0.62568849  0.00510381  1
  O2-  O176  1  0.87917375  0.64231295  0.24014042  1
  O2-  O177  1  0.90286879  0.66722004  0.49590529  1
  O2-  O178  1  0.89632620  0.66675608  0.74963186  1
  O2-  O179  1  0.11937175  0.37637200  0.01720913  1
  O2-  O180  1  0.09890219  0.38342687  0.24697941  1
  O2-  O181  1  0.11006681  0.36928758  0.48246548  1
  O2-  O182  1  0.10728607  0.35713473  0.74423594  1
  O2-  O183  1  0.13636221  0.86356243  -0.01186832  1
  O2-  O184  1  0.12155214  0.89585198  0.24770252  1
  O2-  O185  1  0.10463156  0.89908554  0.51806323  1
  O2-  O186  1  0.13111117  0.86738799  0.72529711  1
  O2-  O187  1  0.36448100  0.36925166  -0.00591241  1
  O2-  O188  1  0.37900490  0.31612875  0.26060114  1
  O2-  O189  1  0.34908278  0.36300179  0.49416778  1
  O2-  O190  1  0.34119085  0.40474092  0.75471099  1
  O2-  O191  1  0.32569621  0.87454150  0.00961207  1
  O2-  O192  1  0.33093703  0.87301507  0.23925805  1
  O2-  O193  1  0.32054476  0.88232781  0.48515183  1
  O2-  O194  1  0.35984366  0.84761244  0.74710871  1
  O2-  O195  1  0.57160164  0.36450945  0.01784413  1
  O2-  O196  1  0.56080434  0.37454527  0.23534974  1
  O2-  O197  1  0.62928992  0.36738972  0.51930223  1
  O2-  O198  1  0.68229215  0.38537499  0.74376700  1
  O2-  O199  1  0.67272232  0.85495807  0.02338065  1
  O2-  O200  1  0.67463507  0.84704732  0.23494470  1
  O2-  O201  1  0.61192916  0.83694764  0.49045827  1
  O2-  O202  1  0.66335383  0.85501409  0.77280825  1
  O2-  O203  1  0.84847731  0.39457506  0.00446758  1
  O2-  O204  1  0.90403358  0.36729972  0.26574645  1
  O2-  O205  1  0.87907080  0.40676569  0.49250114  1
  O2-  O206  1  0.86156685  0.38973744  0.74060726  1
  O2-  O207  1  0.92504145  0.88678251  -0.00592679  1
  O2-  O208  1  0.87072886  0.88905922  0.24450098  1
  O2-  O209  1  0.88669384  0.86455978  0.50114589  1
  O2-  O210  1  0.85011521  0.85706837  0.74504943  1
  O2-  O211  1  0.01384641  -0.15830717  -0.16235557  1
  O2-  O212  1  -0.00054048  -0.13316046  0.37305590  1
  O2-  O213  1  -0.01994568  0.14505031  0.58125554  1
  O2-  O214  1  -0.04892402  -0.00747886  0.64542311  1
  O2-  O215  1  0.02658379  0.64885757  -0.14338550  1
  O2-  O216  1  0.00370848  0.67588328  0.36793947  1
  O2-  O217  1  -0.02401832  0.34407876  0.62249748  1
  O2-  O218  1  -0.02370184  0.38369618  0.87403050  1
  O2-  O219  1  0.22943358  0.15475202  -0.16014701  1
  O2-  O220  1  0.24252951  -0.01722790  0.36485257  1
  O2-  O221  1  0.28763625  -0.03169389  0.63246578  1
  O2-  O222  1  0.24003814  -0.19599250  0.60494801  1
  O2-  O223  1  0.22836638  0.35691662  -0.12508168  1
  O2-  O224  1  0.26236730  0.42351194  0.24132104  1
  O2-  O225  1  0.24476454  0.47943013  0.39892882  1
  O2-  O226  1  0.26269498  0.53712606  0.87472034  1
  O2-  O227  1  0.49663399  -0.11262616  0.04265926  1
  O2-  O228  1  0.49423564  -0.11936721  0.20615629  1
  O2-  O229  1  0.49462700  0.12700907  0.60632093  1
  O2-  O230  1  0.53045034  0.11441217  0.77119965  1
  O2-  O231  1  0.50997012  0.60797122  0.04137467  1
  O2-  O232  1  0.50711909  0.60872125  0.20491558  1
  O2-  O233  1  0.48023048  0.36248562  0.60781914  1
  O2-  O234  1  0.52787885  0.38590528  0.76278639  1
  O2-  O235  1  0.76151539  0.14203395  0.14493894  1
  O2-  O236  1  0.76452131  0.11243404  0.32533182  1
  O2-  O237  1  0.74375286  -0.06186663  0.38435036  1
  O2-  O238  1  0.73276935  0.13920650  0.62364298  1
  O2-  O239  1  0.75179271  0.35638555  0.15392937  1
  O2-  O240  1  0.72766002  0.38991355  0.34235034  1
  O2-  O241  1  0.77225759  0.67770075  0.62271231  1
  O2-  O242  1  0.74444242  0.49434774  0.61253990  1
