# generated using pymatgen
data_Gd19Ta56(WO20)8
_symmetry_space_group_name_H-M   'P 1'
_cell_length_a   15.66346905
_cell_length_b   15.52627452
_cell_length_c   15.21599024
_cell_angle_alpha   90.04156108
_cell_angle_beta   89.91063980
_cell_angle_gamma   90.12727704
_symmetry_Int_Tables_number   1
_chemical_formula_structural   Gd19Ta56(WO20)8
_chemical_formula_sum   'Gd19 Ta56 W8 O160'
_cell_volume   3700.44302704
_cell_formula_units_Z   1
loop_
 _symmetry_equiv_pos_site_id
 _symmetry_equiv_pos_as_xyz
  1  'x, y, z'
loop_
 _atom_type_symbol
 _atom_type_oxidation_number
  Gd3+  3.0
  Ta5+  5.0
  W6+  6.0
  O2-  -2.0
loop_
 _atom_site_type_symbol
 _atom_site_label
 _atom_site_symmetry_multiplicity
 _atom_site_fract_x
 _atom_site_fract_y
 _atom_site_fract_z
 _atom_site_occupancy
  Gd3+  Gd0  1  0.49062900  0.74393533  0.73884002  1
  Gd3+  Gd1  1  0.75194170  0.23706886  0.24799043  1
  Gd3+  Gd2  1  0.25211690  0.25020795  0.51127364  1
  Gd3+  Gd3  1  0.78332152  0.25250356  0.00482296  1
  Gd3+  Gd4  1  0.25084272  0.73311264  0.25528792  1
  Gd3+  Gd5  1  0.24462161  0.24645302  0.24400262  1
  Gd3+  Gd6  1  0.73526939  0.25098343  0.50018148  1
  Gd3+  Gd7  1  0.52946146  0.74477515  0.27164457  1
  Gd3+  Gd8  1  0.24959697  0.24498242  0.77133998  1
  Gd3+  Gd9  1  0.00332422  0.75838201  0.24936064  1
  Gd3+  Gd10  1  0.02101922  0.74873868  0.47352450  1
  Gd3+  Gd11  1  0.00863488  0.25658880  0.24323206  1
  Gd3+  Gd12  1  0.03781848  0.25611046  -0.01583600  1
  Gd3+  Gd13  1  0.75279237  0.25277485  0.76044225  1
  Gd3+  Gd14  1  0.49084013  0.24891085  0.48732108  1
  Gd3+  Gd15  1  0.50013863  0.74268313  0.00839045  1
  Gd3+  Gd16  1  0.76974942  0.75221203  0.74548298  1
  Gd3+  Gd17  1  0.00903769  0.26163217  0.49357595  1
  Gd3+  Gd18  1  0.23300129  0.75967725  -0.00988076  1
  Ta5+  Ta19  1  0.87991208  0.63852511  0.10713738  1
  Ta5+  Ta20  1  0.85804165  0.62998715  0.59872381  1
  Ta5+  Ta21  1  0.65854008  0.62264430  0.43215368  1
  Ta5+  Ta22  1  0.11292223  0.12057400  0.63004469  1
  Ta5+  Ta23  1  0.59676648  0.12575354  0.63889263  1
  Ta5+  Ta24  1  0.11327462  0.87593199  0.63024551  1
  Ta5+  Ta25  1  0.10554009  0.11022642  0.37365093  1
  Ta5+  Ta26  1  0.36864961  0.61204781  0.13470801  1
  Ta5+  Ta27  1  0.11888172  0.10896636  0.87371618  1
  Ta5+  Ta28  1  0.63099989  0.88719239  0.64408313  1
  Ta5+  Ta29  1  0.11075447  0.38345539  0.65023653  1
  Ta5+  Ta30  1  0.09316287  0.12173983  0.12111549  1
  Ta5+  Ta31  1  0.61999749  0.37148094  0.90260847  1
  Ta5+  Ta32  1  0.61751936  0.12581831  0.88932939  1
  Ta5+  Ta33  1  0.88761270  0.39825907  0.86932682  1
  Ta5+  Ta34  1  0.11991517  0.62817329  0.62930170  1
  Ta5+  Ta35  1  0.88555861  0.88011315  0.10424648  1
  Ta5+  Ta36  1  0.64274147  0.87218479  0.12299592  1
  Ta5+  Ta37  1  0.92297177  0.64515265  0.85592581  1
  Ta5+  Ta38  1  0.12665655  0.61456332  0.12806647  1
  Ta5+  Ta39  1  0.90379975  0.11300713  0.36877416  1
  Ta5+  Ta40  1  0.38688959  0.37786208  0.14498988  1
  Ta5+  Ta41  1  0.08169509  0.86399132  0.88383187  1
  Ta5+  Ta42  1  0.38598796  0.87306516  0.38977563  1
  Ta5+  Ta43  1  0.08565706  0.64270523  0.87605366  1
  Ta5+  Ta44  1  0.13641966  0.38586045  0.11432723  1
  Ta5+  Ta45  1  0.57256707  0.88220161  0.87750616  1
  Ta5+  Ta46  1  0.35554206  0.88080929  0.13983635  1
  Ta5+  Ta47  1  0.14173081  0.88437890  0.13053481  1
  Ta5+  Ta48  1  0.40544242  0.88424508  0.89336883  1
  Ta5+  Ta49  1  0.61202166  0.37011154  0.10970621  1
  Ta5+  Ta50  1  0.11890972  0.39749957  0.85621944  1
  Ta5+  Ta51  1  0.15335669  0.88436213  0.36357284  1
  Ta5+  Ta52  1  0.66150971  0.86861493  0.42399657  1
  Ta5+  Ta53  1  0.38211756  0.12894788  0.90086736  1
  Ta5+  Ta54  1  0.37635486  0.37862018  0.64774199  1
  Ta5+  Ta55  1  0.92495140  0.12164996  0.11439005  1
  Ta5+  Ta56  1  0.61128588  0.37283314  0.64087577  1
  Ta5+  Ta57  1  0.63760991  0.61443526  0.12165578  1
  Ta5+  Ta58  1  0.87516849  0.12492610  0.61757197  1
  Ta5+  Ta59  1  0.15468315  0.56677128  0.38369747  1
  Ta5+  Ta60  1  0.86884410  0.38405851  0.61561802  1
  Ta5+  Ta61  1  0.13292665  0.37796285  0.37746456  1
  Ta5+  Ta62  1  0.39230862  0.12102269  0.64472442  1
  Ta5+  Ta63  1  0.38558378  0.62778104  0.39294174  1
  Ta5+  Ta64  1  0.60935409  0.38492027  0.36488159  1
  Ta5+  Ta65  1  0.92189644  0.86856830  0.84977423  1
  Ta5+  Ta66  1  0.38479354  0.12160335  0.14289887  1
  Ta5+  Ta67  1  0.85501834  0.62798219  0.36496491  1
  Ta5+  Ta68  1  0.85746251  0.87583886  0.36879850  1
  Ta5+  Ta69  1  0.85870753  0.87888309  0.60068289  1
  Ta5+  Ta70  1  0.36135053  0.39521886  0.38157881  1
  Ta5+  Ta71  1  0.61457022  0.61676860  0.86510632  1
  Ta5+  Ta72  1  0.35329881  0.87770016  0.63858992  1
  Ta5+  Ta73  1  0.62581612  0.11545248  0.12026986  1
  Ta5+  Ta74  1  0.88640294  0.11216097  0.86540257  1
  W6+  W75  1  0.36145667  0.62170822  0.89495976  1
  W6+  W76  1  0.64692347  0.61312338  0.65870771  1
  W6+  W77  1  0.35824280  0.12178414  0.37434671  1
  W6+  W78  1  0.35974686  0.37410381  0.90365839  1
  W6+  W79  1  0.63411553  0.11555358  0.37332402  1
  W6+  W80  1  0.87763809  0.37927654  0.35081400  1
  W6+  W81  1  0.36122891  0.62143254  0.64440716  1
  W6+  W82  1  0.90450404  0.39241172  0.12663198  1
  O2-  O83  1  0.11448540  -0.00028699  0.11935205  1
  O2-  O84  1  0.17329672  0.00621538  0.37414056  1
  O2-  O85  1  0.09474981  -0.00147314  0.61472824  1
  O2-  O86  1  0.10629902  -0.00914130  0.88824917  1
  O2-  O87  1  0.08967784  0.49800297  0.11644508  1
  O2-  O88  1  0.06692275  0.48192378  0.39970819  1
  O2-  O89  1  0.11888956  0.50239087  0.61757593  1
  O2-  O90  1  0.11368382  0.51535961  0.87567315  1
  O2-  O91  1  0.39194275  -0.00481015  0.15451276  1
  O2-  O92  1  0.39150094  -0.01244762  0.36360230  1
  O2-  O93  1  0.34166865  0.01034152  0.63609038  1
  O2-  O94  1  0.39030578  0.00804198  0.88962880  1
  O2-  O95  1  0.41362664  0.50080858  0.15764540  1
  O2-  O96  1  0.41226132  0.51008916  0.36842746  1
  O2-  O97  1  0.32729925  0.48417702  0.64559715  1
  O2-  O98  1  0.35669170  0.49366876  0.88439094  1
  O2-  O99  1  0.62597130  -0.00546938  0.10918690  1
  O2-  O100  1  0.62884943  -0.02332934  0.39260373  1
  O2-  O101  1  0.64644722  0.01403525  0.62337601  1
  O2-  O102  1  0.60501194  0.00806983  0.88531988  1
  O2-  O103  1  0.62101542  0.49265032  0.10580404  1
  O2-  O104  1  0.63318464  0.50359375  0.39344569  1
  O2-  O105  1  0.67151175  0.47192609  0.63805570  1
  O2-  O106  1  0.62319501  0.49078012  0.88503783  1
  O2-  O107  1  0.90978779  -0.00458238  0.12732905  1
  O2-  O108  1  0.85466333  -0.00075390  0.37886628  1
  O2-  O109  1  0.87102563  0.00496838  0.60606681  1
  O2-  O110  1  0.89790719  -0.00599535  0.84701199  1
  O2-  O111  1  0.90765155  0.52527619  0.11978772  1
  O2-  O112  1  0.85788372  0.51081567  0.36327634  1
  O2-  O113  1  0.86260752  0.50321153  0.60939006  1
  O2-  O114  1  0.89972141  0.51535819  0.85613108  1
  O2-  O115  1  0.11301095  0.25905190  0.12505868  1
  O2-  O116  1  0.10222787  0.24900645  0.37321057  1
  O2-  O117  1  0.13722141  0.25345514  0.64341116  1
  O2-  O118  1  0.13100383  0.25611429  0.85915949  1
  O2-  O119  1  0.13403405  0.74569070  0.16106099  1
  O2-  O120  1  0.11498129  0.75849232  0.35429789  1
  O2-  O121  1  0.07630498  0.75396764  0.61015504  1
  O2-  O122  1  0.15047819  0.75211243  0.86435003  1
  O2-  O123  1  0.35700635  0.24898161  0.14856940  1
  O2-  O124  1  0.31840493  0.26351265  0.37700065  1
  O2-  O125  1  0.32288254  0.25390093  0.63828301  1
  O2-  O126  1  0.32471624  0.24407213  0.90299397  1
  O2-  O127  1  0.32965544  0.74458346  0.11934097  1
  O2-  O128  1  0.43440725  0.74674535  0.39480101  1
  O2-  O129  1  0.39138052  0.75988512  0.62856726  1
  O2-  O130  1  0.36213981  0.76069026  0.91871605  1
  O2-  O131  1  0.66374945  0.24920377  0.12416437  1
  O2-  O132  1  0.66248022  0.26469314  0.36638137  1
  O2-  O133  1  0.66775690  0.25372167  0.63431838  1
  O2-  O134  1  0.67647648  0.25081106  0.89339901  1
  O2-  O135  1  0.59939496  0.74340097  0.12533332  1
  O2-  O136  1  0.61852062  0.74313847  0.39560946  1
  O2-  O137  1  0.63072531  0.75720320  0.67400723  1
  O2-  O138  1  0.57653037  0.74546629  0.86751109  1
  O2-  O139  1  0.91717981  0.25572618  0.10697783  1
  O2-  O140  1  0.92332725  0.24629083  0.37080637  1
  O2-  O141  1  0.84144897  0.25316298  0.62666749  1
  O2-  O142  1  0.85621325  0.25197922  0.87110527  1
  O2-  O143  1  0.93174077  0.75904406  0.11928287  1
  O2-  O144  1  0.90786320  0.75447985  0.37503568  1
  O2-  O145  1  0.82737339  0.75270070  0.59637255  1
  O2-  O146  1  0.85973761  0.75827899  0.86011313  1
  O2-  O147  1  0.13501754  0.13767689  -0.00447524  1
  O2-  O148  1  0.13525336  0.14391123  0.25098545  1
  O2-  O149  1  0.15912940  0.13529425  0.51033895  1
  O2-  O150  1  0.16436376  0.11253959  0.74379419  1
  O2-  O151  1  0.12129891  0.64915479  0.00784885  1
  O2-  O152  1  0.11828272  0.60213187  0.27065528  1
  O2-  O153  1  0.11968052  0.62917300  0.48670612  1
  O2-  O154  1  0.07687741  0.63260186  0.74372048  1
  O2-  O155  1  0.35241740  0.11597183  0.02424514  1
  O2-  O156  1  0.31073697  0.11730640  0.24239309  1
  O2-  O157  1  0.38320565  0.14789082  0.51773610  1
  O2-  O158  1  0.36403774  0.14185317  0.76773176  1
  O2-  O159  1  0.41998004  0.61918482  0.02105203  1
  O2-  O160  1  0.39646936  0.65690828  0.25317203  1
  O2-  O161  1  0.37232871  0.61370421  0.51019268  1
  O2-  O162  1  0.37229936  0.65818608  0.77213079  1
  O2-  O163  1  0.67966446  0.12786891  0.00302023  1
  O2-  O164  1  0.67235874  0.11195111  0.23416291  1
  O2-  O165  1  0.60344436  0.15189179  0.51261891  1
  O2-  O166  1  0.63759084  0.14351436  0.76217297  1
  O2-  O167  1  0.60242151  0.63204230  -0.00260390  1
  O2-  O168  1  0.58285885  0.61500722  0.23056786  1
  O2-  O169  1  0.58854736  0.62132971  0.53027657  1
  O2-  O170  1  0.54391891  0.60678660  0.76337352  1
  O2-  O171  1  0.87610791  0.11901353  -0.00912057  1
  O2-  O172  1  0.87151857  0.14253005  0.24522891  1
  O2-  O173  1  0.83957643  0.14309551  0.49399885  1
  O2-  O174  1  0.83194010  0.12683668  0.73956965  1
  O2-  O175  1  0.89608037  0.64572976  -0.01404463  1
  O2-  O176  1  0.90424011  0.64561988  0.24828332  1
  O2-  O177  1  0.92654677  0.63366253  0.48882511  1
  O2-  O178  1  0.88948236  0.64733894  0.71993497  1
  O2-  O179  1  0.14295316  0.37369585  -0.01293475  1
  O2-  O180  1  0.15056148  0.37598938  0.24939049  1
  O2-  O181  1  0.13914338  0.35105284  0.51039959  1
  O2-  O182  1  0.19747120  0.38536590  0.74698184  1
  O2-  O183  1  0.09972168  0.84556776  0.01666426  1
  O2-  O184  1  0.08262047  0.89018337  0.25689214  1
  O2-  O185  1  0.11125740  0.87501111  0.48128329  1
  O2-  O186  1  0.09645350  0.87342731  0.74896174  1
  O2-  O187  1  0.33717732  0.38871758  0.03648748  1
  O2-  O188  1  0.32939908  0.38470401  0.25794212  1
  O2-  O189  1  0.37495508  0.35779143  0.51098120  1
  O2-  O190  1  0.37742726  0.34740022  0.76720919  1
  O2-  O191  1  0.42443399  0.87242350  0.03448096  1
  O2-  O192  1  0.40379271  0.83911787  0.25380766  1
  O2-  O193  1  0.39138269  0.88771592  0.51296590  1
  O2-  O194  1  0.37994498  0.87261707  0.76079434  1
  O2-  O195  1  0.69517330  0.37185663  0.00837928  1
  O2-  O196  1  0.63351905  0.38290252  0.24404452  1
  O2-  O197  1  0.60731110  0.34955376  0.50624705  1
  O2-  O198  1  0.61833970  0.34993736  0.76832884  1
  O2-  O199  1  0.60294644  0.85841508  0.00427981  1
  O2-  O200  1  0.59081902  0.87033801  0.23409748  1
  O2-  O201  1  0.58719608  0.86157662  0.53076983  1
  O2-  O202  1  0.55896606  0.89508066  0.74219366  1
  O2-  O203  1  0.85630670  0.38517516  -0.01006049  1
  O2-  O204  1  0.81523162  0.35972368  0.22324428  1
  O2-  O205  1  0.83015157  0.36351846  0.49568368  1
  O2-  O206  1  0.83747373  0.37837389  0.74620287  1
  O2-  O207  1  0.89887081  0.87728004  -0.01545853  1
  O2-  O208  1  0.90269718  0.87056669  0.25248126  1
  O2-  O209  1  0.92651724  0.87017434  0.49185551  1
  O2-  O210  1  0.91221092  0.85952286  0.71169163  1
  O2-  O211  1  0.00181979  0.14934320  -0.15282518  1
  O2-  O212  1  0.00588351  0.06525181  0.31313478  1
  O2-  O213  1  0.00371225  0.11835372  0.46125612  1
  O2-  O214  1  -0.00622735  0.15294927  0.63715110  1
  O2-  O215  1  -0.00008861  0.36691328  -0.09977950  1
  O2-  O216  1  -0.03181578  0.39013590  0.24852866  1
  O2-  O217  1  -0.01287918  0.36393893  0.59643654  1
  O2-  O218  1  0.03800303  0.39622936  0.74856160  1
  O2-  O219  1  0.25254630  -0.11011971  0.06085502  1
  O2-  O220  1  0.24088325  -0.12121969  0.22242680  1
  O2-  O221  1  0.26856760  -0.16246137  0.38421593  1
  O2-  O222  1  0.23431808  -0.13631163  0.62692903  1
  O2-  O223  1  0.24841342  0.59935702  0.15966611  1
  O2-  O224  1  0.26546421  0.63647207  0.36940808  1
  O2-  O225  1  0.23655553  0.46367931  0.39408333  1
  O2-  O226  1  0.23028834  0.65363134  0.64250100  1
  O2-  O227  1  0.50205178  0.16080415  -0.09520928  1
  O2-  O228  1  0.50824265  0.14039006  0.12900988  1
  O2-  O229  1  0.49659355  0.21782979  0.63366441  1
  O2-  O230  1  0.49650799  0.06165485  0.66926805  1
  O2-  O231  1  0.53756799  0.35145985  -0.00951036  1
  O2-  O232  1  0.50123314  0.34106148  0.15381259  1
  O2-  O233  1  0.48895178  0.35579781  0.37079555  1
  O2-  O234  1  0.49478692  0.40471618  0.63783953  1
  O2-  O235  1  0.76299305  -0.13906565  0.12299699  1
  O2-  O236  1  0.74755355  -0.15399487  0.32983452  1
  O2-  O237  1  0.76190879  -0.11622192  0.49288145  1
  O2-  O238  1  0.74884448  -0.11407412  0.67484507  1
  O2-  O239  1  0.75706410  0.63773314  0.12209444  1
  O2-  O240  1  0.74332709  0.64856381  0.32871413  1
  O2-  O241  1  0.76451822  0.61819034  0.49276995  1
  O2-  O242  1  0.71172951  0.62681145  0.79299820  1
