# generated using pymatgen
data_Gd19Ta56(WO20)8
_symmetry_space_group_name_H-M   'P 1'
_cell_length_a   15.63391695
_cell_length_b   15.56520028
_cell_length_c   15.07046707
_cell_angle_alpha   90.04727501
_cell_angle_beta   90.21322682
_cell_angle_gamma   89.86750314
_symmetry_Int_Tables_number   1
_chemical_formula_structural   Gd19Ta56(WO20)8
_chemical_formula_sum   'Gd19 Ta56 W8 O160'
_cell_volume   3667.28711861
_cell_formula_units_Z   1
loop_
 _symmetry_equiv_pos_site_id
 _symmetry_equiv_pos_as_xyz
  1  'x, y, z'
loop_
 _atom_type_symbol
 _atom_type_oxidation_number
  Gd3+  3.0
  Ta5+  5.0
  W6+  6.0
  O2-  -2.0
loop_
 _atom_site_type_symbol
 _atom_site_label
 _atom_site_symmetry_multiplicity
 _atom_site_fract_x
 _atom_site_fract_y
 _atom_site_fract_z
 _atom_site_occupancy
  Gd3+  Gd0  1  0.73314385  0.74723899  0.75017277  1
  Gd3+  Gd1  1  0.24302065  0.23693096  0.01379453  1
  Gd3+  Gd2  1  0.75209492  0.26022652  0.26105756  1
  Gd3+  Gd3  1  0.48998949  0.75525696  0.23404472  1
  Gd3+  Gd4  1  0.22914934  0.76190720  0.27169756  1
  Gd3+  Gd5  1  0.76774805  0.25669599  0.76803679  1
  Gd3+  Gd6  1  0.23723359  0.24356655  0.25407648  1
  Gd3+  Gd7  1  0.01776232  0.74779024  0.71499570  1
  Gd3+  Gd8  1  0.46547942  0.23948558  0.72899801  1
  Gd3+  Gd9  1  -0.00379910  0.75900482  0.25993473  1
  Gd3+  Gd10  1  0.48639292  0.73750076  -0.00205375  1
  Gd3+  Gd11  1  0.47882460  0.74900254  0.49694730  1
  Gd3+  Gd12  1  0.05402511  0.24834234  0.74227111  1
  Gd3+  Gd13  1  0.23048081  0.76989869  0.52597639  1
  Gd3+  Gd14  1  0.00450685  0.74459813  0.00582780  1
  Gd3+  Gd15  1  0.01946501  0.22035660  0.48816799  1
  Gd3+  Gd16  1  0.74913218  0.26225506  0.01328000  1
  Gd3+  Gd17  1  0.50156561  0.74549183  0.75468409  1
  Gd3+  Gd18  1  0.73615353  0.74451778  -0.00577734  1
  Ta5+  Ta19  1  0.10129391  0.38367400  0.11966063  1
  Ta5+  Ta20  1  0.14792350  0.94088557  0.64169778  1
  Ta5+  Ta21  1  0.88648630  0.87765629  0.40264041  1
  Ta5+  Ta22  1  0.36267356  0.36678765  0.87372820  1
  Ta5+  Ta23  1  0.61064323  0.14439270  0.87571110  1
  Ta5+  Ta24  1  0.89972934  0.12822571  0.91683383  1
  Ta5+  Ta25  1  0.86149673  0.88001249  0.13604507  1
  Ta5+  Ta26  1  0.88301647  0.12523240  0.13616013  1
  Ta5+  Ta27  1  0.36318348  0.60876066  0.32484731  1
  Ta5+  Ta28  1  0.87564957  0.62446102  0.14261916  1
  Ta5+  Ta29  1  0.39847515  0.11613883  0.12281643  1
  Ta5+  Ta30  1  0.59527576  0.12868692  0.13201819  1
  Ta5+  Ta31  1  0.12690985  0.87272758  0.86744774  1
  Ta5+  Ta32  1  0.66243601  0.56503591  0.86717844  1
  Ta5+  Ta33  1  0.89639112  0.38052827  0.13740290  1
  Ta5+  Ta34  1  0.63872173  0.13992191  0.61758718  1
  Ta5+  Ta35  1  0.13496163  0.11794314  0.87606846  1
  Ta5+  Ta36  1  0.62581922  0.13243473  0.38963454  1
  Ta5+  Ta37  1  0.59438401  0.38215317  0.87725683  1
  Ta5+  Ta38  1  0.33264030  0.12076263  0.60582090  1
  Ta5+  Ta39  1  0.35733518  0.91939953  0.63246017  1
  Ta5+  Ta40  1  0.88526373  0.37159101  0.64546449  1
  Ta5+  Ta41  1  0.54519339  0.90826509  0.37465231  1
  Ta5+  Ta42  1  0.35134695  0.61006477  0.87359165  1
  Ta5+  Ta43  1  0.34346756  0.36742677  0.61492723  1
  Ta5+  Ta44  1  0.86884369  0.61343098  0.87796764  1
  Ta5+  Ta45  1  0.39045550  0.36569177  0.36804136  1
  Ta5+  Ta46  1  0.62198042  0.61857135  0.62631416  1
  Ta5+  Ta47  1  0.12748930  0.89555074  0.38925358  1
  Ta5+  Ta48  1  0.17880884  0.36723644  0.60923909  1
  Ta5+  Ta49  1  0.11197582  0.88250770  0.12535309  1
  Ta5+  Ta50  1  0.36430126  0.38071873  0.12760959  1
  Ta5+  Ta51  1  0.35143099  0.87898610  0.11365850  1
  Ta5+  Ta52  1  0.36146940  0.11958239  0.86545198  1
  Ta5+  Ta53  1  0.39978825  0.11394417  0.37339770  1
  Ta5+  Ta54  1  0.36638746  0.59440813  0.65940954  1
  Ta5+  Ta55  1  0.11232407  0.37980888  0.36343059  1
  Ta5+  Ta56  1  0.64852886  0.90380723  0.87587618  1
  Ta5+  Ta57  1  0.62453967  0.90481854  0.12146094  1
  Ta5+  Ta58  1  0.87619470  0.37923451  0.39347814  1
  Ta5+  Ta59  1  0.60629681  0.38043191  0.13321204  1
  Ta5+  Ta60  1  0.15603984  0.62613757  0.13407426  1
  Ta5+  Ta61  1  0.86162184  0.88731424  0.88116753  1
  Ta5+  Ta62  1  0.16550291  0.60392900  0.63270675  1
  Ta5+  Ta63  1  0.86296185  0.61601374  0.64882016  1
  Ta5+  Ta64  1  0.09186598  0.62258443  0.39073463  1
  Ta5+  Ta65  1  0.91708529  0.37660588  0.91452365  1
  Ta5+  Ta66  1  0.13342819  0.62151151  0.87576481  1
  Ta5+  Ta67  1  0.85254237  0.89081966  0.65118391  1
  Ta5+  Ta68  1  0.32093993  0.62409593  0.11459316  1
  Ta5+  Ta69  1  0.92564302  0.62077183  0.40255788  1
  Ta5+  Ta70  1  0.36226601  0.87405704  0.86727755  1
  Ta5+  Ta71  1  0.62902449  0.62590408  0.12062847  1
  Ta5+  Ta72  1  0.61464548  0.89459880  0.62750964  1
  Ta5+  Ta73  1  0.15282052  0.37573218  0.87247181  1
  Ta5+  Ta74  1  0.60343978  0.63709157  0.37457978  1
  W6+  W75  1  0.87707018  0.13801355  0.64523806  1
  W6+  W76  1  0.08630749  0.12285625  0.11883270  1
  W6+  W77  1  0.17024914  0.12177938  0.61417001  1
  W6+  W78  1  0.37479882  0.86294869  0.37978461  1
  W6+  W79  1  0.14067221  0.10432043  0.35622510  1
  W6+  W80  1  0.84853447  0.11660476  0.38709869  1
  W6+  W81  1  0.63673762  0.38818810  0.38924719  1
  W6+  W82  1  0.59108088  0.36928306  0.61947997  1
  O2-  O83  1  0.06396905  -0.01065816  0.12724443  1
  O2-  O84  1  0.20233724  -0.01774764  0.36082887  1
  O2-  O85  1  0.06883326  0.02810693  0.65415434  1
  O2-  O86  1  0.12629774  -0.00730640  0.86606623  1
  O2-  O87  1  0.12498492  0.50318277  0.13248831  1
  O2-  O88  1  0.09113505  0.49939893  0.35477116  1
  O2-  O89  1  0.15062559  0.48385409  0.63644563  1
  O2-  O90  1  0.14479906  0.50219775  0.86976871  1
  O2-  O91  1  0.34247580  -0.00114005  0.11058260  1
  O2-  O92  1  0.44564309  -0.01198121  0.37456393  1
  O2-  O93  1  0.42114834  0.01821656  0.60735118  1
  O2-  O94  1  0.35940619  -0.00554281  0.86899996  1
  O2-  O95  1  0.33786141  0.49538047  0.11777231  1
  O2-  O96  1  0.36451854  0.49391279  0.35887544  1
  O2-  O97  1  0.39293926  0.48919260  0.61317568  1
  O2-  O98  1  0.33888730  0.49027488  0.87778934  1
  O2-  O99  1  0.66682012  0.01549987  0.11987236  1
  O2-  O100  1  0.61821696  0.00470339  0.38844526  1
  O2-  O101  1  0.62510907  0.01381089  0.62853777  1
  O2-  O102  1  0.64713350  0.02656209  0.87255222  1
  O2-  O103  1  0.61688669  0.50602147  0.12171860  1
  O2-  O104  1  0.62601905  0.52312120  0.37960637  1
  O2-  O105  1  0.59217087  0.50621818  0.63264928  1
  O2-  O106  1  0.70368941  0.45191562  0.84790641  1
  O2-  O107  1  0.86925631  -0.00147608  0.12450213  1
  O2-  O108  1  0.82989305  -0.01818009  0.39870997  1
  O2-  O109  1  0.84470056  0.00616259  0.65725108  1
  O2-  O110  1  0.89176706  0.00318485  0.89570145  1
  O2-  O111  1  0.88498933  0.50400879  0.13347434  1
  O2-  O112  1  0.88588964  0.50129163  0.39300858  1
  O2-  O113  1  0.87369644  0.49574022  0.65916326  1
  O2-  O114  1  0.90829706  0.49888498  0.88975935  1
  O2-  O115  1  0.13748524  0.25815224  0.12091339  1
  O2-  O116  1  0.11752256  0.24573156  0.35933440  1
  O2-  O117  1  0.11428216  0.25192959  0.60258293  1
  O2-  O118  1  0.15350779  0.24686718  0.89017091  1
  O2-  O119  1  0.08807331  0.74933464  0.12693702  1
  O2-  O120  1  0.13822531  0.75890296  0.40362626  1
  O2-  O121  1  0.12627933  0.72660576  0.61924110  1
  O2-  O122  1  0.06873680  0.74803092  0.86383175  1
  O2-  O123  1  0.33074792  0.23891430  0.13747062  1
  O2-  O124  1  0.36347425  0.23835787  0.35528596  1
  O2-  O125  1  0.36748413  0.23971145  0.60932206  1
  O2-  O126  1  0.33231709  0.24414481  0.86603974  1
  O2-  O127  1  0.38495261  0.74528469  0.10766557  1
  O2-  O128  1  0.32318256  0.72117828  0.38347696  1
  O2-  O129  1  0.44487822  0.68936294  0.62778725  1
  O2-  O130  1  0.40609376  0.74561313  0.86895121  1
  O2-  O131  1  0.65788066  0.25569882  0.13538614  1
  O2-  O132  1  0.65814415  0.25128584  0.37647117  1
  O2-  O133  1  0.55995595  0.23406439  0.61229795  1
  O2-  O134  1  0.67069997  0.26323567  0.88035068  1
  O2-  O135  1  0.58720861  0.75926420  0.11355785  1
  O2-  O136  1  0.57121076  0.77716746  0.36729822  1
  O2-  O137  1  0.61229218  0.75536397  0.65064571  1
  O2-  O138  1  0.64511641  0.77340186  0.87498983  1
  O2-  O139  1  0.85367528  0.25672941  0.12847379  1
  O2-  O140  1  0.85197952  0.25481139  0.37617553  1
  O2-  O141  1  0.94808735  0.26326271  0.63785983  1
  O2-  O142  1  0.87496873  0.25755569  0.92010264  1
  O2-  O143  1  0.90389999  0.75362874  0.13615560  1
  O2-  O144  1  0.90676218  0.74969199  0.39396632  1
  O2-  O145  1  0.85703642  0.74880732  0.66829302  1
  O2-  O146  1  0.83456663  0.74859828  0.87811113  1
  O2-  O147  1  0.16872079  0.11020957  0.00025453  1
  O2-  O148  1  0.17413685  0.11630422  0.22618822  1
  O2-  O149  1  0.11740020  0.11310210  0.48376998  1
  O2-  O150  1  0.16514395  0.14314569  0.75539715  1
  O2-  O151  1  0.10017773  0.62910531  -0.00007090  1
  O2-  O152  1  0.11086760  0.66000560  0.26150811  1
  O2-  O153  1  0.12108421  0.59949200  0.51084553  1
  O2-  O154  1  0.10171770  0.62589705  0.74861689  1
  O2-  O155  1  0.36521123  0.13324088  0.00018186  1
  O2-  O156  1  0.37176568  0.10145809  0.24938918  1
  O2-  O157  1  0.33148300  0.10253120  0.47265101  1
  O2-  O158  1  0.36051922  0.12348759  0.73701081  1
  O2-  O159  1  0.40100465  0.61847449  -0.01040364  1
  O2-  O160  1  0.42701220  0.62009138  0.21684128  1
  O2-  O161  1  0.47531306  0.63857896  0.38629859  1
  O2-  O162  1  0.43397497  0.60802443  0.77565479  1
  O2-  O163  1  0.62135632  0.15113063  0.00287575  1
  O2-  O164  1  0.61873597  0.12913610  0.25688447  1
  O2-  O165  1  0.68851552  0.12859969  0.50240061  1
  O2-  O166  1  0.65121088  0.15656613  0.74912976  1
  O2-  O167  1  0.60847547  0.63960376  -0.01129215  1
  O2-  O168  1  0.60434796  0.64692083  0.24368152  1
  O2-  O169  1  0.59626278  0.65377379  0.50841209  1
  O2-  O170  1  0.61358373  0.63253379  0.76617193  1
  O2-  O171  1  0.80931565  0.12630079  0.01012340  1
  O2-  O172  1  0.80856552  0.12580907  0.23879494  1
  O2-  O173  1  0.91068765  0.13389155  0.50793277  1
  O2-  O174  1  0.84826594  0.14445928  0.79582322  1
  O2-  O175  1  0.90310701  0.63904887  0.00451856  1
  O2-  O176  1  0.91240975  0.62974408  0.26217762  1
  O2-  O177  1  0.91375437  0.62697762  0.53897290  1
  O2-  O178  1  0.93160015  0.63354610  0.76471346  1
  O2-  O179  1  0.16212415  0.37971381  0.00460837  1
  O2-  O180  1  0.16419549  0.37403625  0.24516141  1
  O2-  O181  1  0.16697775  0.37931471  0.47416164  1
  O2-  O182  1  0.16448870  0.35004879  0.74586839  1
  O2-  O183  1  0.10072979  0.86578087  -0.00741133  1
  O2-  O184  1  0.11241857  0.85995434  0.25844721  1
  O2-  O185  1  0.14001799  0.89741171  0.52067816  1
  O2-  O186  1  0.09969674  0.86869769  0.73987786  1
  O2-  O187  1  0.33821516  0.35438630  0.00615059  1
  O2-  O188  1  0.33249475  0.36712208  0.25002914  1
  O2-  O189  1  0.35370374  0.36670276  0.48493912  1
  O2-  O190  1  0.37989398  0.36301920  0.74526651  1
  O2-  O191  1  0.40455365  0.86737009  -0.00985218  1
  O2-  O192  1  0.37587674  0.85899086  0.23660654  1
  O2-  O193  1  0.36938221  0.84732172  0.52916456  1
  O2-  O194  1  0.40824119  0.86576543  0.74364961  1
  O2-  O195  1  0.63531050  0.37055004  0.00814461  1
  O2-  O196  1  0.65601327  0.38353040  0.24709136  1
  O2-  O197  1  0.65996247  0.38003409  0.51596778  1
  O2-  O198  1  0.57154383  0.34714564  0.75670094  1
  O2-  O199  1  0.58933198  0.89423025  -0.00376546  1
  O2-  O200  1  0.56682649  0.89827468  0.23355136  1
  O2-  O201  1  0.56004123  0.87915276  0.51361454  1
  O2-  O202  1  0.58815080  0.88715096  0.75797546  1
  O2-  O203  1  0.82948872  0.38756017  0.01464290  1
  O2-  O204  1  0.84110354  0.38019672  0.25706556  1
  O2-  O205  1  0.85914077  0.37120571  0.52110048  1
  O2-  O206  1  0.87313443  0.35976536  0.78104497  1
  O2-  O207  1  0.90274207  0.85827783  0.00463048  1
  O2-  O208  1  0.88377931  0.87195187  0.25997940  1
  O2-  O209  1  0.89703957  0.87396186  0.53746529  1
  O2-  O210  1  0.92229591  0.87060051  0.76475812  1
  O2-  O211  1  -0.02881322  0.13285055  0.02801683  1
  O2-  O212  1  -0.02012540  0.14078792  0.20443406  1
  O2-  O213  1  0.00481095  -0.10019568  0.39308787  1
  O2-  O214  1  0.01372433  0.14536030  0.85551123  1
  O2-  O215  1  -0.01013996  0.37828546  0.03654258  1
  O2-  O216  1  0.00182708  0.36751462  0.20134005  1
  O2-  O217  1  -0.00418213  0.35569131  0.40699914  1
  O2-  O218  1  0.02704289  0.35565626  0.86213384  1
  O2-  O219  1  0.24511966  -0.15581715  -0.13433737  1
  O2-  O220  1  0.23478355  -0.15063423  0.12218928  1
  O2-  O221  1  0.25689308  0.00464062  0.61031550  1
  O2-  O222  1  0.25114914  -0.15036009  0.65687873  1
  O2-  O223  1  0.24379353  0.66764250  -0.10693793  1
  O2-  O224  1  0.26325397  0.61758179  0.23863984  1
  O2-  O225  1  0.27907938  0.63691810  0.57351899  1
  O2-  O226  1  0.26959658  0.59870774  0.73784423  1
  O2-  O227  1  0.49389266  0.19915604  0.13364781  1
  O2-  O228  1  0.50408216  0.04273885  0.11557962  1
  O2-  O229  1  0.50886497  0.15116045  0.41551741  1
  O2-  O230  1  0.49181004  0.14381184  0.86150705  1
  O2-  O231  1  0.48224045  0.33940418  -0.09307906  1
  O2-  O232  1  0.48667549  0.37873102  0.13520693  1
  O2-  O233  1  0.50597879  0.36755948  0.35874450  1
  O2-  O234  1  0.55803745  0.50208641  0.89218577  1
  O2-  O235  1  0.75116277  -0.10877787  -0.04625903  1
  O2-  O236  1  0.73822225  -0.14902701  0.12813493  1
  O2-  O237  1  0.73323868  -0.13493958  0.62001123  1
  O2-  O238  1  0.76066084  -0.11051753  0.79089970  1
  O2-  O239  1  0.75584991  0.60039405  -0.05396450  1
  O2-  O240  1  0.75061252  0.65156577  0.12441268  1
  O2-  O241  1  0.74211068  0.62443115  0.61500188  1
  O2-  O242  1  0.77379885  0.60654761  0.78477140  1
