# generated using pymatgen
data_Gd19Ta56(WO20)8
_symmetry_space_group_name_H-M   'P 1'
_cell_length_a   15.54070053
_cell_length_b   15.45973224
_cell_length_c   15.31760764
_cell_angle_alpha   90.13942748
_cell_angle_beta   90.08096096
_cell_angle_gamma   90.02524644
_symmetry_Int_Tables_number   1
_chemical_formula_structural   Gd19Ta56(WO20)8
_chemical_formula_sum   'Gd19 Ta56 W8 O160'
_cell_volume   3680.11794803
_cell_formula_units_Z   1
loop_
 _symmetry_equiv_pos_site_id
 _symmetry_equiv_pos_as_xyz
  1  'x, y, z'
loop_
 _atom_type_symbol
 _atom_type_oxidation_number
  Gd3+  3.0
  Ta5+  5.0
  W6+  6.0
  O2-  -2.0
loop_
 _atom_site_type_symbol
 _atom_site_label
 _atom_site_symmetry_multiplicity
 _atom_site_fract_x
 _atom_site_fract_y
 _atom_site_fract_z
 _atom_site_occupancy
  Gd3+  Gd0  1  0.04298631  0.74403594  0.48370674  1
  Gd3+  Gd1  1  0.48706639  0.76078902  0.77440510  1
  Gd3+  Gd2  1  0.74788610  0.25618399  0.74732187  1
  Gd3+  Gd3  1  0.45901670  0.74588947  0.01978604  1
  Gd3+  Gd4  1  0.22073212  0.24371513  0.74368846  1
  Gd3+  Gd5  1  0.51605509  0.27235056  0.75821603  1
  Gd3+  Gd6  1  0.49466672  0.25199026  0.25471094  1
  Gd3+  Gd7  1  0.22809336  0.24320369  0.00918366  1
  Gd3+  Gd8  1  0.24505991  0.25568888  0.26319429  1
  Gd3+  Gd9  1  0.73997709  0.23246812  -0.01338353  1
  Gd3+  Gd10  1  0.76995995  0.71711710  0.75146487  1
  Gd3+  Gd11  1  0.74026362  0.23923356  0.24528420  1
  Gd3+  Gd12  1  0.52115272  0.25066645  0.51697988  1
  Gd3+  Gd13  1  0.75113473  0.72355894  0.50796823  1
  Gd3+  Gd14  1  -0.00958087  0.24993896  0.73222248  1
  Gd3+  Gd15  1  0.00182002  0.24398170  0.24959080  1
  Gd3+  Gd16  1  0.01163905  0.76948742  0.25732083  1
  Gd3+  Gd17  1  0.49153898  0.26475823  0.00383664  1
  Gd3+  Gd18  1  0.21607067  0.71925771  -0.00313639  1
  Ta5+  Ta19  1  0.60135666  0.63994161  0.63322197  1
  Ta5+  Ta20  1  0.61106304  0.63891561  0.37217199  1
  Ta5+  Ta21  1  0.16346777  0.87094352  0.13767218  1
  Ta5+  Ta22  1  0.91143833  0.62278848  0.12038366  1
  Ta5+  Ta23  1  0.87752789  0.10809777  0.11665815  1
  Ta5+  Ta24  1  0.59229151  0.11294332  0.10858523  1
  Ta5+  Ta25  1  0.37795078  0.59683097  0.87697826  1
  Ta5+  Ta26  1  0.43468271  0.63520195  0.61973075  1
  Ta5+  Ta27  1  0.37573873  0.40129352  0.38583247  1
  Ta5+  Ta28  1  0.86604813  0.36717315  0.37224020  1
  Ta5+  Ta29  1  0.12385750  0.10606053  0.13476691  1
  Ta5+  Ta30  1  0.37374625  0.09953591  0.38138289  1
  Ta5+  Ta31  1  0.12244401  0.11586254  0.61331766  1
  Ta5+  Ta32  1  0.14344176  0.86567134  0.62314990  1
  Ta5+  Ta33  1  0.10104956  0.10604809  0.88472799  1
  Ta5+  Ta34  1  0.10769647  0.38352056  0.12989962  1
  Ta5+  Ta35  1  0.66066959  0.11038411  0.61890796  1
  Ta5+  Ta36  1  0.90210302  0.40881874  0.88693495  1
  Ta5+  Ta37  1  0.85504397  0.37668891  0.59493314  1
  Ta5+  Ta38  1  0.39047502  0.11956993  0.88261558  1
  Ta5+  Ta39  1  0.89346513  0.85638276  0.62026194  1
  Ta5+  Ta40  1  0.61251490  0.39133080  0.12194950  1
  Ta5+  Ta41  1  0.13422086  0.38889996  0.37687055  1
  Ta5+  Ta42  1  0.89900234  0.10132504  0.86359818  1
  Ta5+  Ta43  1  0.84440523  0.85931390  0.37326324  1
  Ta5+  Ta44  1  0.10572486  0.41737950  0.88932968  1
  Ta5+  Ta45  1  0.12804876  0.61681100  0.61983174  1
  Ta5+  Ta46  1  0.36628148  0.11926308  0.63422834  1
  Ta5+  Ta47  1  0.67563937  0.86649428  0.37259983  1
  Ta5+  Ta48  1  0.39005082  0.39793260  0.63032183  1
  Ta5+  Ta49  1  0.34029681  0.87600805  0.88602345  1
  Ta5+  Ta50  1  0.18135549  0.86894003  0.36480756  1
  Ta5+  Ta51  1  0.34671743  0.85112647  0.37989072  1
  Ta5+  Ta52  1  0.35411168  0.65150816  0.38492266  1
  Ta5+  Ta53  1  0.61371930  0.87673539  0.13423938  1
  Ta5+  Ta54  1  0.91577062  0.61949503  0.87310222  1
  Ta5+  Ta55  1  0.34189428  0.11866267  0.13562760  1
  Ta5+  Ta56  1  0.86413105  0.10174458  0.61159782  1
  Ta5+  Ta57  1  0.35400179  0.38762777  0.13645870  1
  Ta5+  Ta58  1  0.08249569  0.62647075  0.12906720  1
  Ta5+  Ta59  1  0.32817109  0.62563596  0.14784196  1
  Ta5+  Ta60  1  0.61591039  0.86729200  0.62294428  1
  Ta5+  Ta61  1  0.14167719  0.11266332  0.37288413  1
  Ta5+  Ta62  1  0.32969245  0.87299662  0.14559433  1
  Ta5+  Ta63  1  0.08337062  0.63251535  0.86655904  1
  Ta5+  Ta64  1  0.59826215  0.11011330  0.87283966  1
  Ta5+  Ta65  1  0.85695761  0.11200162  0.38085910  1
  Ta5+  Ta66  1  0.86638834  0.86999718  0.86906792  1
  Ta5+  Ta67  1  0.61758499  0.10895790  0.37807984  1
  Ta5+  Ta68  1  0.65221143  0.39525825  0.62294127  1
  Ta5+  Ta69  1  0.18239925  0.63036516  0.35984327  1
  Ta5+  Ta70  1  0.62286430  0.38664888  0.37495410  1
  Ta5+  Ta71  1  0.63664108  0.87335133  0.88559841  1
  Ta5+  Ta72  1  0.88835118  0.61601876  0.36407206  1
  Ta5+  Ta73  1  0.86780903  0.37592981  0.11259160  1
  Ta5+  Ta74  1  0.61515638  0.63073283  0.90197531  1
  W6+  W75  1  0.38524991  0.87240083  0.63008520  1
  W6+  W76  1  0.70327088  0.48029960  0.96769079  1
  W6+  W77  1  0.88796040  0.59409782  0.62060735  1
  W6+  W78  1  0.59800198  0.63738911  0.14603527  1
  W6+  W79  1  0.13582102  0.38815484  0.62463792  1
  W6+  W80  1  0.17873126  0.87726968  0.87022700  1
  W6+  W81  1  0.36609646  0.40125106  0.87710287  1
  W6+  W82  1  0.87773316  0.86370474  0.12046523  1
  O2-  O83  1  0.10873609  -0.01149009  0.12352800  1
  O2-  O84  1  0.17091493  -0.00352042  0.37455853  1
  O2-  O85  1  0.11789621  -0.00437464  0.61110605  1
  O2-  O86  1  0.17696743  0.01399921  0.87839937  1
  O2-  O87  1  0.07977491  0.49797351  0.11323759  1
  O2-  O88  1  0.17315820  0.50252289  0.35731463  1
  O2-  O89  1  0.18816049  0.51318675  0.61629491  1
  O2-  O90  1  0.14671110  0.52797349  0.90788745  1
  O2-  O91  1  0.36036562  -0.00023255  0.15577995  1
  O2-  O92  1  0.35473228  -0.01560266  0.36739027  1
  O2-  O93  1  0.39518675  0.00725532  0.63486766  1
  O2-  O94  1  0.35863106  0.00525027  0.89901633  1
  O2-  O95  1  0.37661089  0.50675027  0.15605474  1
  O2-  O96  1  0.36760216  0.51797573  0.38111297  1
  O2-  O97  1  0.38727129  0.51386106  0.60849572  1
  O2-  O98  1  0.44721110  0.50659162  0.91432007  1
  O2-  O99  1  0.56806319  -0.00533981  0.13187475  1
  O2-  O100  1  0.64944801  -0.00580551  0.36834102  1
  O2-  O101  1  0.61796876  -0.00470149  0.63782697  1
  O2-  O102  1  0.64601629  -0.00441549  0.86848408  1
  O2-  O103  1  0.59505614  0.50317682  0.15575051  1
  O2-  O104  1  0.62504497  0.50552544  0.37147696  1
  O2-  O105  1  0.62185064  0.51120398  0.63534787  1
  O2-  O106  1  0.62426331  0.51775452  0.86361076  1
  O2-  O107  1  0.84530090  -0.00632093  0.12734522  1
  O2-  O108  1  0.85217221  -0.00846848  0.37943608  1
  O2-  O109  1  0.89072626  -0.01644656  0.61365523  1
  O2-  O110  1  0.84016234  -0.01004752  0.84790399  1
  O2-  O111  1  0.88981674  0.49107917  0.12295240  1
  O2-  O112  1  0.88865583  0.48532953  0.35374154  1
  O2-  O113  1  0.92953419  0.46300670  0.63198308  1
  O2-  O114  1  0.82787794  0.50515717  0.90008710  1
  O2-  O115  1  0.13685712  0.24795856  0.14813955  1
  O2-  O116  1  0.11756508  0.25400546  0.35092519  1
  O2-  O117  1  0.10064229  0.24981665  0.62980979  1
  O2-  O118  1  0.18877929  0.20689463  0.87687110  1
  O2-  O119  1  0.12636470  0.75188304  0.14374284  1
  O2-  O120  1  0.12635377  0.75074921  0.35579224  1
  O2-  O121  1  0.16284464  0.73771121  0.62322434  1
  O2-  O122  1  0.14321317  0.74098049  0.86555077  1
  O2-  O123  1  0.32270916  0.25229786  0.13458935  1
  O2-  O124  1  0.49637251  0.38103886  0.35479766  1
  O2-  O125  1  0.46226323  0.19347167  0.64480124  1
  O2-  O126  1  0.42195074  0.26084164  0.87380109  1
  O2-  O127  1  0.36517272  0.74644818  0.14737021  1
  O2-  O128  1  0.40486392  0.74988072  0.33205958  1
  O2-  O129  1  0.38971865  0.74443382  0.65404195  1
  O2-  O130  1  0.37864262  0.74418044  0.88212122  1
  O2-  O131  1  0.62151400  0.24568703  0.09548987  1
  O2-  O132  1  0.58944669  0.24246954  0.37627797  1
  O2-  O133  1  0.65304181  0.23980409  0.60485464  1
  O2-  O134  1  0.61262929  0.23373669  0.90126406  1
  O2-  O135  1  0.55611084  0.76899876  0.13586965  1
  O2-  O136  1  0.60823916  0.76305379  0.37485390  1
  O2-  O137  1  0.67693602  0.75540830  0.63692227  1
  O2-  O138  1  0.56543754  0.76563030  0.90644323  1
  O2-  O139  1  0.81481635  0.22416680  0.11631908  1
  O2-  O140  1  0.90326614  0.24229717  0.35980079  1
  O2-  O141  1  0.86745587  0.25230299  0.63140676  1
  O2-  O142  1  0.79749293  0.18003679  0.86168106  1
  O2-  O143  1  0.94089560  0.74778206  0.12543567  1
  O2-  O144  1  0.92405904  0.74141054  0.38555851  1
  O2-  O145  1  0.85186682  0.72849556  0.62161918  1
  O2-  O146  1  0.89512576  0.74112529  0.85661401  1
  O2-  O147  1  0.10000306  0.13821671  0.00669060  1
  O2-  O148  1  0.06759255  0.11183756  0.27113412  1
  O2-  O149  1  0.09719098  0.12693118  0.48722190  1
  O2-  O150  1  0.11170898  0.12900347  0.74249878  1
  O2-  O151  1  0.08468148  0.65432891  0.00089824  1
  O2-  O152  1  0.09412969  0.62509230  0.25680842  1
  O2-  O153  1  0.14930283  0.63633603  0.48107389  1
  O2-  O154  1  0.09703541  0.61229267  0.74028765  1
  O2-  O155  1  0.36268253  0.16604978  -0.00038121  1
  O2-  O156  1  0.37170950  0.16195820  0.26656238  1
  O2-  O157  1  0.39367395  0.13743207  0.50005920  1
  O2-  O158  1  0.33406544  0.14213596  0.76175372  1
  O2-  O159  1  0.35349033  0.63429717  0.00888474  1
  O2-  O160  1  0.27962821  0.63874869  0.26574398  1
  O2-  O161  1  0.40017193  0.65282085  0.50009753  1
  O2-  O162  1  0.42961507  0.61802972  0.76196451  1
  O2-  O163  1  0.66987491  0.10247298  0.01063906  1
  O2-  O164  1  0.63095857  0.13459192  0.23054307  1
  O2-  O165  1  0.59227102  0.11597042  0.50061456  1
  O2-  O166  1  0.62461039  0.15478387  0.75182906  1
  O2-  O167  1  0.55042356  0.63039466  0.01597159  1
  O2-  O168  1  0.66130882  0.64313819  0.26090263  1
  O2-  O169  1  0.62681185  0.63781908  0.50228117  1
  O2-  O170  1  0.62153137  0.66608942  0.76972775  1
  O2-  O171  1  0.87572169  0.11396899  -0.00806275  1
  O2-  O172  1  0.86114732  0.12639091  0.25089835  1
  O2-  O173  1  0.91011388  0.12854626  0.49381707  1
  O2-  O174  1  0.92332223  0.11913087  0.72773739  1
  O2-  O175  1  0.90381457  0.62379406  -0.00250370  1
  O2-  O176  1  0.86803224  0.63515089  0.24482554  1
  O2-  O177  1  0.84570541  0.61045268  0.48422999  1
  O2-  O178  1  0.86359777  0.60192706  0.75378062  1
  O2-  O179  1  0.15109808  0.37132789  0.00506888  1
  O2-  O180  1  0.07296512  0.38314658  0.25971847  1
  O2-  O181  1  0.10042181  0.39176462  0.49067772  1
  O2-  O182  1  0.12242405  0.36530818  0.77569964  1
  O2-  O183  1  0.16625269  0.85892333  0.00994037  1
  O2-  O184  1  0.10097385  0.88387677  0.25605090  1
  O2-  O185  1  0.14999867  0.85530171  0.49048244  1
  O2-  O186  1  0.18710950  0.88183819  0.73292219  1
  O2-  O187  1  0.34506565  0.37352015  0.01485738  1
  O2-  O188  1  0.36902857  0.34557969  0.26716283  1
  O2-  O189  1  0.39523928  0.35194951  0.49991723  1
  O2-  O190  1  0.27854105  0.34597157  0.64405309  1
  O2-  O191  1  0.36487358  0.86811746  0.01404374  1
  O2-  O192  1  0.26933799  0.85202596  0.26079849  1
  O2-  O193  1  0.36120047  0.85476272  0.49875938  1
  O2-  O194  1  0.39708140  0.87930816  0.77334851  1
  O2-  O195  1  0.73700527  0.39700821  0.10106999  1
  O2-  O196  1  0.62728803  0.34073504  0.24452997  1
  O2-  O197  1  0.60585854  0.37120665  0.49590450  1
  O2-  O198  1  0.62965463  0.35093339  0.74085173  1
  O2-  O199  1  0.65279755  0.87893304  0.01533008  1
  O2-  O200  1  0.67546245  0.87235601  0.23676366  1
  O2-  O201  1  0.65210451  0.86617731  0.50467560  1
  O2-  O202  1  0.60494419  0.85792660  0.75964204  1
  O2-  O203  1  0.84757020  0.34388956  -0.01489782  1
  O2-  O204  1  0.85879788  0.34456508  0.23570847  1
  O2-  O205  1  0.91453477  0.35613555  0.48294492  1
  O2-  O206  1  0.88363066  0.33406554  0.79421050  1
  O2-  O207  1  0.88935961  0.87453760  -0.01391060  1
  O2-  O208  1  0.87791594  0.84835239  0.25420641  1
  O2-  O209  1  0.84227754  0.85066875  0.50575550  1
  O2-  O210  1  0.84302304  0.85323277  0.73289732  1
  O2-  O211  1  -0.00667188  0.19046270  -0.13609035  1
  O2-  O212  1  -0.00682038  0.14020713  0.13238992  1
  O2-  O213  1  0.01459338  -0.15951671  0.60850531  1
  O2-  O214  1  0.00149325  0.02894213  0.88404740  1
  O2-  O215  1  0.00655715  0.35891883  -0.06690386  1
  O2-  O216  1  -0.01234463  0.33375372  0.11651052  1
  O2-  O217  1  0.01111833  0.63277676  0.57725436  1
  O2-  O218  1  -0.00759296  0.50056380  0.85363367  1
  O2-  O219  1  0.23698914  0.10376229  0.06758004  1
  O2-  O220  1  0.22285896  0.11355470  0.22269046  1
  O2-  O221  1  0.25814599  0.15722753  0.39014295  1
  O2-  O222  1  0.24456943  0.14249319  0.61096436  1
  O2-  O223  1  0.21723436  0.60877712  0.10654199  1
  O2-  O224  1  0.23064907  0.39398852  0.16888783  1
  O2-  O225  1  0.25534141  0.35415645  0.38661057  1
  O2-  O226  1  0.29693005  0.51747417  0.84378636  1
  O2-  O227  1  0.51092884  0.11286081  -0.03185805  1
  O2-  O228  1  0.47491409  0.15799600  0.13142455  1
  O2-  O229  1  0.49635817  0.10097687  0.34945408  1
  O2-  O230  1  0.48977605  0.09527669  0.80997686  1
  O2-  O231  1  0.59104776  0.39301569  0.00023432  1
  O2-  O232  1  0.48103882  0.34882996  0.13693216  1
  O2-  O233  1  0.51164940  0.35689059  0.62364443  1
  O2-  O234  1  0.41598538  0.39234851  0.75063667  1
  O2-  O235  1  0.74643965  -0.17683418  -0.12958000  1
  O2-  O236  1  0.74096099  0.15457583  0.37436910  1
  O2-  O237  1  0.75517038  0.08567325  0.53915068  1
  O2-  O238  1  0.76535537  0.11659209  0.69192894  1
  O2-  O239  1  0.71806424  0.62774494  -0.03992805  1
  O2-  O240  1  0.74492897  0.34664208  0.36540051  1
  O2-  O241  1  0.75557853  0.41190793  0.53090774  1
  O2-  O242  1  0.76666125  0.39147218  0.68584808  1
