# generated using pymatgen
data_Gd19Ta56(WO20)8
_symmetry_space_group_name_H-M   'P 1'
_cell_length_a   15.52598823
_cell_length_b   15.53322581
_cell_length_c   15.44426009
_cell_angle_alpha   90.04448949
_cell_angle_beta   90.15360180
_cell_angle_gamma   90.09168758
_symmetry_Int_Tables_number   1
_chemical_formula_structural   Gd19Ta56(WO20)8
_chemical_formula_sum   'Gd19 Ta56 W8 O160'
_cell_volume   3724.65254910
_cell_formula_units_Z   1
loop_
 _symmetry_equiv_pos_site_id
 _symmetry_equiv_pos_as_xyz
  1  'x, y, z'
loop_
 _atom_type_symbol
 _atom_type_oxidation_number
  Gd3+  3.0
  Ta5+  5.0
  W6+  6.0
  O2-  -2.0
loop_
 _atom_site_type_symbol
 _atom_site_label
 _atom_site_symmetry_multiplicity
 _atom_site_fract_x
 _atom_site_fract_y
 _atom_site_fract_z
 _atom_site_occupancy
  Gd3+  Gd0  1  -0.01579395  0.25569271  0.75099278  1
  Gd3+  Gd1  1  0.24799127  0.23715549  0.00747431  1
  Gd3+  Gd2  1  0.52009812  0.26313058  0.77003394  1
  Gd3+  Gd3  1  0.76292663  0.75188891  0.50156045  1
  Gd3+  Gd4  1  0.28113448  0.75144708  -0.01443200  1
  Gd3+  Gd5  1  0.49689953  0.74319396  0.75087765  1
  Gd3+  Gd6  1  -0.03098730  0.25899101  -0.00584172  1
  Gd3+  Gd7  1  -0.02049011  0.75381672  0.00525483  1
  Gd3+  Gd8  1  0.73325316  0.74609282  0.24374268  1
  Gd3+  Gd9  1  0.51993903  0.26628246  0.49134761  1
  Gd3+  Gd10  1  0.25842855  0.24081523  0.24290635  1
  Gd3+  Gd11  1  0.48656381  0.75836040  0.24136016  1
  Gd3+  Gd12  1  0.00211510  0.73894637  0.49831698  1
  Gd3+  Gd13  1  0.24742179  0.75090546  0.75157494  1
  Gd3+  Gd14  1  0.75139666  0.23789147  0.49712233  1
  Gd3+  Gd15  1  0.50611920  0.75534895  0.49061888  1
  Gd3+  Gd16  1  0.26458230  0.74017269  0.51050908  1
  Gd3+  Gd17  1  -0.00741519  0.76675891  0.24426279  1
  Gd3+  Gd18  1  0.74506100  0.24021675  0.73822322  1
  Ta5+  Ta19  1  0.10925921  0.61945964  0.87358196  1
  Ta5+  Ta20  1  0.86624742  0.11841059  0.61838155  1
  Ta5+  Ta21  1  0.37368346  0.88548045  0.37935968  1
  Ta5+  Ta22  1  0.62947258  0.87891302  0.86783051  1
  Ta5+  Ta23  1  0.62856992  0.62582522  0.87330465  1
  Ta5+  Ta24  1  0.60881589  0.12158140  0.62128033  1
  Ta5+  Ta25  1  0.10551716  0.11490762  0.12726162  1
  Ta5+  Ta26  1  0.85097681  0.37028758  0.12942107  1
  Ta5+  Ta27  1  0.61181304  0.61921400  0.11635757  1
  Ta5+  Ta28  1  0.86408666  0.62750730  0.86426922  1
  Ta5+  Ta29  1  0.12558149  0.11989225  0.87256963  1
  Ta5+  Ta30  1  0.39264158  0.12500533  0.36953317  1
  Ta5+  Ta31  1  0.35991066  0.62338893  0.12535961  1
  Ta5+  Ta32  1  0.88285641  0.12629435  0.36653628  1
  Ta5+  Ta33  1  0.84296904  0.38143951  0.87392000  1
  Ta5+  Ta34  1  0.60279851  0.88306089  0.11202046  1
  Ta5+  Ta35  1  0.38330200  0.37784070  0.37185979  1
  Ta5+  Ta36  1  0.85611125  0.12914501  0.12273772  1
  Ta5+  Ta37  1  0.66371575  0.12241035  0.88295187  1
  Ta5+  Ta38  1  0.37902568  0.61499152  0.37790936  1
  Ta5+  Ta39  1  0.65551291  0.38365973  0.62027293  1
  Ta5+  Ta40  1  0.61649095  0.37499081  0.11307085  1
  Ta5+  Ta41  1  0.62791455  0.12991935  0.34666761  1
  Ta5+  Ta42  1  0.12237529  0.37082974  0.12583731  1
  Ta5+  Ta43  1  0.63192740  0.38333883  0.35628419  1
  Ta5+  Ta44  1  0.10724888  0.37843942  0.87839961  1
  Ta5+  Ta45  1  0.63661536  0.88973967  0.61961623  1
  Ta5+  Ta46  1  0.13322406  0.61150693  0.36861901  1
  Ta5+  Ta47  1  0.88384893  0.87732479  0.62664256  1
  Ta5+  Ta48  1  0.14899028  0.87833165  0.11197638  1
  Ta5+  Ta49  1  0.64887066  0.57838719  0.61821016  1
  Ta5+  Ta50  1  0.38087625  0.60611214  0.87263177  1
  Ta5+  Ta51  1  0.87525428  0.37315103  0.37015722  1
  Ta5+  Ta52  1  0.38787163  0.89435512  0.87287314  1
  Ta5+  Ta53  1  0.86682264  0.88302155  0.87424666  1
  Ta5+  Ta54  1  0.62147695  0.89065002  0.37150063  1
  Ta5+  Ta55  1  0.37588814  0.38372806  0.11911145  1
  Ta5+  Ta56  1  0.82441708  0.39097003  0.62210084  1
  Ta5+  Ta57  1  0.12151604  0.88439518  0.60661850  1
  Ta5+  Ta58  1  0.83442729  0.12616851  0.87628861  1
  Ta5+  Ta59  1  0.86244043  0.88829297  0.36171459  1
  Ta5+  Ta60  1  0.88269098  0.61723780  0.61893430  1
  Ta5+  Ta61  1  0.12482749  0.12585543  0.37887567  1
  Ta5+  Ta62  1  0.13281005  0.36135837  0.62368472  1
  Ta5+  Ta63  1  0.35553388  0.88714803  0.12549419  1
  Ta5+  Ta64  1  0.13923616  0.90580962  0.39790876  1
  Ta5+  Ta65  1  0.41310166  0.12833427  0.12021797  1
  Ta5+  Ta66  1  0.11405348  0.36536875  0.37179277  1
  Ta5+  Ta67  1  0.12798102  0.60704783  0.62455205  1
  Ta5+  Ta68  1  0.61990865  0.61478583  0.37357226  1
  Ta5+  Ta69  1  0.37601355  0.36806861  0.63044768  1
  Ta5+  Ta70  1  0.87734284  0.61234064  0.12238222  1
  Ta5+  Ta71  1  0.37776596  0.13946168  0.87349763  1
  Ta5+  Ta72  1  0.11703732  0.87397119  0.86574201  1
  Ta5+  Ta73  1  0.58261307  0.13425844  0.11296746  1
  Ta5+  Ta74  1  0.12085277  0.61909297  0.12540690  1
  W6+  W75  1  0.37844809  0.61691148  0.63680048  1
  W6+  W76  1  0.67566421  0.37855254  0.87663678  1
  W6+  W77  1  0.85874589  0.61954616  0.35540005  1
  W6+  W78  1  0.36288283  0.89195387  0.63836501  1
  W6+  W79  1  0.44213440  0.12723474  0.62325521  1
  W6+  W80  1  0.11189770  0.12065332  0.63163870  1
  W6+  W81  1  0.86236537  0.89024727  0.12199373  1
  W6+  W82  1  0.37185867  0.36757190  0.88386596  1
  O2-  O83  1  0.10173137  -0.01303206  0.13306358  1
  O2-  O84  1  0.18206370  0.01812624  0.36525499  1
  O2-  O85  1  0.15820533  -0.00788675  0.64051826  1
  O2-  O86  1  0.12704448  -0.00456246  0.87173889  1
  O2-  O87  1  0.12266382  0.50043786  0.12213911  1
  O2-  O88  1  0.10927754  0.49346645  0.36663808  1
  O2-  O89  1  0.11158285  0.48736412  0.62516372  1
  O2-  O90  1  0.14202293  0.50391971  0.88010441  1
  O2-  O91  1  0.38342734  0.00448016  0.11783640  1
  O2-  O92  1  0.35751339  0.00700001  0.38938181  1
  O2-  O93  1  0.40849989  -0.00127558  0.61439484  1
  O2-  O94  1  0.38512974  0.01258756  0.88534199  1
  O2-  O95  1  0.33956172  0.50269769  0.11941517  1
  O2-  O96  1  0.34223858  0.49424812  0.38707870  1
  O2-  O97  1  0.38599835  0.48364989  0.61751123  1
  O2-  O98  1  0.34089406  0.49821582  0.89038168  1
  O2-  O99  1  0.59760894  0.00180967  0.11100404  1
  O2-  O100  1  0.65253710  0.00575201  0.38017104  1
  O2-  O101  1  0.60076534  -0.00163482  0.58777414  1
  O2-  O102  1  0.63096173  0.00068219  0.87966008  1
  O2-  O103  1  0.64079304  0.50488937  0.10545664  1
  O2-  O104  1  0.66586050  0.50182919  0.38551332  1
  O2-  O105  1  0.57891135  0.48684120  0.58254208  1
  O2-  O106  1  0.64980125  0.50982983  0.86776909  1
  O2-  O107  1  0.82304556  0.01710207  0.10555330  1
  O2-  O108  1  0.84942449  0.00844438  0.38939158  1
  O2-  O109  1  0.90153206  0.00012371  0.60983471  1
  O2-  O110  1  0.86431701  0.00600392  0.87680196  1
  O2-  O111  1  0.88248814  0.49165082  0.12273365  1
  O2-  O112  1  0.88994015  0.49002661  0.37263529  1
  O2-  O113  1  0.89777587  0.49851022  0.60892100  1
  O2-  O114  1  0.84788262  0.50639070  0.87477134  1
  O2-  O115  1  0.14936393  0.24401683  0.12458085  1
  O2-  O116  1  0.16229171  0.24534678  0.36307095  1
  O2-  O117  1  0.06395510  0.26070008  0.62159460  1
  O2-  O118  1  0.08845635  0.24579303  0.88808022  1
  O2-  O119  1  0.09729454  0.76526468  0.13408204  1
  O2-  O120  1  0.03615038  0.68675751  0.35928085  1
  O2-  O121  1  0.17286215  0.76286918  0.62599547  1
  O2-  O122  1  0.16916816  0.74434852  0.88205484  1
  O2-  O123  1  0.35506401  0.25280489  0.12658614  1
  O2-  O124  1  0.34740714  0.25216430  0.36385912  1
  O2-  O125  1  0.46080361  0.27032527  0.62646750  1
  O2-  O126  1  0.44002943  0.24701775  0.89243734  1
  O2-  O127  1  0.35910652  0.75399370  0.13229608  1
  O2-  O128  1  0.40635945  0.74736895  0.36581914  1
  O2-  O129  1  0.36430567  0.75730988  0.65798349  1
  O2-  O130  1  0.36927088  0.75079708  0.85903448  1
  O2-  O131  1  0.57713104  0.25795519  0.13363806  1
  O2-  O132  1  0.61432935  0.25459770  0.34979330  1
  O2-  O133  1  0.64539499  0.25068885  0.62127605  1
  O2-  O134  1  0.64598171  0.24789645  0.85933330  1
  O2-  O135  1  0.63254568  0.74853660  0.13464768  1
  O2-  O136  1  0.59298571  0.74623134  0.35587327  1
  O2-  O137  1  0.54628518  0.80262687  0.62797080  1
  O2-  O138  1  0.60411413  0.75314836  0.84456739  1
  O2-  O139  1  0.90345741  0.25944898  0.13339130  1
  O2-  O140  1  0.83292976  0.24128112  0.37394871  1
  O2-  O141  1  0.84137233  0.25538103  0.62179881  1
  O2-  O142  1  0.88769345  0.25161902  0.86711822  1
  O2-  O143  1  0.89215636  0.75107723  0.12981732  1
  O2-  O144  1  0.86776511  0.75578498  0.32616045  1
  O2-  O145  1  0.86351559  0.75248570  0.61399542  1
  O2-  O146  1  0.90832322  0.75610078  0.87384676  1
  O2-  O147  1  0.14618911  0.11992245  0.00773327  1
  O2-  O148  1  0.15694316  0.12701381  0.24134194  1
  O2-  O149  1  0.12982490  0.13292291  0.49606931  1
  O2-  O150  1  0.06681120  0.13167218  0.76386412  1
  O2-  O151  1  0.08793759  0.64357217  -0.00106015  1
  O2-  O152  1  0.15473030  0.63054113  0.24661369  1
  O2-  O153  1  0.11258868  0.62861843  0.49597585  1
  O2-  O154  1  0.14118390  0.63407567  0.74892168  1
  O2-  O155  1  0.36591579  0.14217019  0.00405092  1
  O2-  O156  1  0.36057071  0.12992158  0.24557912  1
  O2-  O157  1  0.42498049  0.15257743  0.48610843  1
  O2-  O158  1  0.42748314  0.13840241  0.76116261  1
  O2-  O159  1  0.38208772  0.64147098  -0.00479491  1
  O2-  O160  1  0.38361241  0.62356302  0.24903443  1
  O2-  O161  1  0.39537395  0.64794872  0.50108826  1
  O2-  O162  1  0.32214743  0.61954906  0.76410702  1
  O2-  O163  1  0.61614002  0.14146920  -0.00400655  1
  O2-  O164  1  0.64895629  0.12196918  0.22932814  1
  O2-  O165  1  0.62347576  0.15133907  0.48535382  1
  O2-  O166  1  0.62564700  0.12749879  0.74750638  1
  O2-  O167  1  0.59814602  0.64008073  -0.00932575  1
  O2-  O168  1  0.61953417  0.61853715  0.24666793  1
  O2-  O169  1  0.61590972  0.64803708  0.50743269  1
  O2-  O170  1  0.61720490  0.63243947  0.72205617  1
  O2-  O171  1  0.85958508  0.15588739  -0.00225688  1
  O2-  O172  1  0.85093542  0.12320916  0.24924534  1
  O2-  O173  1  0.88837280  0.14306500  0.49808964  1
  O2-  O174  1  0.87610298  0.13758773  0.74545576  1
  O2-  O175  1  0.88695473  0.63259913  -0.00062138  1
  O2-  O176  1  0.99669839  0.62562444  0.16210821  1
  O2-  O177  1  0.89368565  0.64432283  0.48764851  1
  O2-  O178  1  0.85880678  0.62686108  0.73973635  1
  O2-  O179  1  0.13623973  0.36640739  0.00057119  1
  O2-  O180  1  0.16060801  0.37010834  0.25333500  1
  O2-  O181  1  0.14198587  0.36855344  0.49147193  1
  O2-  O182  1  0.11152136  0.36303468  0.75090493  1
  O2-  O183  1  0.08782568  0.85690644  -0.00842588  1
  O2-  O184  1  0.08175800  0.86760258  0.30087895  1
  O2-  O185  1  0.13387670  0.80657275  0.48169725  1
  O2-  O186  1  0.11679167  0.85982574  0.74492921  1
  O2-  O187  1  0.31926958  0.36481770  0.00992180  1
  O2-  O188  1  0.35464657  0.37641387  0.24769999  1
  O2-  O189  1  0.39158796  0.35264233  0.49720696  1
  O2-  O190  1  0.40856915  0.36412163  0.74989229  1
  O2-  O191  1  0.39136043  0.85942583  -0.00796774  1
  O2-  O192  1  0.39630780  0.87869766  0.25713828  1
  O2-  O193  1  0.37711992  0.84430372  0.50477077  1
  O2-  O194  1  0.31487795  0.88856522  0.77046277  1
  O2-  O195  1  0.67173881  0.35454137  0.01023214  1
  O2-  O196  1  0.65021716  0.39038528  0.23640622  1
  O2-  O197  1  0.64793984  0.35225229  0.48462737  1
  O2-  O198  1  0.62862166  0.36806142  0.74479595  1
  O2-  O199  1  0.60947513  0.86183843  -0.00955761  1
  O2-  O200  1  0.61376998  0.87564923  0.24720559  1
  O2-  O201  1  0.63624318  0.83867182  0.49340004  1
  O2-  O202  1  0.65334769  0.89216121  0.73878429  1
  O2-  O203  1  0.85609060  0.36002275  0.00180720  1
  O2-  O204  1  0.83186950  0.37023410  0.25480526  1
  O2-  O205  1  0.83365367  0.36660224  0.48972261  1
  O2-  O206  1  0.86474877  0.36890448  0.74452782  1
  O2-  O207  1  0.89715337  0.87613529  -0.00590480  1
  O2-  O208  1  0.91194845  0.90241261  0.25157267  1
  O2-  O209  1  0.89254838  0.84918126  0.47834581  1
  O2-  O210  1  0.87878456  0.88086613  0.74630482  1
  O2-  O211  1  -0.01238582  0.12210673  0.12118494  1
  O2-  O212  1  0.00544937  0.12196661  0.35213274  1
  O2-  O213  1  0.07527481  -0.04995302  0.49420685  1
  O2-  O214  1  0.00482266  -0.15520488  0.61234844  1
  O2-  O215  1  -0.01262647  0.38592421  -0.11481573  1
  O2-  O216  1  -0.00330467  0.33667005  0.36776466  1
  O2-  O217  1  0.00740740  0.65162341  0.62549271  1
  O2-  O218  1  -0.00537399  0.61000359  0.85109006  1
  O2-  O219  1  0.24715108  -0.11213185  0.03589648  1
  O2-  O220  1  0.24310298  -0.11972482  0.19276012  1
  O2-  O221  1  0.25459857  -0.14825533  0.38331072  1
  O2-  O222  1  0.25083173  0.14655530  0.86799341  1
  O2-  O223  1  0.23677456  0.64763503  0.08708918  1
  O2-  O224  1  0.25191018  0.64887646  0.39057275  1
  O2-  O225  1  0.24639191  0.61383954  0.59548232  1
  O2-  O226  1  0.25426637  0.34450307  0.63252239  1
  O2-  O227  1  0.48599832  -0.14220170  0.12712001  1
  O2-  O228  1  0.50639719  0.10421648  0.34065941  1
  O2-  O229  1  0.50174981  -0.10689818  0.40149935  1
  O2-  O230  1  0.49891143  -0.12094312  0.82540632  1
  O2-  O231  1  0.49205535  0.40348549  0.10193560  1
  O2-  O232  1  0.50339785  0.38883708  0.36376133  1
  O2-  O233  1  0.49943211  0.58823405  0.37874380  1
  O2-  O234  1  0.49700958  0.61493086  0.84030406  1
  O2-  O235  1  0.75027480  -0.14233353  -0.11832405  1
  O2-  O236  1  0.74347130  -0.15321234  0.36691624  1
  O2-  O237  1  0.75900944  -0.11868314  0.59268537  1
  O2-  O238  1  0.74563909  0.10998356  0.61623599  1
  O2-  O239  1  0.74715987  0.66139235  -0.12087856  1
  O2-  O240  1  0.80467012  0.62112938  0.22259172  1
  O2-  O241  1  0.75898865  0.62828895  0.58446466  1
  O2-  O242  1  0.72876618  0.48723732  0.66454944  1
