# generated using pymatgen
data_Gd19Ta56(WO20)8
_symmetry_space_group_name_H-M   'P 1'
_cell_length_a   15.61964592
_cell_length_b   15.50071515
_cell_length_c   15.31852438
_cell_angle_alpha   89.84165061
_cell_angle_beta   89.98200991
_cell_angle_gamma   89.99265403
_symmetry_Int_Tables_number   1
_chemical_formula_structural   Gd19Ta56(WO20)8
_chemical_formula_sum   'Gd19 Ta56 W8 O160'
_cell_volume   3708.84060061
_cell_formula_units_Z   1
loop_
 _symmetry_equiv_pos_site_id
 _symmetry_equiv_pos_as_xyz
  1  'x, y, z'
loop_
 _atom_type_symbol
 _atom_type_oxidation_number
  Gd3+  3.0
  Ta5+  5.0
  W6+  6.0
  O2-  -2.0
loop_
 _atom_site_type_symbol
 _atom_site_label
 _atom_site_symmetry_multiplicity
 _atom_site_fract_x
 _atom_site_fract_y
 _atom_site_fract_z
 _atom_site_occupancy
  Gd3+  Gd0  1  -0.00102847  0.73549965  0.25652342  1
  Gd3+  Gd1  1  -0.00674023  0.73244907  0.76483793  1
  Gd3+  Gd2  1  0.52496909  0.24787357  0.24070910  1
  Gd3+  Gd3  1  0.75748785  0.73712281  0.73905701  1
  Gd3+  Gd4  1  0.06210073  0.25907383  0.24867756  1
  Gd3+  Gd5  1  0.24506168  0.25141820  0.47743241  1
  Gd3+  Gd6  1  0.02871937  0.25502788  0.80089215  1
  Gd3+  Gd7  1  0.76067178  0.79199977  0.50068418  1
  Gd3+  Gd8  1  -0.01823393  0.73195519  0.00300836  1
  Gd3+  Gd9  1  0.24270969  0.76906812  0.27345006  1
  Gd3+  Gd10  1  0.23081621  0.25062156  -0.00586755  1
  Gd3+  Gd11  1  0.44600995  0.74634612  -0.00550283  1
  Gd3+  Gd12  1  0.53524417  0.28436704  0.73461566  1
  Gd3+  Gd13  1  0.25242721  0.26163198  0.74203141  1
  Gd3+  Gd14  1  0.76110063  0.23859725  0.24944697  1
  Gd3+  Gd15  1  0.45765898  0.74593990  0.76379778  1
  Gd3+  Gd16  1  0.75231159  0.25164034  0.50050005  1
  Gd3+  Gd17  1  -0.00995148  0.72843293  0.51288154  1
  Gd3+  Gd18  1  -0.00615625  0.27743519  0.02991862  1
  Ta5+  Ta19  1  0.16010722  0.10371501  0.13418437  1
  Ta5+  Ta20  1  0.60561726  0.63926859  0.56295925  1
  Ta5+  Ta21  1  0.37727383  0.62206945  0.61976640  1
  Ta5+  Ta22  1  0.62087648  0.87110756  0.34548616  1
  Ta5+  Ta23  1  0.39102309  0.13621472  0.87339603  1
  Ta5+  Ta24  1  0.62554680  0.88297593  0.62515912  1
  Ta5+  Ta25  1  0.89778820  0.10959706  0.89297043  1
  Ta5+  Ta26  1  0.65337361  0.86428422  0.09514463  1
  Ta5+  Ta27  1  0.81905702  0.61281765  0.90245521  1
  Ta5+  Ta28  1  0.39092998  0.37876404  0.87629397  1
  Ta5+  Ta29  1  0.89023508  0.36504945  0.63840158  1
  Ta5+  Ta30  1  0.13897044  0.62611024  0.63590838  1
  Ta5+  Ta31  1  0.35011842  0.87790156  0.63476665  1
  Ta5+  Ta32  1  0.16275120  0.65025034  0.12144469  1
  Ta5+  Ta33  1  0.16426482  0.40684519  0.12997024  1
  Ta5+  Ta34  1  0.82623497  0.87211489  0.90226708  1
  Ta5+  Ta35  1  0.37793817  0.37782789  0.12779001  1
  Ta5+  Ta36  1  0.67519955  0.63897761  0.35547636  1
  Ta5+  Ta37  1  0.13989433  0.87650422  0.88238631  1
  Ta5+  Ta38  1  0.88110899  0.60411700  0.14502924  1
  Ta5+  Ta39  1  0.61859020  0.40942024  0.36624992  1
  Ta5+  Ta40  1  0.32969512  0.62616261  0.12727344  1
  Ta5+  Ta41  1  0.38062016  0.88453641  0.38621572  1
  Ta5+  Ta42  1  0.12841886  0.59934771  0.88528693  1
  Ta5+  Ta43  1  0.12498499  0.38154826  0.62566533  1
  Ta5+  Ta44  1  0.65779192  0.38143596  0.11837857  1
  Ta5+  Ta45  1  0.39013955  0.11370000  0.36908975  1
  Ta5+  Ta46  1  0.91586097  0.87959449  0.38816589  1
  Ta5+  Ta47  1  0.39046066  0.37576817  0.60688961  1
  Ta5+  Ta48  1  0.64471270  0.11586038  0.10893062  1
  Ta5+  Ta49  1  0.88437380  0.37768845  0.37562055  1
  Ta5+  Ta50  1  0.62988688  0.10104412  0.37413759  1
  Ta5+  Ta51  1  0.10715720  0.88028380  0.63792539  1
  Ta5+  Ta52  1  0.09908537  0.11555925  0.39859699  1
  Ta5+  Ta53  1  0.16982104  0.43717314  0.88054223  1
  Ta5+  Ta54  1  0.65424774  0.61890033  0.11550892  1
  Ta5+  Ta55  1  0.62356476  0.12494007  0.62619459  1
  Ta5+  Ta56  1  0.38274992  0.12571613  0.62542563  1
  Ta5+  Ta57  1  0.32469407  0.59517004  0.87539134  1
  Ta5+  Ta58  1  0.88390142  0.10295173  0.14803968  1
  Ta5+  Ta59  1  0.41941479  0.40239164  0.37168082  1
  Ta5+  Ta60  1  0.84360239  0.62041834  0.39268868  1
  Ta5+  Ta61  1  0.89777276  0.11920451  0.39922424  1
  Ta5+  Ta62  1  0.88624456  0.13304994  0.64854764  1
  Ta5+  Ta63  1  0.13917539  0.06174548  0.87355070  1
  Ta5+  Ta64  1  0.08324569  0.87730276  0.38215074  1
  Ta5+  Ta65  1  0.88233197  0.88431071  0.64645887  1
  Ta5+  Ta66  1  0.62884403  0.12737163  0.86036322  1
  Ta5+  Ta67  1  0.12145813  0.42808578  0.37715249  1
  Ta5+  Ta68  1  0.61385153  0.62288322  0.91844006  1
  Ta5+  Ta69  1  0.63355599  0.38349022  0.87692882  1
  Ta5+  Ta70  1  0.88139192  0.86631562  0.14201783  1
  Ta5+  Ta71  1  0.81883570  0.42649237  0.12898905  1
  Ta5+  Ta72  1  0.12199034  0.61914925  0.38200832  1
  Ta5+  Ta73  1  0.35375467  0.88109288  0.12497805  1
  Ta5+  Ta74  1  0.61371839  0.87423748  0.88484279  1
  W6+  W75  1  0.36794384  0.63465352  0.38024357  1
  W6+  W76  1  0.87640226  0.60676763  0.63949099  1
  W6+  W77  1  0.13071453  0.12248077  0.63419993  1
  W6+  W78  1  0.86204251  0.36868289  0.89245637  1
  W6+  W79  1  0.11714747  0.86404283  0.11815299  1
  W6+  W80  1  0.30525782  0.91518068  0.87814888  1
  W6+  W81  1  0.64781193  0.39614703  0.61239099  1
  W6+  W82  1  0.40853899  0.12501292  0.11568558  1
  O2-  O83  1  0.11310698  -0.00398460  0.11683838  1
  O2-  O84  1  0.11888910  -0.00157959  0.37254054  1
  O2-  O85  1  0.08543292  -0.00386391  0.65239194  1
  O2-  O86  1  0.05557468  -0.02960247  0.87947377  1
  O2-  O87  1  0.17121267  0.52474914  0.13921011  1
  O2-  O88  1  0.20153640  0.51984437  0.37616586  1
  O2-  O89  1  0.13130709  0.50289117  0.63753956  1
  O2-  O90  1  0.05938636  0.48866854  0.87999588  1
  O2-  O91  1  0.40189102  -0.01105128  0.12086553  1
  O2-  O92  1  0.33893018  0.00374609  0.37423407  1
  O2-  O93  1  0.37373897  0.00678900  0.63854468  1
  O2-  O94  1  0.39740386  0.02033008  0.87798481  1
  O2-  O95  1  0.35953552  0.49754531  0.13924338  1
  O2-  O96  1  0.36432935  0.50573079  0.39087053  1
  O2-  O97  1  0.36558219  0.49412950  0.60988805  1
  O2-  O98  1  0.40355348  0.49888395  0.87128018  1
  O2-  O99  1  0.64114756  -0.00444330  0.10220173  1
  O2-  O100  1  0.66920665  -0.01650913  0.36875389  1
  O2-  O101  1  0.59334068  -0.00138353  0.62323898  1
  O2-  O102  1  0.60564048  -0.00677176  0.86526462  1
  O2-  O103  1  0.61741730  0.49575757  0.11535201  1
  O2-  O104  1  0.68083159  0.51497612  0.36394699  1
  O2-  O105  1  0.63922937  0.52910969  0.58372651  1
  O2-  O106  1  0.59644025  0.50556720  0.89819063  1
  O2-  O107  1  0.91897181  -0.01144036  0.15834689  1
  O2-  O108  1  0.88225234  0.00081445  0.38573458  1
  O2-  O109  1  0.88418253  0.01017580  0.65127948  1
  O2-  O110  1  0.84645672  -0.00336751  0.88271467  1
  O2-  O111  1  0.92724336  0.49665434  0.17043595  1
  O2-  O112  1  0.85535677  0.49327409  0.37981148  1
  O2-  O113  1  0.84671070  0.47320745  0.64775417  1
  O2-  O114  1  0.82362694  0.49539856  0.88147998  1
  O2-  O115  1  0.11562859  0.21870050  0.10471513  1
  O2-  O116  1  0.13277839  0.23942241  0.38336819  1
  O2-  O117  1  0.16269703  0.25847200  0.61601166  1
  O2-  O118  1  0.09935025  0.29317427  0.91990928  1
  O2-  O119  1  0.06596212  0.73972387  0.12804933  1
  O2-  O120  1  0.08365574  0.74300353  0.39239959  1
  O2-  O121  1  0.07817913  0.74568974  0.63124404  1
  O2-  O122  1  0.01149459  0.66020610  0.88292576  1
  O2-  O123  1  0.43813315  0.26400099  0.12849598  1
  O2-  O124  1  0.31497767  0.20445041  0.35837434  1
  O2-  O125  1  0.33668452  0.25437357  0.61556972  1
  O2-  O126  1  0.32246664  0.26474088  0.87253475  1
  O2-  O127  1  0.38642970  0.75341832  0.13132461  1
  O2-  O128  1  0.33680833  0.76923272  0.38990623  1
  O2-  O129  1  0.38156252  0.75791057  0.63197698  1
  O2-  O130  1  0.36609028  0.71600529  0.87313628  1
  O2-  O131  1  0.63579322  0.24670414  0.13620079  1
  O2-  O132  1  0.68137378  0.21338122  0.37055311  1
  O2-  O133  1  0.64319172  0.25040366  0.62667152  1
  O2-  O134  1  0.64617437  0.25211139  0.84297317  1
  O2-  O135  1  0.68449648  0.74591876  0.10029945  1
  O2-  O136  1  0.69332837  0.77500904  0.36433677  1
  O2-  O137  1  0.66546052  0.73778754  0.61737490  1
  O2-  O138  1  0.56387911  0.74108238  0.87607624  1
  O2-  O139  1  0.94684014  0.20870363  0.15791690  1
  O2-  O140  1  0.84780209  0.24716432  0.37914240  1
  O2-  O141  1  0.82919600  0.25326084  0.63405506  1
  O2-  O142  1  0.91130644  0.24209655  0.90685241  1
  O2-  O143  1  0.88908886  0.73836608  0.13091919  1
  O2-  O144  1  0.87470571  0.75218175  0.41411527  1
  O2-  O145  1  0.85946272  0.75052488  0.62346410  1
  O2-  O146  1  0.83496384  0.74477453  0.91269733  1
  O2-  O147  1  0.16598068  0.12028450  -0.01987995  1
  O2-  O148  1  0.13489243  0.12538538  0.25351327  1
  O2-  O149  1  0.17410829  0.11970851  0.50062523  1
  O2-  O150  1  0.15041228  0.15561833  0.77837604  1
  O2-  O151  1  0.13046992  0.65352359  -0.00026604  1
  O2-  O152  1  0.13649540  0.65447516  0.25774662  1
  O2-  O153  1  0.10425278  0.62410002  0.51116741  1
  O2-  O154  1  0.12442296  0.64684019  0.75914246  1
  O2-  O155  1  0.35886809  0.15795627  -0.00967261  1
  O2-  O156  1  0.43796985  0.12806889  0.25480053  1
  O2-  O157  1  0.37488603  0.13247306  0.50261099  1
  O2-  O158  1  0.34526406  0.14646073  0.75014514  1
  O2-  O159  1  0.36337804  0.62047664  0.00440370  1
  O2-  O160  1  0.32707582  0.64531031  0.25479555  1
  O2-  O161  1  0.41410543  0.63471596  0.50405626  1
  O2-  O162  1  0.38085541  0.61554028  0.74663837  1
  O2-  O163  1  0.65069943  0.13178209  -0.01956441  1
  O2-  O164  1  0.62401499  0.11542561  0.24648085  1
  O2-  O165  1  0.66308879  0.11651091  0.50790482  1
  O2-  O166  1  0.67404916  0.10743404  0.73803006  1
  O2-  O167  1  0.55607487  0.64564744  0.03290729  1
  O2-  O168  1  0.63772936  0.64069471  0.23647647  1
  O2-  O169  1  0.57807835  0.65938185  0.44574469  1
  O2-  O170  1  0.51290871  0.64762674  0.64273849  1
  O2-  O171  1  0.90639762  0.10723075  0.01843835  1
  O2-  O172  1  0.83877224  0.11678347  0.27119489  1
  O2-  O173  1  0.84375431  0.13349962  0.51859393  1
  O2-  O174  1  0.86004349  0.13939672  0.76998785  1
  O2-  O175  1  0.88593332  0.60750472  0.01150490  1
  O2-  O176  1  0.88184088  0.64004276  0.27489114  1
  O2-  O177  1  0.90989933  0.60792225  0.50509809  1
  O2-  O178  1  0.86517169  0.64088200  0.77954482  1
  O2-  O179  1  0.18763465  0.39764733  0.00657266  1
  O2-  O180  1  0.15829519  0.38016814  0.26649439  1
  O2-  O181  1  0.15442732  0.38389820  0.49079291  1
  O2-  O182  1  0.13356463  0.36377677  0.75568124  1
  O2-  O183  1  0.09030726  0.83029213  -0.01526192  1
  O2-  O184  1  0.11805912  0.85313236  0.25739263  1
  O2-  O185  1  0.08810187  0.87466900  0.51451876  1
  O2-  O186  1  0.10091763  0.83854037  0.76530866  1
  O2-  O187  1  0.37446843  0.37503596  0.00071283  1
  O2-  O188  1  0.38420421  0.36316610  0.26268369  1
  O2-  O189  1  0.36777233  0.35180240  0.48005816  1
  O2-  O190  1  0.39195558  0.35803734  0.73923762  1
  O2-  O191  1  0.35453368  0.86304654  -0.00103004  1
  O2-  O192  1  0.34210774  0.87732327  0.25650535  1
  O2-  O193  1  0.38915554  0.89194169  0.51148163  1
  O2-  O194  1  0.38092584  0.87242230  0.75652149  1
  O2-  O195  1  0.66464739  0.35934605  -0.00686626  1
  O2-  O196  1  0.64821040  0.35905418  0.25692155  1
  O2-  O197  1  0.66507162  0.37106397  0.47501556  1
  O2-  O198  1  0.62826643  0.39886452  0.74896657  1
  O2-  O199  1  0.56143637  0.85521303  0.00281438  1
  O2-  O200  1  0.62425407  0.86720885  0.22426453  1
  O2-  O201  1  0.62323037  0.86298828  0.50059403  1
  O2-  O202  1  0.57147042  0.84909604  0.73330317  1
  O2-  O203  1  0.86536345  0.36508103  0.03348713  1
  O2-  O204  1  0.83874333  0.36575339  0.25372907  1
  O2-  O205  1  0.86358921  0.35888095  0.50076520  1
  O2-  O206  1  0.91680172  0.34756848  0.75931284  1
  O2-  O207  1  0.89169164  0.87379146  0.00919599  1
  O2-  O208  1  0.88408996  0.84836712  0.26666536  1
  O2-  O209  1  0.89729886  0.88218044  0.52229652  1
  O2-  O210  1  0.88209315  0.84769387  0.77641759  1
  O2-  O211  1  0.01550729  0.11886932  -0.13517016  1
  O2-  O212  1  -0.00750028  0.15814544  0.32737287  1
  O2-  O213  1  0.00175300  0.10551666  0.47596844  1
  O2-  O214  1  -0.00163077  0.17015237  0.66055367  1
  O2-  O215  1  0.05006649  0.37095086  0.13069921  1
  O2-  O216  1  0.04104508  0.52221738  0.36871416  1
  O2-  O217  1  0.00241911  0.36174756  0.35310492  1
  O2-  O218  1  0.00663019  0.36457375  0.60168074  1
  O2-  O219  1  0.20521020  -0.03897719  -0.04246012  1
  O2-  O220  1  0.27592190  0.11836894  0.13738527  1
  O2-  O221  1  0.23176975  -0.12725870  0.63221104  1
  O2-  O222  1  0.21168818  -0.01321225  0.79905768  1
  O2-  O223  1  0.23248333  0.53915518  -0.05206132  1
  O2-  O224  1  0.26305058  0.32373216  0.13505522  1
  O2-  O225  1  0.25538621  0.64192642  0.61434722  1
  O2-  O226  1  0.23708011  0.51764526  0.79796632  1
  O2-  O227  1  0.50775108  0.15722758  -0.16592637  1
  O2-  O228  1  0.49974839  -0.11908680  0.36242577  1
  O2-  O229  1  0.51486575  0.10381596  0.40587990  1
  O2-  O230  1  0.50252288  0.15295118  0.64290669  1
  O2-  O231  1  0.50855279  0.34703982  -0.12502990  1
  O2-  O232  1  0.51841864  0.47559771  0.34174048  1
  O2-  O233  1  0.51973181  0.31547464  0.37682633  1
  O2-  O234  1  0.50802793  0.36568392  0.60397633  1
  O2-  O235  1  0.71549866  -0.11625421  -0.02480490  1
  O2-  O236  1  0.76690884  0.13317785  0.12212647  1
  O2-  O237  1  0.74657416  -0.11325942  0.64073257  1
  O2-  O238  1  0.71902932  -0.15225295  0.82246305  1
  O2-  O239  1  0.71642106  0.60889639  -0.00873470  1
  O2-  O240  1  0.76673396  0.55837818  0.15206831  1
  O2-  O241  1  0.74015133  0.64781946  0.47815407  1
  O2-  O242  1  0.70487860  0.63891637  0.83048176  1
