# generated using pymatgen
data_Gd19Ta56(WO20)8
_symmetry_space_group_name_H-M   'P 1'
_cell_length_a   15.44745557
_cell_length_b   15.32969240
_cell_length_c   15.20010777
_cell_angle_alpha   89.95552832
_cell_angle_beta   89.93323702
_cell_angle_gamma   90.09016140
_symmetry_Int_Tables_number   1
_chemical_formula_structural   Gd19Ta56(WO20)8
_chemical_formula_sum   'Gd19 Ta56 W8 O160'
_cell_volume   3599.44961199
_cell_formula_units_Z   1
loop_
 _symmetry_equiv_pos_site_id
 _symmetry_equiv_pos_as_xyz
  1  'x, y, z'
loop_
 _atom_type_symbol
 _atom_type_oxidation_number
  Gd3+  3.0
  Ta5+  5.0
  W6+  6.0
  O2-  -2.0
loop_
 _atom_site_type_symbol
 _atom_site_label
 _atom_site_symmetry_multiplicity
 _atom_site_fract_x
 _atom_site_fract_y
 _atom_site_fract_z
 _atom_site_occupancy
  Gd3+  Gd0  1  0.21804019  0.74584971  0.77905176  1
  Gd3+  Gd1  1  -0.00799059  0.24880642  0.48018734  1
  Gd3+  Gd2  1  0.25130914  0.73391150  0.49749301  1
  Gd3+  Gd3  1  0.73715538  0.74967125  0.74681415  1
  Gd3+  Gd4  1  0.75821994  0.75637022  0.24454338  1
  Gd3+  Gd5  1  0.73902835  0.76064615  0.49834781  1
  Gd3+  Gd6  1  0.53432325  0.22366826  0.50002946  1
  Gd3+  Gd7  1  0.44904026  0.75533631  0.74112944  1
  Gd3+  Gd8  1  0.00927160  0.75420555  0.21915655  1
  Gd3+  Gd9  1  -0.02803761  0.78778202  0.75259822  1
  Gd3+  Gd10  1  0.00671987  0.25490090  0.25983544  1
  Gd3+  Gd11  1  0.77719404  0.75537243  -0.02129290  1
  Gd3+  Gd12  1  0.52119251  0.26195696  0.23792957  1
  Gd3+  Gd13  1  0.20519809  0.22930388  0.73629482  1
  Gd3+  Gd14  1  0.75763582  0.26968007  -0.01762334  1
  Gd3+  Gd15  1  -0.00732742  0.25895353  0.03217646  1
  Gd3+  Gd16  1  0.24041755  0.22704788  -0.02122820  1
  Gd3+  Gd17  1  0.49130918  0.75178853  0.51497716  1
  Gd3+  Gd18  1  0.01776033  0.75773900  -0.02517438  1
  Ta5+  Ta19  1  0.12971557  0.10418937  0.12665468  1
  Ta5+  Ta20  1  0.68149954  0.38566095  0.14439500  1
  Ta5+  Ta21  1  0.15225637  0.36842318  0.12888489  1
  Ta5+  Ta22  1  0.09111836  0.57747599  0.86075826  1
  Ta5+  Ta23  1  0.66796353  0.12132363  0.35568445  1
  Ta5+  Ta24  1  0.12300677  0.90643200  0.12040874  1
  Ta5+  Ta25  1  0.30245058  0.36258961  0.59723389  1
  Ta5+  Ta26  1  0.37448246  0.12522038  0.11744658  1
  Ta5+  Ta27  1  0.87875278  0.63092667  0.61627906  1
  Ta5+  Ta28  1  0.89131886  0.63126108  0.37150749  1
  Ta5+  Ta29  1  0.38167147  0.12001913  0.36879922  1
  Ta5+  Ta30  1  0.12782061  0.61894586  0.36163343  1
  Ta5+  Ta31  1  0.84481441  0.13990219  0.14379725  1
  Ta5+  Ta32  1  0.92746498  0.38150247  0.87069460  1
  Ta5+  Ta33  1  0.10091408  0.37002186  0.87020673  1
  Ta5+  Ta34  1  0.85178183  0.38562418  0.14092618  1
  Ta5+  Ta35  1  0.62314474  0.88710187  0.15492847  1
  Ta5+  Ta36  1  0.37006382  0.35937868  0.38951365  1
  Ta5+  Ta37  1  0.64392343  0.63168627  0.12562746  1
  Ta5+  Ta38  1  0.35376510  0.36297019  0.12781030  1
  Ta5+  Ta39  1  0.89445023  0.88210847  0.38076113  1
  Ta5+  Ta40  1  0.68656127  0.11021305  0.61361154  1
  Ta5+  Ta41  1  0.63626404  0.36087035  0.63233596  1
  Ta5+  Ta42  1  0.58502492  0.87712020  0.91488272  1
  Ta5+  Ta43  1  0.62665739  0.61440582  0.61969016  1
  Ta5+  Ta44  1  0.36650486  0.59835336  0.62037346  1
  Ta5+  Ta45  1  0.84036557  0.12367623  0.35907190  1
  Ta5+  Ta46  1  0.16903150  0.37308151  0.37903423  1
  Ta5+  Ta47  1  0.65727716  0.11559786  0.86973712  1
  Ta5+  Ta48  1  0.85542291  0.13619050  0.61533833  1
  Ta5+  Ta49  1  0.43368817  0.87430132  0.35317469  1
  Ta5+  Ta50  1  0.40507124  0.11750718  0.86050015  1
  Ta5+  Ta51  1  0.35645384  0.11887276  0.61175220  1
  Ta5+  Ta52  1  0.12074771  0.37058149  0.61093344  1
  Ta5+  Ta53  1  0.59675409  0.36926343  0.88395540  1
  Ta5+  Ta54  1  0.87658719  0.96424290  0.87096878  1
  Ta5+  Ta55  1  0.11870349  0.61946996  0.62117673  1
  Ta5+  Ta56  1  0.05303645  0.13659847  0.87239663  1
  Ta5+  Ta57  1  0.10564660  0.86646494  0.37701840  1
  Ta5+  Ta58  1  0.11287529  0.92655319  0.87059476  1
  Ta5+  Ta59  1  0.67670854  0.13186202  0.13742152  1
  Ta5+  Ta60  1  0.62333960  0.62030239  0.36075874  1
  Ta5+  Ta61  1  0.82219894  0.91975863  0.62871354  1
  Ta5+  Ta62  1  0.40522321  0.60824162  0.35636965  1
  Ta5+  Ta63  1  0.91569028  0.38315457  0.61789465  1
  Ta5+  Ta64  1  0.40125591  0.87389042  0.14395605  1
  Ta5+  Ta65  1  0.14831386  0.61921643  0.10461579  1
  Ta5+  Ta66  1  0.64060746  0.37932227  0.38676682  1
  Ta5+  Ta67  1  0.88622415  0.15476713  0.86565554  1
  Ta5+  Ta68  1  0.60197409  0.88674078  0.36981787  1
  Ta5+  Ta69  1  0.86140113  0.38749796  0.36380082  1
  Ta5+  Ta70  1  0.34843870  0.87277997  0.89222822  1
  Ta5+  Ta71  1  0.86419448  0.59950198  0.85906361  1
  Ta5+  Ta72  1  0.86459140  0.89538420  0.11338724  1
  Ta5+  Ta73  1  0.14242342  0.10700629  0.38009348  1
  Ta5+  Ta74  1  0.61509383  0.91072647  0.62212333  1
  W6+  W75  1  0.35587798  0.88566436  0.61043797  1
  W6+  W76  1  0.14451075  0.88423821  0.61961343  1
  W6+  W77  1  0.61386710  0.62443148  0.87983772  1
  W6+  W78  1  0.38036522  0.60805283  0.88807658  1
  W6+  W79  1  0.38602756  0.61710986  0.13222509  1
  W6+  W80  1  0.34727306  0.36022252  0.85671498  1
  W6+  W81  1  0.89714005  0.62819406  0.10882331  1
  W6+  W82  1  0.05981688  0.11380155  0.61885346  1
  O2-  O83  1  0.04760180  0.00275259  0.13530920  1
  O2-  O84  1  0.15353057  -0.01603742  0.36524602  1
  O2-  O85  1  0.08264440  -0.01090161  0.62472525  1
  O2-  O86  1  0.15261988  0.03869642  0.86775666  1
  O2-  O87  1  0.15290295  0.49735486  0.11583457  1
  O2-  O88  1  0.17828247  0.50804118  0.36408863  1
  O2-  O89  1  0.10076989  0.50064194  0.61270650  1
  O2-  O90  1  0.17082897  0.48398673  0.86542130  1
  O2-  O91  1  0.41443898  0.01086296  0.12180167  1
  O2-  O92  1  0.42254959  0.00786289  0.35662187  1
  O2-  O93  1  0.30033398  0.01392430  0.60931269  1
  O2-  O94  1  0.37012063  -0.00012533  0.86495498  1
  O2-  O95  1  0.36131206  0.48073731  0.12719981  1
  O2-  O96  1  0.40094482  0.48036094  0.37824673  1
  O2-  O97  1  0.36852884  0.47848165  0.61181046  1
  O2-  O98  1  0.36761136  0.49237422  0.86303138  1
  O2-  O99  1  0.65119474  0.00310431  0.13299635  1
  O2-  O100  1  0.61954643  0.00676338  0.37389759  1
  O2-  O101  1  0.57556288  0.02428399  0.62826275  1
  O2-  O102  1  0.62621593  -0.01463996  0.89119659  1
  O2-  O103  1  0.64059441  0.50819826  0.12972098  1
  O2-  O104  1  0.64993089  0.50566428  0.39875133  1
  O2-  O105  1  0.63465735  0.49335500  0.61547193  1
  O2-  O106  1  0.60065676  0.48919327  0.87804505  1
  O2-  O107  1  0.85792585  0.01415220  0.12805522  1
  O2-  O108  1  0.84292290  -0.00957189  0.35890563  1
  O2-  O109  1  0.89946142  0.01078166  0.60797586  1
  O2-  O110  1  0.78532560  0.05233468  0.88167108  1
  O2-  O111  1  0.86411284  0.50534623  0.13283805  1
  O2-  O112  1  0.84104446  0.52142088  0.37240539  1
  O2-  O113  1  0.89890487  0.51388977  0.60672215  1
  O2-  O114  1  0.83795028  0.48217922  0.87100306  1
  O2-  O115  1  0.10086730  0.24164776  0.13941955  1
  O2-  O116  1  0.10650526  0.24204553  0.37761466  1
  O2-  O117  1  0.09853869  0.24125066  0.59849276  1
  O2-  O118  1  0.14122452  0.24165463  0.87050859  1
  O2-  O119  1  0.10457273  0.76152568  0.09940053  1
  O2-  O120  1  0.17680305  0.73868198  0.36066616  1
  O2-  O121  1  0.17142735  0.75003805  0.63242963  1
  O2-  O122  1  0.08444728  0.72311214  0.84920514  1
  O2-  O123  1  0.43002643  0.24058136  0.11652158  1
  O2-  O124  1  0.44274059  0.23525873  0.37270993  1
  O2-  O125  1  0.29023182  0.22118883  0.59686617  1
  O2-  O126  1  0.31961564  0.21638931  0.84600220  1
  O2-  O127  1  0.41094861  0.75458623  0.13772401  1
  O2-  O128  1  0.43922579  0.73915132  0.36246509  1
  O2-  O129  1  0.36804727  0.74464206  0.60232551  1
  O2-  O130  1  0.34160500  0.74249271  0.88135664  1
  O2-  O131  1  0.64951235  0.26257204  0.14682375  1
  O2-  O132  1  0.61616351  0.25026090  0.37038426  1
  O2-  O133  1  0.63942647  0.23681631  0.62046133  1
  O2-  O134  1  0.66024927  0.24558739  0.87292175  1
  O2-  O135  1  0.61659234  0.74815667  0.17384583  1
  O2-  O136  1  0.65160799  0.74989027  0.36914233  1
  O2-  O137  1  0.64495133  0.75673848  0.62278279  1
  O2-  O138  1  0.74777444  0.63388143  0.89855592  1
  O2-  O139  1  0.90065548  0.26212354  0.15511118  1
  O2-  O140  1  0.88918235  0.25786186  0.36063743  1
  O2-  O141  1  0.88679652  0.26279245  0.60713863  1
  O2-  O142  1  0.85111328  0.27792019  0.86214523  1
  O2-  O143  1  0.91675228  0.77164607  0.08948338  1
  O2-  O144  1  0.83007207  0.75677854  0.37439920  1
  O2-  O145  1  0.84824298  0.78147449  0.64728795  1
  O2-  O146  1  0.86859569  0.74763412  0.85062536  1
  O2-  O147  1  0.10061262  0.13493877  0.00534671  1
  O2-  O148  1  0.12451414  0.11876913  0.25605245  1
  O2-  O149  1  0.06348063  0.10780194  0.47545754  1
  O2-  O150  1  0.07633359  0.14595828  0.74732273  1
  O2-  O151  1  0.09824394  0.62079813  -0.01466405  1
  O2-  O152  1  0.11059084  0.63777576  0.22951855  1
  O2-  O153  1  0.11936774  0.64385640  0.48917324  1
  O2-  O154  1  0.15114897  0.61139527  0.74682561  1
  O2-  O155  1  0.37162172  0.13401360  -0.01524833  1
  O2-  O156  1  0.36598175  0.13860427  0.24748098  1
  O2-  O157  1  0.42309026  0.12030089  0.50464250  1
  O2-  O158  1  0.40631097  0.12283483  0.72468694  1
  O2-  O159  1  0.42259405  0.61342679  0.00438402  1
  O2-  O160  1  0.32790023  0.61929756  0.26704263  1
  O2-  O161  1  0.38159921  0.62825929  0.48237781  1
  O2-  O162  1  0.34804279  0.63518654  0.74137719  1
  O2-  O163  1  0.67471058  0.13787654  0.00731770  1
  O2-  O164  1  0.59052093  0.12977615  0.24503346  1
  O2-  O165  1  0.65632785  0.13236028  0.48651577  1
  O2-  O166  1  0.67453356  0.10768501  0.74902145  1
  O2-  O167  1  0.60941516  0.65842050  0.01265149  1
  O2-  O168  1  0.69925497  0.61798575  0.26192752  1
  O2-  O169  1  0.59841162  0.64537982  0.48863454  1
  O2-  O170  1  0.64519253  0.62854802  0.74166110  1
  O2-  O171  1  0.86956337  0.16763031  0.01348112  1
  O2-  O172  1  0.92425452  0.12407802  0.25596420  1
  O2-  O173  1  0.86641113  0.13612477  0.48000351  1
  O2-  O174  1  0.87253501  0.14029293  0.74198880  1
  O2-  O175  1  0.91397685  0.63448546  -0.02804199  1
  O2-  O176  1  0.88887685  0.66478731  0.24698140  1
  O2-  O177  1  0.89458913  0.66558193  0.49332746  1
  O2-  O178  1  0.82916561  0.62688738  0.73390569  1
  O2-  O179  1  0.13494107  0.34743179  0.00237209  1
  O2-  O180  1  0.12741131  0.37479596  0.25917176  1
  O2-  O181  1  0.09302691  0.37681420  0.47737843  1
  O2-  O182  1  0.11708923  0.35668968  0.74164822  1
  O2-  O183  1  0.09311977  0.89523622  -0.00367269  1
  O2-  O184  1  0.10982980  0.86419428  0.24447048  1
  O2-  O185  1  0.16730485  0.85652338  0.48523705  1
  O2-  O186  1  0.11680689  0.86855948  0.75674687  1
  O2-  O187  1  0.33109968  0.34083589  0.00086940  1
  O2-  O188  1  0.39577080  0.35035016  0.25159365  1
  O2-  O189  1  0.40516192  0.32535546  0.50764357  1
  O2-  O190  1  0.30632962  0.34822834  0.72280875  1
  O2-  O191  1  0.36424267  0.88071483  0.01446530  1
  O2-  O192  1  0.33909757  0.88233950  0.24838905  1
  O2-  O193  1  0.39567858  0.86894013  0.47245646  1
  O2-  O194  1  0.33254659  0.85204520  0.75045155  1
  O2-  O195  1  0.64661550  0.36814447  0.00607723  1
  O2-  O196  1  0.59639791  0.38874939  0.26729272  1
  O2-  O197  1  0.58583439  0.36537987  0.50239387  1
  O2-  O198  1  0.61849392  0.36344824  0.75167535  1
  O2-  O199  1  0.56479809  0.86851200  0.03521351  1
  O2-  O200  1  0.68462047  0.88487765  0.26638797  1
  O2-  O201  1  0.61006429  0.86332364  0.49777787  1
  O2-  O202  1  0.66281050  0.78761651  0.87867257  1
  O2-  O203  1  0.88420147  0.36341307  0.00989587  1
  O2-  O204  1  0.93807645  0.39431112  0.26422277  1
  O2-  O205  1  0.91813549  0.38885522  0.47731052  1
  O2-  O206  1  0.92533524  0.38654857  0.74232256  1
  O2-  O207  1  0.84725078  0.90003259  -0.02027653  1
  O2-  O208  1  0.88966226  0.86073384  0.24207626  1
  O2-  O209  1  0.84489065  0.87141075  0.49891696  1
  O2-  O210  1  0.87039546  0.91701720  0.75482411  1
  O2-  O211  1  -0.03805627  0.04496302  -0.08217362  1
  O2-  O212  1  0.00152928  -0.21843657  0.36561044  1
  O2-  O213  1  0.00292505  -0.06729321  0.41275211  1
  O2-  O214  1  -0.01025473  -0.11870965  0.87160807  1
  O2-  O215  1  0.01997019  0.47022816  -0.08379034  1
  O2-  O216  1  0.00700295  0.59311783  0.36324807  1
  O2-  O217  1  -0.00019740  0.67010365  0.64249734  1
  O2-  O218  1  -0.01975641  0.59199857  0.80511151  1
  O2-  O219  1  0.21082815  -0.01117666  0.11871961  1
  O2-  O220  1  0.25179696  0.15110978  0.11177871  1
  O2-  O221  1  0.26324751  0.12106223  0.40774519  1
  O2-  O222  1  0.22395272  -0.13080444  0.89199739  1
  O2-  O223  1  0.25867945  0.65194193  0.08923107  1
  O2-  O224  1  0.26722659  0.29874674  0.34975666  1
  O2-  O225  1  0.26750570  0.40366941  0.47000912  1
  O2-  O226  1  0.24712832  0.60740699  0.58988938  1
  O2-  O227  1  0.52476734  0.12469403  -0.12791237  1
  O2-  O228  1  0.50889483  -0.10834491  0.21624240  1
  O2-  O229  1  0.49871596  -0.14439451  0.63661966  1
  O2-  O230  1  0.47950294  -0.13918605  0.85541939  1
  O2-  O231  1  0.48344480  0.33728865  -0.11170153  1
  O2-  O232  1  0.51900886  0.59551558  0.30298820  1
  O2-  O233  1  0.49692914  0.63413885  0.62921743  1
  O2-  O234  1  0.49274939  0.66172304  0.84293118  1
  O2-  O235  1  0.74560478  -0.15167457  0.10786867  1
  O2-  O236  1  0.75831507  0.16689673  0.25390564  1
  O2-  O237  1  0.72503751  -0.02100959  0.56988881  1
  O2-  O238  1  0.70844620  -0.10626015  0.70910421  1
  O2-  O239  1  0.76304597  0.66821619  0.10262184  1
  O2-  O240  1  0.76809573  0.38138601  0.24927635  1
  O2-  O241  1  0.75307866  0.35543790  0.42183227  1
  O2-  O242  1  0.75100639  0.63226095  0.57830939  1
