# generated using pymatgen
data_Gd19Ta56(WO20)8
_symmetry_space_group_name_H-M   'P 1'
_cell_length_a   15.40814337
_cell_length_b   15.35923490
_cell_length_c   15.27244535
_cell_angle_alpha   90.04662451
_cell_angle_beta   89.91569913
_cell_angle_gamma   90.13428511
_symmetry_Int_Tables_number   1
_chemical_formula_structural   Gd19Ta56(WO20)8
_chemical_formula_sum   'Gd19 Ta56 W8 O160'
_cell_volume   3614.32055356
_cell_formula_units_Z   1
loop_
 _symmetry_equiv_pos_site_id
 _symmetry_equiv_pos_as_xyz
  1  'x, y, z'
loop_
 _atom_type_symbol
 _atom_type_oxidation_number
  Gd3+  3.0
  Ta5+  5.0
  W6+  6.0
  O2-  -2.0
loop_
 _atom_site_type_symbol
 _atom_site_label
 _atom_site_symmetry_multiplicity
 _atom_site_fract_x
 _atom_site_fract_y
 _atom_site_fract_z
 _atom_site_occupancy
  Gd3+  Gd0  1  -0.00988846  0.27024621  0.01065470  1
  Gd3+  Gd1  1  0.51639223  0.25347494  0.75412619  1
  Gd3+  Gd2  1  0.21683919  0.28654544  0.27520449  1
  Gd3+  Gd3  1  0.45580059  0.24348509  -0.00305098  1
  Gd3+  Gd4  1  -0.00497333  0.24074728  0.74256330  1
  Gd3+  Gd5  1  0.71894274  0.27600270  -0.03265909  1
  Gd3+  Gd6  1  0.52315816  0.24429126  0.24838420  1
  Gd3+  Gd7  1  0.74372536  0.25982553  0.45514628  1
  Gd3+  Gd8  1  -0.03874239  0.75039195  0.01503118  1
  Gd3+  Gd9  1  -0.02024386  0.26345172  0.25550803  1
  Gd3+  Gd10  1  0.26879761  0.72235319  -0.02124715  1
  Gd3+  Gd11  1  0.01354220  0.26058345  0.48045464  1
  Gd3+  Gd12  1  0.27261862  0.24605511  0.77571967  1
  Gd3+  Gd13  1  0.51447331  0.76302858  0.45606223  1
  Gd3+  Gd14  1  0.25515350  0.73398863  0.73869983  1
  Gd3+  Gd15  1  0.50353270  0.75799468  0.71581023  1
  Gd3+  Gd16  1  0.76320109  0.25300203  0.73026315  1
  Gd3+  Gd17  1  -0.02307636  0.72874972  0.27190270  1
  Gd3+  Gd18  1  0.00301240  0.75695289  0.51891366  1
  Ta5+  Ta19  1  0.88931176  0.39093183  0.61184662  1
  Ta5+  Ta20  1  0.07367774  0.09405257  0.60942650  1
  Ta5+  Ta21  1  0.12809905  0.84187385  0.13625825  1
  Ta5+  Ta22  1  0.66123623  0.87153632  0.59791966  1
  Ta5+  Ta23  1  0.17357554  0.87311300  0.60495219  1
  Ta5+  Ta24  1  0.87389979  0.43095398  0.37181887  1
  Ta5+  Ta25  1  0.65500051  0.64209965  0.83865023  1
  Ta5+  Ta26  1  0.81666448  0.63081448  0.64104400  1
  Ta5+  Ta27  1  0.40092840  0.38690213  0.36870882  1
  Ta5+  Ta28  1  0.64575731  0.84352833  0.84806116  1
  Ta5+  Ta29  1  0.80410314  0.64203755  0.14435523  1
  Ta5+  Ta30  1  0.81224626  0.64031535  0.89419469  1
  Ta5+  Ta31  1  0.37614553  0.06808855  0.16820188  1
  Ta5+  Ta32  1  0.83829766  0.04621948  0.58722615  1
  Ta5+  Ta33  1  0.69222198  0.84975103  0.35280792  1
  Ta5+  Ta34  1  0.80760595  0.63861531  0.38806453  1
  Ta5+  Ta35  1  0.17182573  0.85270659  0.38564167  1
  Ta5+  Ta36  1  0.82586652  0.85442144  0.63420294  1
  Ta5+  Ta37  1  0.63114870  0.11090374  0.59278916  1
  Ta5+  Ta38  1  0.36968195  0.12881288  0.38635381  1
  Ta5+  Ta39  1  0.15182687  0.60940973  0.15596083  1
  Ta5+  Ta40  1  0.86505361  0.09698430  0.35813576  1
  Ta5+  Ta41  1  0.65148832  0.42504165  0.35037374  1
  Ta5+  Ta42  1  0.64434843  0.64554360  0.33660894  1
  Ta5+  Ta43  1  0.19708630  0.06727363  0.90976603  1
  Ta5+  Ta44  1  0.08287798  0.59741863  0.84752178  1
  Ta5+  Ta45  1  0.83420855  0.87420103  0.14463109  1
  Ta5+  Ta46  1  0.40506982  0.65646421  0.13404607  1
  Ta5+  Ta47  1  0.65546504  0.64088383  0.58972980  1
  Ta5+  Ta48  1  0.85692354  0.86097107  0.39150023  1
  Ta5+  Ta49  1  0.64587021  0.11751217  0.10074819  1
  Ta5+  Ta50  1  0.63686727  0.38801182  0.60667261  1
  Ta5+  Ta51  1  0.18171878  0.64308336  0.39007226  1
  Ta5+  Ta52  1  0.67337960  0.86811621  0.09408570  1
  Ta5+  Ta53  1  0.38661211  0.61126400  0.61611430  1
  Ta5+  Ta54  1  0.14395844  0.41607654  0.11730263  1
  Ta5+  Ta55  1  0.84830035  0.39640468  0.12508272  1
  Ta5+  Ta56  1  0.88585265  0.11561827  0.10823810  1
  Ta5+  Ta57  1  0.13455129  0.09871587  0.36168428  1
  Ta5+  Ta58  1  0.36986531  0.41381654  0.87619371  1
  Ta5+  Ta59  1  0.34243330  0.88288732  0.38355214  1
  Ta5+  Ta60  1  0.14617007  0.61268827  0.60072130  1
  Ta5+  Ta61  1  0.39700899  0.06865136  0.86421557  1
  Ta5+  Ta62  1  0.60073186  0.08886485  0.86929751  1
  Ta5+  Ta63  1  0.35564598  0.41845682  0.12742734  1
  Ta5+  Ta64  1  0.12739457  0.08606927  0.14398121  1
  Ta5+  Ta65  1  0.80756687  0.85496365  0.88322982  1
  Ta5+  Ta66  1  0.38812002  0.36110584  0.59905733  1
  Ta5+  Ta67  1  0.57534380  0.42173384  0.86543209  1
  Ta5+  Ta68  1  0.63912548  0.64080480  0.09237399  1
  Ta5+  Ta69  1  0.34595972  0.87612862  0.59989136  1
  Ta5+  Ta70  1  0.35363991  0.63333457  0.37853981  1
  Ta5+  Ta71  1  0.36584996  0.87014405  0.86574993  1
  Ta5+  Ta72  1  0.14474748  0.36010282  0.61105117  1
  Ta5+  Ta73  1  0.60462980  0.39620340  0.11228337  1
  Ta5+  Ta74  1  0.63444919  0.08232046  0.34318495  1
  W6+  W75  1  0.38571619  0.11957749  0.62816040  1
  W6+  W76  1  0.37754678  0.86195985  0.13054144  1
  W6+  W77  1  0.11317654  0.40167386  0.86393363  1
  W6+  W78  1  0.87137770  0.09093016  0.89632861  1
  W6+  W79  1  0.08576059  0.46670024  0.46345336  1
  W6+  W80  1  0.44119485  0.62081030  0.87544667  1
  W6+  W81  1  0.13440641  0.84550712  0.86837646  1
  W6+  W82  1  0.89522506  0.41164742  0.86622308  1
  O2-  O83  1  0.09753517  -0.04179413  0.12428430  1
  O2-  O84  1  0.16816326  -0.02002469  0.38210594  1
  O2-  O85  1  0.15500777  0.00311075  0.60807149  1
  O2-  O86  1  0.11852859  -0.02013108  0.88395733  1
  O2-  O87  1  0.06792438  0.51670764  0.14667312  1
  O2-  O88  1  0.18102705  0.51940494  0.38307219  1
  O2-  O89  1  0.16293689  0.48390224  0.58744023  1
  O2-  O90  1  0.16956375  0.52501781  0.88452576  1
  O2-  O91  1  0.43753169  -0.01367746  0.10919978  1
  O2-  O92  1  0.34367704  0.01043236  0.40574990  1
  O2-  O93  1  0.35369202  -0.00398114  0.60617763  1
  O2-  O94  1  0.45580021  -0.04472569  0.87365703  1
  O2-  O95  1  0.40635175  0.52858435  0.12314099  1
  O2-  O96  1  0.38184947  0.50395911  0.38904282  1
  O2-  O97  1  0.38687876  0.48051764  0.61554597  1
  O2-  O98  1  0.34192185  0.52878846  0.85299882  1
  O2-  O99  1  0.64447997  -0.00494247  0.08624230  1
  O2-  O100  1  0.61804660  -0.03808934  0.33048326  1
  O2-  O101  1  0.62068392  -0.00584044  0.63057192  1
  O2-  O102  1  0.63380486  -0.02499550  0.85474430  1
  O2-  O103  1  0.60755511  0.51523933  0.12539729  1
  O2-  O104  1  0.59128641  0.52718450  0.31779585  1
  O2-  O105  1  0.63738752  0.50993742  0.60217367  1
  O2-  O106  1  0.64631123  0.51163565  0.82342059  1
  O2-  O107  1  0.85095042  -0.00111767  0.14571148  1
  O2-  O108  1  0.90650266  -0.01237551  0.38514357  1
  O2-  O109  1  0.87424618  -0.02957026  0.67577329  1
  O2-  O110  1  0.82202791  -0.01932409  0.87457704  1
  O2-  O111  1  0.81844158  0.51563724  0.13323865  1
  O2-  O112  1  0.90494214  0.54016594  0.41433294  1
  O2-  O113  1  0.86604636  0.51521970  0.62159430  1
  O2-  O114  1  0.83038533  0.52079140  0.89228731  1
  O2-  O115  1  0.01858038  0.15589528  0.11797239  1
  O2-  O116  1  0.09564533  0.22436744  0.34080858  1
  O2-  O117  1  0.10057613  0.22276655  0.61084832  1
  O2-  O118  1  -0.00154848  0.31287634  0.87237432  1
  O2-  O119  1  0.07163335  0.71859948  0.14789278  1
  O2-  O120  1  0.08812369  0.74411857  0.38500885  1
  O2-  O121  1  0.16008560  0.73780981  0.60073044  1
  O2-  O122  1  0.17047643  0.70589881  0.85484554  1
  O2-  O123  1  0.47914751  0.36486617  0.13272133  1
  O2-  O124  1  0.39369339  0.25142330  0.33036235  1
  O2-  O125  1  0.39183203  0.25527398  0.67314555  1
  O2-  O126  1  0.39262533  0.26967407  0.86164245  1
  O2-  O127  1  0.31420636  0.73897460  0.13059844  1
  O2-  O128  1  0.37313504  0.75635419  0.38834575  1
  O2-  O129  1  0.37472244  0.74336413  0.62245985  1
  O2-  O130  1  0.36669776  0.73799066  0.84604658  1
  O2-  O131  1  0.59098357  0.23968181  0.09109923  1
  O2-  O132  1  0.62003042  0.21102349  0.35696933  1
  O2-  O133  1  0.66460205  0.24300278  0.58386370  1
  O2-  O134  1  0.56730064  0.29150606  0.89463298  1
  O2-  O135  1  0.60828467  0.76168915  0.10198621  1
  O2-  O136  1  0.59596815  0.76001224  0.32008858  1
  O2-  O137  1  0.58198180  0.75747116  0.58933189  1
  O2-  O138  1  0.56211307  0.73784535  0.86475834  1
  O2-  O139  1  0.89660658  0.27095027  0.13291692  1
  O2-  O140  1  0.91079599  0.21511385  0.38316906  1
  O2-  O141  1  0.91246167  0.26090185  0.60905315  1
  O2-  O142  1  0.78240923  0.33144323  0.85653718  1
  O2-  O143  1  0.88526390  0.74954997  0.14869601  1
  O2-  O144  1  0.90217081  0.73346119  0.41026684  1
  O2-  O145  1  0.88116604  0.73565588  0.62280308  1
  O2-  O146  1  0.88459566  0.74938894  0.88431448  1
  O2-  O147  1  0.15517331  0.09829724  0.02063401  1
  O2-  O148  1  0.18389563  0.18407474  0.18831000  1
  O2-  O149  1  0.08413593  0.11868342  0.47158379  1
  O2-  O150  1  0.17103022  0.16455270  0.84382433  1
  O2-  O151  1  0.18856178  0.62704332  0.04360825  1
  O2-  O152  1  0.19737883  0.65388958  0.26249757  1
  O2-  O153  1  0.07776235  0.61205103  0.49140758  1
  O2-  O154  1  0.09686209  0.61243793  0.71665852  1
  O2-  O155  1  0.40655963  0.17873166  0.12456757  1
  O2-  O156  1  0.24954965  0.15631433  0.36015859  1
  O2-  O157  1  0.40719985  0.15885709  0.49584711  1
  O2-  O158  1  0.33568933  0.10915486  0.76131343  1
  O2-  O159  1  0.41019227  0.65808446  0.00492477  1
  O2-  O160  1  0.38903299  0.63774937  0.25894322  1
  O2-  O161  1  0.42284025  0.63123043  0.49882629  1
  O2-  O162  1  0.44736213  0.61876089  0.72625479  1
  O2-  O163  1  0.66747753  0.13400495  -0.02996020  1
  O2-  O164  1  0.59464585  0.11317093  0.21801539  1
  O2-  O165  1  0.62538982  0.08491985  0.47238199  1
  O2-  O166  1  0.65528642  0.17027203  0.79218002  1
  O2-  O167  1  0.64987067  0.62805421  -0.02818860  1
  O2-  O168  1  0.69646682  0.65542748  0.21550874  1
  O2-  O169  1  0.61266928  0.64358929  0.46189320  1
  O2-  O170  1  0.62400013  0.65793540  0.71183558  1
  O2-  O171  1  0.85525303  0.19421683  -0.01180374  1
  O2-  O172  1  0.90421261  0.12951922  0.24012889  1
  O2-  O173  1  0.80648279  0.12004072  0.47416476  1
  O2-  O174  1  0.87088300  0.17311856  0.79570576  1
  O2-  O175  1  0.83456992  0.65830462  0.02123475  1
  O2-  O176  1  0.86161839  0.63509142  0.26903153  1
  O2-  O177  1  0.77653761  0.63614288  0.51486533  1
  O2-  O178  1  0.79092087  0.64435826  0.76149501  1
  O2-  O179  1  0.10149935  0.38028989  0.00841137  1
  O2-  O180  1  0.09544283  0.34837302  0.20724525  1
  O2-  O181  1  0.14398355  0.33733751  0.48374874  1
  O2-  O182  1  0.10447200  0.35439901  0.72977699  1
  O2-  O183  1  0.14920034  0.81651477  0.01211409  1
  O2-  O184  1  0.16251841  0.84217010  0.25596947  1
  O2-  O185  1  0.09304855  0.86977688  0.50055616  1
  O2-  O186  1  0.16291499  0.85473507  0.72918596  1
  O2-  O187  1  0.37130568  0.38380379  0.00191898  1
  O2-  O188  1  0.34327833  0.39184593  0.25454771  1
  O2-  O189  1  0.35743945  0.34585940  0.48088298  1
  O2-  O190  1  0.25482382  0.36958010  0.85402185  1
  O2-  O191  1  0.35199451  0.85085806  -0.01079322  1
  O2-  O192  1  0.36964162  0.89036607  0.26558257  1
  O2-  O193  1  0.42570648  0.87546739  0.49389278  1
  O2-  O194  1  0.35896647  0.86536264  0.73429640  1
  O2-  O195  1  0.63022032  0.40518178  -0.01365872  1
  O2-  O196  1  0.62311224  0.36265498  0.23626185  1
  O2-  O197  1  0.65462843  0.38342265  0.47278967  1
  O2-  O198  1  0.62429366  0.35903813  0.73358938  1
  O2-  O199  1  0.69775835  0.84719196  -0.02784993  1
  O2-  O200  1  0.71867127  0.85560514  0.21739519  1
  O2-  O201  1  0.64276494  0.85268077  0.47010555  1
  O2-  O202  1  0.62671135  0.84546636  0.72457386  1
  O2-  O203  1  0.90523736  0.39773098  0.01478014  1
  O2-  O204  1  0.89918894  0.40253033  0.24377278  1
  O2-  O205  1  0.85108336  0.36896272  0.48192480  1
  O2-  O206  1  0.90666843  0.37599530  0.73401246  1
  O2-  O207  1  0.86058075  0.86254986  0.01902053  1
  O2-  O208  1  0.89609585  0.85540295  0.27165753  1
  O2-  O209  1  0.89951961  0.86355094  0.51706080  1
  O2-  O210  1  0.81059112  0.83491502  0.75834523  1
  O2-  O211  1  -0.06731910  0.05665692  0.00805264  1
  O2-  O212  1  0.07145274  0.06357080  0.26225690  1
  O2-  O213  1  -0.04195153  0.07582387  0.56259846  1
  O2-  O214  1  0.03766044  0.10062816  0.72304281  1
  O2-  O215  1  0.02453693  0.64536961  -0.05817420  1
  O2-  O216  1  -0.00761188  0.38553582  0.38297531  1
  O2-  O217  1  0.01254061  0.39912154  0.57068035  1
  O2-  O218  1  0.00743578  0.49317960  0.84355374  1
  O2-  O219  1  0.32110921  0.11914905  -0.05060918  1
  O2-  O220  1  0.25775703  0.03905548  0.16390085  1
  O2-  O221  1  0.25949669  -0.15230467  0.49592817  1
  O2-  O222  1  0.29255183  -0.02083771  0.86794669  1
  O2-  O223  1  0.25085200  0.34020185  0.12418988  1
  O2-  O224  1  0.23801348  0.49999578  0.14769339  1
  O2-  O225  1  0.26680242  0.60680180  0.65879283  1
  O2-  O226  1  0.26298071  0.34452310  0.64419526  1
  O2-  O227  1  0.49893887  0.10934368  -0.04884196  1
  O2-  O228  1  0.43380373  0.09177060  0.28040347  1
  O2-  O229  1  0.52319985  0.15048139  0.62988043  1
  O2-  O230  1  0.49976713  0.10674641  0.79185409  1
  O2-  O231  1  0.49020321  0.49157328  -0.07723329  1
  O2-  O232  1  0.52030098  0.37535429  0.36424013  1
  O2-  O233  1  0.51334249  0.35459192  0.59329078  1
  O2-  O234  1  0.46674627  0.40086520  0.78892735  1
  O2-  O235  1  0.75885001  0.14662032  0.12692855  1
  O2-  O236  1  0.75145751  0.08318313  0.31108767  1
  O2-  O237  1  0.76155960  -0.04450821  0.55009210  1
  O2-  O238  1  0.75356072  0.11616939  0.64764507  1
  O2-  O239  1  0.73382418  0.35274363  0.10454170  1
  O2-  O240  1  0.76325937  0.35577400  0.33890918  1
  O2-  O241  1  0.74803369  0.51494961  0.36673319  1
  O2-  O242  1  0.76201230  0.37064780  0.62917587  1
