# generated using pymatgen
data_Gd19Ta56(WO20)8
_symmetry_space_group_name_H-M   'P 1'
_cell_length_a   15.52729554
_cell_length_b   15.45833800
_cell_length_c   15.29122935
_cell_angle_alpha   89.98556971
_cell_angle_beta   89.90189660
_cell_angle_gamma   90.12789975
_symmetry_Int_Tables_number   1
_chemical_formula_structural   Gd19Ta56(WO20)8
_chemical_formula_sum   'Gd19 Ta56 W8 O160'
_cell_volume   3670.28076453
_cell_formula_units_Z   1
loop_
 _symmetry_equiv_pos_site_id
 _symmetry_equiv_pos_as_xyz
  1  'x, y, z'
loop_
 _atom_type_symbol
 _atom_type_oxidation_number
  Gd3+  3.0
  Ta5+  5.0
  W6+  6.0
  O2-  -2.0
loop_
 _atom_site_type_symbol
 _atom_site_label
 _atom_site_symmetry_multiplicity
 _atom_site_fract_x
 _atom_site_fract_y
 _atom_site_fract_z
 _atom_site_occupancy
  Gd3+  Gd0  1  0.00094273  0.26148978  0.50253341  1
  Gd3+  Gd1  1  0.54628120  0.14818796  -0.09815959  1
  Gd3+  Gd2  1  -0.01591471  0.25826778  0.78823835  1
  Gd3+  Gd3  1  0.75723106  0.26121724  0.24833520  1
  Gd3+  Gd4  1  0.23808975  0.74869241  0.74500384  1
  Gd3+  Gd5  1  0.76131152  0.75372160  0.51078442  1
  Gd3+  Gd6  1  0.51762267  0.73406320  0.77048571  1
  Gd3+  Gd7  1  0.26529010  0.25511691  0.23656846  1
  Gd3+  Gd8  1  0.25836561  0.24988011  0.50443384  1
  Gd3+  Gd9  1  0.24688728  0.75967182  0.49734290  1
  Gd3+  Gd10  1  0.75524039  0.75514682  0.76820189  1
  Gd3+  Gd11  1  0.50207347  0.75647666  0.21432024  1
  Gd3+  Gd12  1  0.23029847  0.74920966  0.23801381  1
  Gd3+  Gd13  1  0.74668498  0.22690845  0.00918544  1
  Gd3+  Gd14  1  0.00241487  0.25489130  0.24831505  1
  Gd3+  Gd15  1  0.27119370  0.28170452  -0.02200310  1
  Gd3+  Gd16  1  -0.00237267  0.73959246  0.77639761  1
  Gd3+  Gd17  1  0.76979891  0.73194277  0.22816600  1
  Gd3+  Gd18  1  0.54198906  0.76002513  0.53039146  1
  Ta5+  Ta19  1  0.90597220  0.87466153  0.63205994  1
  Ta5+  Ta20  1  0.09400511  0.62411018  0.12637754  1
  Ta5+  Ta21  1  0.07368018  0.86715570  0.62246043  1
  Ta5+  Ta22  1  0.62328735  0.10978558  0.14156991  1
  Ta5+  Ta23  1  0.89093114  0.88579496  0.88558006  1
  Ta5+  Ta24  1  0.34550698  0.38085084  0.64444106  1
  Ta5+  Ta25  1  0.33368820  0.59467916  0.86773035  1
  Ta5+  Ta26  1  0.37118818  0.61815458  0.62131996  1
  Ta5+  Ta27  1  0.82146131  0.37719876  0.87817881  1
  Ta5+  Ta28  1  0.10517393  0.62769746  0.61362464  1
  Ta5+  Ta29  1  0.39168209  0.88076951  0.36845685  1
  Ta5+  Ta30  1  0.08004847  0.86354484  0.11948608  1
  Ta5+  Ta31  1  0.64250936  0.38830863  0.37100980  1
  Ta5+  Ta32  1  0.33711540  0.88492476  0.12105874  1
  Ta5+  Ta33  1  0.10981398  0.87580281  0.37163949  1
  Ta5+  Ta34  1  0.91077890  0.86302847  0.12493793  1
  Ta5+  Ta35  1  0.86213051  0.61723882  0.89373669  1
  Ta5+  Ta36  1  0.15951559  0.13128165  0.85409020  1
  Ta5+  Ta37  1  0.08479312  0.60360321  0.37557599  1
  Ta5+  Ta38  1  0.86901029  0.12609985  0.38896547  1
  Ta5+  Ta39  1  0.87777910  0.10852438  0.13255865  1
  Ta5+  Ta40  1  0.62749810  0.59489162  0.63878145  1
  Ta5+  Ta41  1  0.09800857  0.10843919  0.08733604  1
  Ta5+  Ta42  1  0.86912178  0.61235932  0.63463438  1
  Ta5+  Ta43  1  0.14152647  0.38509064  0.37292438  1
  Ta5+  Ta44  1  0.62041726  0.63175054  0.37141659  1
  Ta5+  Ta45  1  0.36131102  0.11941214  0.86133746  1
  Ta5+  Ta46  1  0.92630628  0.63128938  0.12059336  1
  Ta5+  Ta47  1  0.34597120  0.12523250  0.65209945  1
  Ta5+  Ta48  1  0.87154676  0.37531151  0.63254313  1
  Ta5+  Ta49  1  0.63316251  0.55277096  0.87792450  1
  Ta5+  Ta50  1  0.61322421  0.37605053  0.11570622  1
  Ta5+  Ta51  1  0.44157093  0.37969766  0.87235743  1
  Ta5+  Ta52  1  0.38520160  0.63363760  0.11280335  1
  Ta5+  Ta53  1  0.85860443  0.10665426  0.87683282  1
  Ta5+  Ta54  1  0.60004086  0.88251321  0.35133882  1
  Ta5+  Ta55  1  0.62004622  0.13720522  0.60334220  1
  Ta5+  Ta56  1  0.88753253  0.62100070  0.37685322  1
  Ta5+  Ta57  1  0.63333311  0.13205230  0.38152624  1
  Ta5+  Ta58  1  0.65347527  0.34562284  0.86194522  1
  Ta5+  Ta59  1  0.37631278  0.88623408  0.62504633  1
  Ta5+  Ta60  1  0.12153884  0.11369751  0.37997944  1
  Ta5+  Ta61  1  0.38255874  0.62391218  0.37310456  1
  Ta5+  Ta62  1  0.86442011  0.11984293  0.63467545  1
  Ta5+  Ta63  1  0.39046933  0.11693373  0.11501653  1
  Ta5+  Ta64  1  0.62870965  0.36832302  0.61741924  1
  Ta5+  Ta65  1  0.38214066  0.38638090  0.12546881  1
  Ta5+  Ta66  1  0.15740101  0.40945290  0.84160842  1
  Ta5+  Ta67  1  0.88661139  0.38466102  0.11047662  1
  Ta5+  Ta68  1  0.37014310  0.12588131  0.38052110  1
  Ta5+  Ta69  1  0.13571525  0.38307424  0.62650408  1
  Ta5+  Ta70  1  0.10722054  0.11074802  0.62524447  1
  Ta5+  Ta71  1  0.65794610  0.86747919  0.10498775  1
  Ta5+  Ta72  1  0.62433830  0.91669775  0.67024239  1
  Ta5+  Ta73  1  0.39948619  0.37616442  0.38578153  1
  Ta5+  Ta74  1  0.13560255  0.88045962  0.87922128  1
  W6+  W75  1  0.58952451  0.62816536  0.09931735  1
  W6+  W76  1  0.68557717  0.93430450  0.86520349  1
  W6+  W77  1  0.30439282  0.89576494  0.87436830  1
  W6+  W78  1  0.11896913  0.61345177  0.87792091  1
  W6+  W79  1  0.12468727  0.39691180  0.10207358  1
  W6+  W80  1  0.88524552  0.40243832  0.37441089  1
  W6+  W81  1  0.70434002  0.10617663  0.78993981  1
  W6+  W82  1  0.86219683  0.87490360  0.37408418  1
  O2-  O83  1  0.09880062  -0.00254074  0.12944405  1
  O2-  O84  1  0.15348021  -0.00500187  0.37224109  1
  O2-  O85  1  0.08306681  -0.00671945  0.63497971  1
  O2-  O86  1  0.14635518  0.00465966  0.85098895  1
  O2-  O87  1  0.13333571  0.51013322  0.16052800  1
  O2-  O88  1  0.16893071  0.50165591  0.36598082  1
  O2-  O89  1  0.10945518  0.50369867  0.62407687  1
  O2-  O90  1  0.06806179  0.48555549  0.85289024  1
  O2-  O91  1  0.32719563  0.01442142  0.12295837  1
  O2-  O92  1  0.40382759  0.00943570  0.37725209  1
  O2-  O93  1  0.38627881  0.00823364  0.62916826  1
  O2-  O94  1  0.38638221  0.00380793  0.85808305  1
  O2-  O95  1  0.39309091  0.50428519  0.12784856  1
  O2-  O96  1  0.37058430  0.49871683  0.37817359  1
  O2-  O97  1  0.38674456  0.49572632  0.62130221  1
  O2-  O98  1  0.40832552  0.50430564  0.85081325  1
  O2-  O99  1  0.64682353  -0.00951125  0.13782776  1
  O2-  O100  1  0.63131739  -0.00347345  0.36866078  1
  O2-  O101  1  0.57578291  0.01625076  0.61913979  1
  O2-  O102  1  0.59318974  0.03122108  0.84366956  1
  O2-  O103  1  0.60303825  0.49158741  0.10411176  1
  O2-  O104  1  0.64361375  0.51448573  0.35300607  1
  O2-  O105  1  0.57572262  0.48221421  0.62905967  1
  O2-  O106  1  0.55097394  0.43978978  0.88162302  1
  O2-  O107  1  0.90886342  -0.00506472  0.14898733  1
  O2-  O108  1  0.88739154  0.01051388  0.38228553  1
  O2-  O109  1  0.88538956  0.00193563  0.63106085  1
  O2-  O110  1  0.92955408  0.00603804  0.86754517  1
  O2-  O111  1  0.89567405  0.50418422  0.11866931  1
  O2-  O112  1  0.82089671  0.51976977  0.37253667  1
  O2-  O113  1  0.90661327  0.49313436  0.63923053  1
  O2-  O114  1  0.86619554  0.49648862  0.89096147  1
  O2-  O115  1  0.25767711  0.36535065  0.11864619  1
  O2-  O116  1  0.10754148  0.24773833  0.38746027  1
  O2-  O117  1  0.12922947  0.25322054  0.59522841  1
  O2-  O118  1  0.16841763  0.26252141  0.85438271  1
  O2-  O119  1  0.13780020  0.74792240  0.12088955  1
  O2-  O120  1  0.17725351  0.76661722  0.37212972  1
  O2-  O121  1  0.15883794  0.74830437  0.61584781  1
  O2-  O122  1  0.15953415  0.74918686  0.87673989  1
  O2-  O123  1  0.35165755  0.23481182  0.10521042  1
  O2-  O124  1  0.40745062  0.24412747  0.37611716  1
  O2-  O125  1  0.32725939  0.25166180  0.63749151  1
  O2-  O126  1  0.40229859  0.24935820  0.88823520  1
  O2-  O127  1  0.37536598  0.76131662  0.12551324  1
  O2-  O128  1  0.36238489  0.75577460  0.38115036  1
  O2-  O129  1  0.34884952  0.75159833  0.62246366  1
  O2-  O130  1  0.38593324  0.70035634  0.82274270  1
  O2-  O131  1  0.66041367  0.24054491  0.13657458  1
  O2-  O132  1  0.61828107  0.25212850  0.36262087  1
  O2-  O133  1  0.59014214  0.25903391  0.57578629  1
  O2-  O134  1  0.67264859  0.22027330  0.87016673  1
  O2-  O135  1  0.57942692  0.77396190  0.09270642  1
  O2-  O136  1  0.63804482  0.76679031  0.40524437  1
  O2-  O137  1  0.63850083  0.71891226  0.66894657  1
  O2-  O138  1  0.58203258  0.59459831  0.76969684  1
  O2-  O139  1  0.84285194  0.24811683  0.12354484  1
  O2-  O140  1  0.92511707  0.24928358  0.37510800  1
  O2-  O141  1  0.92518498  0.25543551  0.63980306  1
  O2-  O142  1  0.86594576  0.24380037  0.89234907  1
  O2-  O143  1  0.86478250  0.74233675  0.10942773  1
  O2-  O144  1  0.82106316  0.73682247  0.37330047  1
  O2-  O145  1  0.83445692  0.74538035  0.64383117  1
  O2-  O146  1  0.86487585  0.75179307  0.87321153  1
  O2-  O147  1  0.09285826  0.12892073  -0.03528602  1
  O2-  O148  1  0.18013442  0.17516522  0.14452828  1
  O2-  O149  1  0.07460183  0.11345441  0.49618313  1
  O2-  O150  1  0.08404036  0.14671129  0.74529952  1
  O2-  O151  1  0.11674083  0.60614088  0.00963929  1
  O2-  O152  1  0.11122603  0.64910959  0.26457589  1
  O2-  O153  1  0.14443321  0.62755409  0.48969512  1
  O2-  O154  1  0.11340917  0.64408367  0.74106706  1
  O2-  O155  1  0.42680108  0.11240881  -0.00630368  1
  O2-  O156  1  0.35313149  0.13749841  0.24925863  1
  O2-  O157  1  0.36053091  0.13834002  0.51051768  1
  O2-  O158  1  0.42444906  0.14168520  0.74750261  1
  O2-  O159  1  0.34966804  0.62028296  -0.01408454  1
  O2-  O160  1  0.39016270  0.63740034  0.24869793  1
  O2-  O161  1  0.33441206  0.62670632  0.50205984  1
  O2-  O162  1  0.29553644  0.60857181  0.71866984  1
  O2-  O163  1  0.62966388  0.12799948  0.01805324  1
  O2-  O164  1  0.67627751  0.12478534  0.25604233  1
  O2-  O165  1  0.56451654  0.11900209  0.48314161  1
  O2-  O166  1  0.59772151  0.16158376  0.71894913  1
  O2-  O167  1  0.57475163  0.61394279  -0.03934189  1
  O2-  O168  1  0.61557533  0.66078550  0.24690212  1
  O2-  O169  1  0.63673416  0.63099511  0.51361645  1
  O2-  O170  1  0.74594872  0.57842244  0.65844176  1
  O2-  O171  1  0.85984269  0.11143066  0.01070293  1
  O2-  O172  1  0.86113492  0.14415985  0.26024585  1
  O2-  O173  1  0.90193114  0.14439705  0.51183429  1
  O2-  O174  1  0.90154976  0.13658878  0.75376060  1
  O2-  O175  1  0.93198427  0.63354620  -0.00972456  1
  O2-  O176  1  0.89424441  0.63933117  0.25135326  1
  O2-  O177  1  0.84818286  0.62861805  0.51045255  1
  O2-  O178  1  0.89440094  0.62646485  0.76393689  1
  O2-  O179  1  0.16725903  0.38659260  -0.03420927  1
  O2-  O180  1  0.11413688  0.35487479  0.25102063  1
  O2-  O181  1  0.08982870  0.38636970  0.48953445  1
  O2-  O182  1  0.07898550  0.35879312  0.73809712  1
  O2-  O183  1  0.11557580  0.88193428  0.00060032  1
  O2-  O184  1  0.13233632  0.86286005  0.24376497  1
  O2-  O185  1  0.12760004  0.86697854  0.49946188  1
  O2-  O186  1  0.11210296  0.84615022  0.74420072  1
  O2-  O187  1  0.38297925  0.38460892  -0.01233190  1
  O2-  O188  1  0.37055111  0.36187579  0.24995458  1
  O2-  O189  1  0.39134652  0.35647575  0.51032174  1
  O2-  O190  1  0.41218680  0.36592504  0.74846210  1
  O2-  O191  1  0.30121811  0.87165849  0.00852436  1
  O2-  O192  1  0.32224930  0.87664073  0.25777624  1
  O2-  O193  1  0.33580524  0.88348592  0.50420499  1
  O2-  O194  1  0.30683129  0.88207791  0.72517422  1
  O2-  O195  1  0.64177951  0.34152386  -0.00272933  1
  O2-  O196  1  0.66108040  0.37830730  0.23350245  1
  O2-  O197  1  0.63976022  0.40321319  0.49183801  1
  O2-  O198  1  0.61531381  0.34663865  0.73883922  1
  O2-  O199  1  0.68388784  0.87882684  -0.01125863  1
  O2-  O200  1  0.65842833  0.84249392  0.24248189  1
  O2-  O201  1  0.65704441  0.85666195  0.56860547  1
  O2-  O202  1  0.61472718  0.84404849  0.78150084  1
  O2-  O203  1  0.81231953  0.37288894  0.01014433  1
  O2-  O204  1  0.88649046  0.36321942  0.23805577  1
  O2-  O205  1  0.90157348  0.37340753  0.51086813  1
  O2-  O206  1  0.87942401  0.36302623  0.76164183  1
  O2-  O207  1  0.87349295  0.88742920  0.00654991  1
  O2-  O208  1  0.85376832  0.85089465  0.24063918  1
  O2-  O209  1  0.86504025  0.85652869  0.51109233  1
  O2-  O210  1  0.86148635  0.86986801  0.75474527  1
  O2-  O211  1  -0.00413157  0.16494967  0.12468117  1
  O2-  O212  1  0.04924703  0.11810671  0.28407412  1
  O2-  O213  1  -0.00580061  -0.12907286  0.36832972  1
  O2-  O214  1  0.00703548  -0.15122633  0.87333415  1
  O2-  O215  1  -0.00119136  0.35080648  0.08472277  1
  O2-  O216  1  -0.01009139  0.52130268  0.37128630  1
  O2-  O217  1  -0.00330744  0.68306319  0.41002865  1
  O2-  O218  1  -0.01047361  0.65591648  0.61387665  1
  O2-  O219  1  0.26099558  0.13693541  -0.06004962  1
  O2-  O220  1  0.24392303  0.14976036  0.37880378  1
  O2-  O221  1  0.22603311  0.10443437  0.60555149  1
  O2-  O222  1  0.26623739  0.12306734  0.76907619  1
  O2-  O223  1  0.23109759  0.51859862  -0.14022284  1
  O2-  O224  1  0.25647522  0.33919143  0.37834329  1
  O2-  O225  1  0.24273506  0.38869045  0.56030412  1
  O2-  O226  1  0.23524624  0.39509273  0.72111078  1
  O2-  O227  1  0.50337693  0.11130076  0.16378825  1
  O2-  O228  1  0.49382884  -0.11225963  0.27993860  1
  O2-  O229  1  0.50197684  -0.13020991  0.44305167  1
  O2-  O230  1  0.49464743  -0.15010116  0.65279002  1
  O2-  O231  1  0.49779267  0.33767871  0.12450767  1
  O2-  O232  1  0.51477351  0.39198667  0.36067785  1
  O2-  O233  1  0.49979457  0.65084614  0.40958506  1
  O2-  O234  1  0.49046985  0.65141833  0.63414707  1
  O2-  O235  1  0.75477325  0.04491394  -0.09251788  1
  O2-  O236  1  0.75063852  0.13988782  0.41728436  1
  O2-  O237  1  0.74231971  0.13559243  0.59990158  1
  O2-  O238  1  0.71405805  -0.02365293  0.72770692  1
  O2-  O239  1  0.73272104  0.63523247  -0.13788203  1
  O2-  O240  1  0.76102990  0.34476945  0.37198436  1
  O2-  O241  1  0.75173032  0.37016736  0.62515021  1
  O2-  O242  1  0.71566990  0.45896616  0.84117655  1
