# generated using pymatgen
data_Gd19Ta56(WO20)8
_symmetry_space_group_name_H-M   'P 1'
_cell_length_a   15.46200552
_cell_length_b   15.46159982
_cell_length_c   15.18290381
_cell_angle_alpha   89.97662061
_cell_angle_beta   90.21187916
_cell_angle_gamma   90.18088276
_symmetry_Int_Tables_number   1
_chemical_formula_structural   Gd19Ta56(WO20)8
_chemical_formula_sum   'Gd19 Ta56 W8 O160'
_cell_volume   3629.69326252
_cell_formula_units_Z   1
loop_
 _symmetry_equiv_pos_site_id
 _symmetry_equiv_pos_as_xyz
  1  'x, y, z'
loop_
 _atom_type_symbol
 _atom_type_oxidation_number
  Gd3+  3.0
  Ta5+  5.0
  W6+  6.0
  O2-  -2.0
loop_
 _atom_site_type_symbol
 _atom_site_label
 _atom_site_symmetry_multiplicity
 _atom_site_fract_x
 _atom_site_fract_y
 _atom_site_fract_z
 _atom_site_occupancy
  Gd3+  Gd0  1  0.01443268  0.24645123  0.75984054  1
  Gd3+  Gd1  1  0.00023701  0.24558522  0.21133870  1
  Gd3+  Gd2  1  -0.00600962  0.24649575  0.50358010  1
  Gd3+  Gd3  1  0.23902454  0.24559711  0.25632796  1
  Gd3+  Gd4  1  0.27013219  0.24395986  0.49384705  1
  Gd3+  Gd5  1  0.49383286  0.25485359  0.00391926  1
  Gd3+  Gd6  1  0.74640284  0.74843188  0.00664728  1
  Gd3+  Gd7  1  0.48081029  0.25468853  0.75567534  1
  Gd3+  Gd8  1  0.51441157  0.79481613  0.46914887  1
  Gd3+  Gd9  1  0.73883763  0.74435940  0.24808622  1
  Gd3+  Gd10  1  -0.01933670  0.74194901  0.51136159  1
  Gd3+  Gd11  1  0.47302141  0.25173523  0.23936133  1
  Gd3+  Gd12  1  0.23114766  0.73506455  0.22054047  1
  Gd3+  Gd13  1  0.27087934  0.75710814  0.74125474  1
  Gd3+  Gd14  1  -0.01352166  0.74967140  0.25277887  1
  Gd3+  Gd15  1  -0.03155382  0.75548237  0.75465667  1
  Gd3+  Gd16  1  0.26370262  0.75456376  -0.00732199  1
  Gd3+  Gd17  1  0.74671156  0.73277315  0.74722670  1
  Gd3+  Gd18  1  0.75206584  0.25456122  0.29697868  1
  Ta5+  Ta19  1  0.89011183  0.58748766  0.64367025  1
  Ta5+  Ta20  1  0.59212055  0.62153563  0.12462518  1
  Ta5+  Ta21  1  0.12547541  0.11226029  0.62892659  1
  Ta5+  Ta22  1  0.87449380  0.36708130  0.88441980  1
  Ta5+  Ta23  1  0.63339195  0.37463547  0.62594600  1
  Ta5+  Ta24  1  0.39174375  0.61538894  0.11842801  1
  Ta5+  Ta25  1  0.33168424  0.37281403  0.88461018  1
  Ta5+  Ta26  1  0.81009255  0.36436767  0.12338913  1
  Ta5+  Ta27  1  0.63308743  0.37847909  0.87553910  1
  Ta5+  Ta28  1  0.59978979  0.88977576  0.13061513  1
  Ta5+  Ta29  1  0.35353754  0.63081403  0.37474674  1
  Ta5+  Ta30  1  0.67723173  0.88116146  0.62225172  1
  Ta5+  Ta31  1  0.66019170  0.13004806  0.12572115  1
  Ta5+  Ta32  1  0.33172657  0.87061239  0.36508027  1
  Ta5+  Ta33  1  0.63171126  0.63245719  0.38686381  1
  Ta5+  Ta34  1  0.62787853  0.12760871  0.62606940  1
  Ta5+  Ta35  1  0.40003162  0.87937889  0.12768315  1
  Ta5+  Ta36  1  0.11865234  0.10961364  0.36934267  1
  Ta5+  Ta37  1  0.13799471  0.61904006  0.87119453  1
  Ta5+  Ta38  1  0.67786411  0.89794567  0.37425230  1
  Ta5+  Ta39  1  0.87186435  0.38937782  0.63245574  1
  Ta5+  Ta40  1  0.63845570  0.12903263  0.87258307  1
  Ta5+  Ta41  1  0.13140865  0.38132234  0.62616111  1
  Ta5+  Ta42  1  0.82532995  0.12218133  0.13944060  1
  Ta5+  Ta43  1  0.09415980  0.88215099  0.11341048  1
  Ta5+  Ta44  1  0.16204224  0.37076841  0.88199332  1
  Ta5+  Ta45  1  0.84642372  0.89467617  0.38446231  1
  Ta5+  Ta46  1  0.87419614  0.60595888  0.12420050  1
  Ta5+  Ta47  1  0.35826266  0.39330174  0.36532300  1
  Ta5+  Ta48  1  0.16285567  0.87284624  0.36138407  1
  Ta5+  Ta49  1  0.15862858  0.37185057  0.09579808  1
  Ta5+  Ta50  1  0.85207174  0.08322615  0.38535588  1
  Ta5+  Ta51  1  0.13800853  0.87045311  0.60698509  1
  Ta5+  Ta52  1  0.33808416  0.11815449  0.09664612  1
  Ta5+  Ta53  1  0.85914017  0.59711052  0.38546140  1
  Ta5+  Ta54  1  0.37124332  0.38838755  0.62558731  1
  Ta5+  Ta55  1  0.37455814  0.12082403  0.62653292  1
  Ta5+  Ta56  1  0.88335689  0.88498427  0.12834542  1
  Ta5+  Ta57  1  0.60924801  0.62371565  0.87690627  1
  Ta5+  Ta58  1  0.60484866  0.38648665  0.37787496  1
  Ta5+  Ta59  1  0.90244310  0.61285039  0.91095557  1
  Ta5+  Ta60  1  0.13432694  0.62431742  0.62044031  1
  Ta5+  Ta61  1  0.10713576  0.37253393  0.36555625  1
  Ta5+  Ta62  1  0.62022980  0.88061558  0.87684463  1
  Ta5+  Ta63  1  0.37125454  0.10774930  0.36195618  1
  Ta5+  Ta64  1  0.87719492  0.12826557  0.89436833  1
  Ta5+  Ta65  1  0.61653776  0.12713518  0.38126356  1
  Ta5+  Ta66  1  0.15672430  0.12172183  0.09774895  1
  Ta5+  Ta67  1  0.13379230  0.88256414  0.86662401  1
  Ta5+  Ta68  1  0.86479011  0.12119977  0.63517267  1
  Ta5+  Ta69  1  0.11178765  0.61652835  0.36682250  1
  Ta5+  Ta70  1  0.16758894  0.12728297  0.88436690  1
  Ta5+  Ta71  1  0.43228819  0.63345992  0.61611144  1
  Ta5+  Ta72  1  0.08652403  0.61050978  0.10898899  1
  Ta5+  Ta73  1  0.38354189  0.88949158  0.60862653  1
  Ta5+  Ta74  1  0.32897887  0.38155991  0.09859807  1
  W6+  W75  1  0.59523542  0.62660471  0.62443202  1
  W6+  W76  1  0.90005332  0.37849002  0.36884205  1
  W6+  W77  1  0.64719256  0.37635260  0.13366556  1
  W6+  W78  1  0.33317872  0.13007158  0.88286641  1
  W6+  W79  1  0.89929903  0.87775105  0.91339510  1
  W6+  W80  1  0.84058127  0.86624788  0.62716048  1
  W6+  W81  1  0.37593305  0.89367732  0.87180605  1
  W6+  W82  1  0.36484889  0.61905585  0.86572859  1
  O2-  O83  1  0.12630744  -0.00115202  0.10382135  1
  O2-  O84  1  0.11462985  -0.01010600  0.36394589  1
  O2-  O85  1  0.10591848  -0.00854159  0.61551433  1
  O2-  O86  1  0.13614121  0.00122766  0.88169864  1
  O2-  O87  1  0.12463872  0.49714981  0.10070793  1
  O2-  O88  1  0.08106080  0.49630081  0.36613939  1
  O2-  O89  1  0.15689134  0.50210660  0.60850574  1
  O2-  O90  1  0.14643354  0.50033881  0.88247451  1
  O2-  O91  1  0.35402668  0.00133745  0.12267896  1
  O2-  O92  1  0.37065406  -0.00959115  0.34792264  1
  O2-  O93  1  0.42634035  0.00770271  0.61949611  1
  O2-  O94  1  0.31402288  -0.00286969  0.87036395  1
  O2-  O95  1  0.34690069  0.50025959  0.13400106  1
  O2-  O96  1  0.39194945  0.51132045  0.36564862  1
  O2-  O97  1  0.40739988  0.50220673  0.62587686  1
  O2-  O98  1  0.33801078  0.49113751  0.86721291  1
  O2-  O99  1  0.63548295  0.01017732  0.11116036  1
  O2-  O100  1  0.61745828  0.00744083  0.36768336  1
  O2-  O101  1  0.64709745  0.00812806  0.62902383  1
  O2-  O102  1  0.62580232  0.00762638  0.88115265  1
  O2-  O103  1  0.64460788  0.51427511  0.13342968  1
  O2-  O104  1  0.60720730  0.51047965  0.39373835  1
  O2-  O105  1  0.59811838  0.48811215  0.61638649  1
  O2-  O106  1  0.61703413  0.49934686  0.88660630  1
  O2-  O107  1  0.85585006  0.00061113  0.14964325  1
  O2-  O108  1  0.91550226  -0.00507680  0.33358175  1
  O2-  O109  1  0.85581700  0.00385938  0.63354973  1
  O2-  O110  1  0.90449857  0.01352866  0.89618650  1
  O2-  O111  1  0.84699720  0.48651659  0.13303544  1
  O2-  O112  1  0.81680914  0.48731401  0.38192905  1
  O2-  O113  1  0.96283083  0.48065345  0.64526411  1
  O2-  O114  1  0.90861418  0.48248620  0.89995401  1
  O2-  O115  1  0.16230025  0.24645024  0.11982620  1
  O2-  O116  1  0.15964602  0.24756456  0.38718218  1
  O2-  O117  1  0.09724329  0.24530753  0.62618749  1
  O2-  O118  1  0.14798847  0.24690184  0.85011942  1
  O2-  O119  1  0.09172637  0.74523293  0.13599852  1
  O2-  O120  1  0.11716745  0.74636366  0.33683510  1
  O2-  O121  1  0.18489648  0.73951180  0.61560710  1
  O2-  O122  1  0.17059514  0.75012102  0.86073740  1
  O2-  O123  1  0.38259479  0.25228674  0.10815733  1
  O2-  O124  1  0.35025181  0.25362729  0.36858748  1
  O2-  O125  1  0.39452235  0.24767227  0.61443770  1
  O2-  O126  1  0.39632715  0.25659028  0.88400498  1
  O2-  O127  1  0.34313165  0.74146505  0.11865041  1
  O2-  O128  1  0.39745379  0.74908289  0.37567338  1
  O2-  O129  1  0.43849735  0.76944157  0.60141760  1
  O2-  O130  1  0.34842261  0.76069599  0.87264419  1
  O2-  O131  1  0.58000508  0.24311943  0.14059841  1
  O2-  O132  1  0.60802748  0.25665312  0.35749681  1
  O2-  O133  1  0.58278208  0.25790671  0.63326187  1
  O2-  O134  1  0.58450848  0.25069454  0.86761408  1
  O2-  O135  1  0.65499458  0.74414578  0.12877236  1
  O2-  O136  1  0.63343065  0.76792723  0.37049554  1
  O2-  O137  1  0.64932691  0.75861294  0.63039046  1
  O2-  O138  1  0.66669609  0.75173139  0.87464248  1
  O2-  O139  1  0.75575593  0.24108308  0.14077057  1
  O2-  O140  1  1.00282369  0.28761338  0.35434460  1
  O2-  O141  1  0.91673322  0.25236857  0.63185107  1
  O2-  O142  1  0.93130028  0.24952812  0.88875757  1
  O2-  O143  1  0.86052980  0.73929662  0.12471705  1
  O2-  O144  1  0.97869244  0.65123954  0.36819520  1
  O2-  O145  1  0.85865912  0.71794651  0.63917878  1
  O2-  O146  1  0.87966192  0.73709674  0.91292074  1
  O2-  O147  1  0.09499724  0.14068522  -0.01212653  1
  O2-  O148  1  0.11201678  0.14090741  0.23877234  1
  O2-  O149  1  0.09466464  0.12710806  0.49764948  1
  O2-  O150  1  0.10949310  0.11836647  0.75368491  1
  O2-  O151  1  0.14654877  0.64675076  0.00018617  1
  O2-  O152  1  0.14180619  0.61326748  0.23543670  1
  O2-  O153  1  0.09429655  0.63884854  0.49619876  1
  O2-  O154  1  0.17400942  0.62168777  0.74612902  1
  O2-  O155  1  0.42277549  0.12058389  -0.00184806  1
  O2-  O156  1  0.35153081  0.14545887  0.23214185  1
  O2-  O157  1  0.37299424  0.12566326  0.48874025  1
  O2-  O158  1  0.39062262  0.13146103  0.74962961  1
  O2-  O159  1  0.33565567  0.62437931  0.00221595  1
  O2-  O160  1  0.33359436  0.63106572  0.24765434  1
  O2-  O161  1  0.38181438  0.62979614  0.50235978  1
  O2-  O162  1  0.37241374  0.64742480  0.72353908  1
  O2-  O163  1  0.63274011  0.15324736  -0.00469208  1
  O2-  O164  1  0.66312535  0.13357797  0.25537211  1
  O2-  O165  1  0.58509709  0.13151803  0.50754786  1
  O2-  O166  1  0.58537457  0.13058268  0.74896803  1
  O2-  O167  1  0.63786591  0.64307821  -0.00010433  1
  O2-  O168  1  0.64170007  0.63048265  0.26222924  1
  O2-  O169  1  0.55610910  0.65576998  0.48606208  1
  O2-  O170  1  0.65540172  0.62021794  0.75958430  1
  O2-  O171  1  0.85114944  0.14018424  0.01415652  1
  O2-  O172  1  0.86333366  0.15166590  0.27036116  1
  O2-  O173  1  0.89483366  0.12754297  0.50706347  1
  O2-  O174  1  0.90823199  0.13460895  0.75525984  1
  O2-  O175  1  0.81292544  0.60793286  0.00512152  1
  O2-  O176  1  0.83466199  0.62722748  0.25845811  1
  O2-  O177  1  0.89903679  0.60789927  0.51388383  1
  O2-  O178  1  0.86898020  0.61662251  0.77512431  1
  O2-  O179  1  0.09370525  0.35531244  -0.01400273  1
  O2-  O180  1  0.11732696  0.35499040  0.23504012  1
  O2-  O181  1  0.09049792  0.36823216  0.50326210  1
  O2-  O182  1  0.10443983  0.37815524  0.74906826  1
  O2-  O183  1  0.14995816  0.85573064  -0.00365523  1
  O2-  O184  1  0.16724245  0.87365440  0.22270301  1
  O2-  O185  1  0.11449866  0.84819072  0.48453281  1
  O2-  O186  1  0.16864724  0.87366108  0.74315139  1
  O2-  O187  1  0.41320430  0.38259207  -0.00343511  1
  O2-  O188  1  0.34392731  0.35760276  0.23640383  1
  O2-  O189  1  0.36989597  0.37230256  0.49165854  1
  O2-  O190  1  0.37581060  0.36365701  0.75008186  1
  O2-  O191  1  0.34975410  0.87674607  0.01025538  1
  O2-  O192  1  0.34425965  0.85151571  0.23812259  1
  O2-  O193  1  0.40286773  0.88897434  0.48074187  1
  O2-  O194  1  0.37262395  0.87006833  0.73407922  1
  O2-  O195  1  0.61250189  0.35790982  -0.00370032  1
  O2-  O196  1  0.67840000  0.38699368  0.27767930  1
  O2-  O197  1  0.63890984  0.36231543  0.49625689  1
  O2-  O198  1  0.58707982  0.37543771  0.75528123  1
  O2-  O199  1  0.64203130  0.87035142  0.00273075  1
  O2-  O200  1  0.66799563  0.87902575  0.23743995  1
  O2-  O201  1  0.63537247  0.88271671  0.50168606  1
  O2-  O202  1  0.66699931  0.87918840  0.75797334  1
  O2-  O203  1  0.83617884  0.34454633  0.00533021  1
  O2-  O204  1  0.87666233  0.33623727  0.23181275  1
  O2-  O205  1  0.89821471  0.37211964  0.51292273  1
  O2-  O206  1  0.90409191  0.36099120  0.75853376  1
  O2-  O207  1  0.81235850  0.88050079  0.02186634  1
  O2-  O208  1  0.85673521  0.84008197  0.25888656  1
  O2-  O209  1  0.86364138  0.82839360  0.48799874  1
  O2-  O210  1  0.85262917  0.84664775  0.77355811  1
  O2-  O211  1  -0.02225179  -0.12191140  0.03776044  1
  O2-  O212  1  -0.00244668  -0.11273501  0.19721570  1
  O2-  O213  1  0.02241087  -0.17719263  0.63304683  1
  O2-  O214  1  0.01704866  -0.13823299  0.84301463  1
  O2-  O215  1  -0.02541982  0.60869433  0.02835958  1
  O2-  O216  1  -0.01647899  0.61149793  0.18902050  1
  O2-  O217  1  0.01675552  0.64311772  0.65497830  1
  O2-  O218  1  0.01820503  0.64022497  0.85448960  1
  O2-  O219  1  0.25212394  0.14590723  -0.00055406  1
  O2-  O220  1  0.24323538  0.11185430  0.36795636  1
  O2-  O221  1  0.26376866  -0.10343516  0.59241768  1
  O2-  O222  1  0.24804362  0.13187043  0.61301349  1
  O2-  O223  1  0.25248068  0.34392753  -0.00857621  1
  O2-  O224  1  0.23448528  0.40055224  0.37484275  1
  O2-  O225  1  0.23367838  0.61607024  0.39580845  1
  O2-  O226  1  0.24692150  0.34338961  0.61190812  1
  O2-  O227  1  0.50199520  -0.18181003  0.08592525  1
  O2-  O228  1  0.49938170  -0.06168953  0.18718425  1
  O2-  O229  1  0.49251864  0.13576081  0.33568231  1
  O2-  O230  1  0.50586477  -0.14062017  0.86753409  1
  O2-  O231  1  0.49419228  0.58040507  0.05283143  1
  O2-  O232  1  0.49132103  0.65456334  0.19309726  1
  O2-  O233  1  0.48761770  0.37043548  0.33944711  1
  O2-  O234  1  0.49670362  0.64824440  0.86443284  1
  O2-  O235  1  0.75670992  0.14537577  -0.14795452  1
  O2-  O236  1  0.74027379  0.15563050  0.41146836  1
  O2-  O237  1  0.77382432  -0.01066393  0.43960667  1
  O2-  O238  1  0.74668321  0.15952995  0.63360778  1
  O2-  O239  1  0.75238136  0.36560327  -0.14635482  1
  O2-  O240  1  0.74981139  0.64930862  0.41948128  1
  O2-  O241  1  0.80193375  0.50312504  0.63476609  1
  O2-  O242  1  0.75052889  0.34965982  0.64923822  1
