# generated using pymatgen
data_Gd19Ta56(WO20)8
_symmetry_space_group_name_H-M   'P 1'
_cell_length_a   15.44954786
_cell_length_b   15.41031131
_cell_length_c   15.30362409
_cell_angle_alpha   89.89482831
_cell_angle_beta   89.92462794
_cell_angle_gamma   90.14355221
_symmetry_Int_Tables_number   1
_chemical_formula_structural   Gd19Ta56(WO20)8
_chemical_formula_sum   'Gd19 Ta56 W8 O160'
_cell_volume   3643.50191679
_cell_formula_units_Z   1
loop_
 _symmetry_equiv_pos_site_id
 _symmetry_equiv_pos_as_xyz
  1  'x, y, z'
loop_
 _atom_type_symbol
 _atom_type_oxidation_number
  Gd3+  3.0
  Ta5+  5.0
  W6+  6.0
  O2-  -2.0
loop_
 _atom_site_type_symbol
 _atom_site_label
 _atom_site_symmetry_multiplicity
 _atom_site_fract_x
 _atom_site_fract_y
 _atom_site_fract_z
 _atom_site_occupancy
  Gd3+  Gd0  1  0.75663143  0.74094116  0.01755280  1
  Gd3+  Gd1  1  -0.00720734  0.24584047  0.51162344  1
  Gd3+  Gd2  1  0.00190174  0.75227303  -0.00645045  1
  Gd3+  Gd3  1  0.50179542  0.25962618  0.70546039  1
  Gd3+  Gd4  1  0.52359894  0.74509075  0.01958801  1
  Gd3+  Gd5  1  0.69818076  0.73958436  0.24918899  1
  Gd3+  Gd6  1  0.75050898  0.75658725  0.75372834  1
  Gd3+  Gd7  1  0.49656092  0.73443583  0.74302502  1
  Gd3+  Gd8  1  -0.00235629  0.75619936  0.74361268  1
  Gd3+  Gd9  1  -0.00985168  0.76027621  0.25015705  1
  Gd3+  Gd10  1  -0.01611897  0.27157573  0.01896361  1
  Gd3+  Gd11  1  0.49089527  0.25910177  0.29445241  1
  Gd3+  Gd12  1  0.00126867  0.76886580  0.49528679  1
  Gd3+  Gd13  1  0.25301579  0.73319108  0.73517960  1
  Gd3+  Gd14  1  0.26824322  0.74629566  0.50583801  1
  Gd3+  Gd15  1  0.21909938  0.24786250  -0.00863878  1
  Gd3+  Gd16  1  0.24557595  0.24808182  0.23425214  1
  Gd3+  Gd17  1  0.47235204  0.24712984  0.00087294  1
  Gd3+  Gd18  1  0.52950019  0.74452488  0.49009734  1
  Ta5+  Ta19  1  0.65878740  0.14408263  0.38062196  1
  Ta5+  Ta20  1  0.84304283  0.91522352  0.36001069  1
  Ta5+  Ta21  1  0.66586116  0.59604066  0.88149949  1
  Ta5+  Ta22  1  0.37982034  0.60813127  0.36732979  1
  Ta5+  Ta23  1  0.62155653  0.89690190  0.37167510  1
  Ta5+  Ta24  1  0.88526679  0.89126741  0.88129696  1
  Ta5+  Ta25  1  0.37924499  0.87560650  0.13287605  1
  Ta5+  Ta26  1  0.63121120  0.90024409  0.12673852  1
  Ta5+  Ta27  1  0.63060094  0.60480711  0.63244000  1
  Ta5+  Ta28  1  0.69198315  0.34623547  0.37015389  1
  Ta5+  Ta29  1  0.37013806  0.90370561  0.62788806  1
  Ta5+  Ta30  1  0.36410453  0.11611238  0.86512036  1
  Ta5+  Ta31  1  0.87923349  0.14629349  0.14307066  1
  Ta5+  Ta32  1  0.86905278  0.61337576  0.87207662  1
  Ta5+  Ta33  1  0.16557007  0.37983021  0.38339578  1
  Ta5+  Ta34  1  0.12967428  0.89291271  0.61734149  1
  Ta5+  Ta35  1  0.11236614  0.09429424  0.12374472  1
  Ta5+  Ta36  1  0.09468189  0.60994910  0.61143058  1
  Ta5+  Ta37  1  0.14643188  0.62812560  0.37001738  1
  Ta5+  Ta38  1  0.37967687  0.88375778  0.37547703  1
  Ta5+  Ta39  1  0.11714328  0.12198842  0.85399236  1
  Ta5+  Ta40  1  0.84462000  0.89876226  0.12924387  1
  Ta5+  Ta41  1  0.64154995  0.91653824  0.87124491  1
  Ta5+  Ta42  1  0.87931776  0.61937929  0.62200932  1
  Ta5+  Ta43  1  0.83305064  0.14552851  0.63256370  1
  Ta5+  Ta44  1  0.13621538  0.87871447  0.87147024  1
  Ta5+  Ta45  1  0.37974447  0.63027540  0.12828350  1
  Ta5+  Ta46  1  0.33483096  0.37666111  0.39654198  1
  Ta5+  Ta47  1  0.36341788  0.37181384  0.86430473  1
  Ta5+  Ta48  1  0.34047866  0.12869735  0.38844967  1
  Ta5+  Ta49  1  0.61358644  0.15030682  0.13411741  1
  Ta5+  Ta50  1  0.62216180  0.35271139  0.13154108  1
  Ta5+  Ta51  1  0.86514782  0.36568045  0.37957212  1
  Ta5+  Ta52  1  0.62509213  0.59080560  0.37899224  1
  Ta5+  Ta53  1  0.86508404  0.61155319  0.38543625  1
  Ta5+  Ta54  1  0.36120540  0.58269760  0.88432320  1
  Ta5+  Ta55  1  0.84265410  0.36855178  0.62857859  1
  Ta5+  Ta56  1  0.33149551  0.14622069  0.61985301  1
  Ta5+  Ta57  1  0.16974054  0.12316372  0.38139406  1
  Ta5+  Ta58  1  0.62345728  0.35488309  0.87479778  1
  Ta5+  Ta59  1  0.12198761  0.37744552  0.85040515  1
  Ta5+  Ta60  1  0.82673528  0.16735459  0.37957470  1
  Ta5+  Ta61  1  0.13629911  0.63459795  0.11718923  1
  Ta5+  Ta62  1  0.32868567  0.37075770  0.61274130  1
  Ta5+  Ta63  1  0.12442497  0.38614317  0.13004065  1
  Ta5+  Ta64  1  0.15046810  0.87617414  0.36363689  1
  Ta5+  Ta65  1  0.88432336  0.14213305  0.87356138  1
  Ta5+  Ta66  1  0.16474956  0.13678647  0.60593365  1
  Ta5+  Ta67  1  0.86411944  0.59973781  0.13837067  1
  Ta5+  Ta68  1  0.15992595  0.36976291  0.60029277  1
  Ta5+  Ta69  1  0.62286734  0.88676348  0.62485158  1
  Ta5+  Ta70  1  0.66153720  0.13506667  0.62500665  1
  Ta5+  Ta71  1  0.61224128  0.55717136  0.12710105  1
  Ta5+  Ta72  1  0.87262943  0.37342951  0.87213478  1
  Ta5+  Ta73  1  0.38251905  0.88268577  0.87961572  1
  Ta5+  Ta74  1  0.12064445  0.61285842  0.86273319  1
  W6+  W75  1  0.80163411  0.36548883  0.12765385  1
  W6+  W76  1  0.36017339  0.11321619  0.12519608  1
  W6+  W77  1  0.36870942  0.38177092  0.12556495  1
  W6+  W78  1  0.87403280  0.89359813  0.61501360  1
  W6+  W79  1  0.38514411  0.56534975  0.56954367  1
  W6+  W80  1  0.14271810  0.89534585  0.12241753  1
  W6+  W81  1  0.62255621  0.16312649  0.87256723  1
  W6+  W82  1  0.68021271  0.35646470  0.62149438  1
  O2-  O83  1  0.21407038  0.02635101  0.10175636  1
  O2-  O84  1  0.16127663  -0.00645718  0.38430955  1
  O2-  O85  1  0.16564180  0.00514550  0.59738836  1
  O2-  O86  1  0.10823660  -0.00292525  0.88026602  1
  O2-  O87  1  0.12221163  0.51125121  0.11249012  1
  O2-  O88  1  0.14691066  0.50985460  0.38473425  1
  O2-  O89  1  0.13136887  0.49689198  0.59178636  1
  O2-  O90  1  0.08282332  0.49570495  0.86408913  1
  O2-  O91  1  0.39383236  -0.00551138  0.15572501  1
  O2-  O92  1  0.35752907  0.00086603  0.36129104  1
  O2-  O93  1  0.34948050  0.01621466  0.65553872  1
  O2-  O94  1  0.41129117  -0.00296584  0.84365302  1
  O2-  O95  1  0.35645806  0.51082156  0.12733199  1
  O2-  O96  1  0.36344501  0.49114125  0.34227997  1
  O2-  O97  1  0.31577588  0.48969124  0.65230723  1
  O2-  O98  1  0.42163057  0.48570255  0.84288953  1
  O2-  O99  1  0.62432485  0.02409970  0.13200320  1
  O2-  O100  1  0.63923166  0.01327391  0.36322505  1
  O2-  O101  1  0.62877849  0.00717878  0.63648912  1
  O2-  O102  1  0.65934246  0.03207344  0.87231117  1
  O2-  O103  1  0.69860190  0.46039537  0.11733394  1
  O2-  O104  1  0.65293769  0.47400695  0.37861595  1
  O2-  O105  1  0.65414950  0.48894507  0.63348849  1
  O2-  O106  1  0.62389049  0.47797051  0.88456781  1
  O2-  O107  1  0.86085482  0.01972299  0.13191281  1
  O2-  O108  1  0.82322423  0.03154879  0.36833061  1
  O2-  O109  1  0.85017388  0.02646010  0.62764691  1
  O2-  O110  1  0.89177058  0.01212575  0.87712764  1
  O2-  O111  1  0.87241194  0.48224781  0.13871706  1
  O2-  O112  1  0.89314074  0.49271400  0.37296653  1
  O2-  O113  1  0.86298928  0.49629301  0.63436632  1
  O2-  O114  1  0.90607548  0.49506046  0.87726738  1
  O2-  O115  1  0.14311899  0.25515431  0.12501435  1
  O2-  O116  1  0.16496209  0.25140905  0.36496257  1
  O2-  O117  1  0.11263561  0.25312126  0.61124513  1
  O2-  O118  1  0.12913449  0.24941261  0.86219277  1
  O2-  O119  1  0.07382860  0.75245132  0.12552196  1
  O2-  O120  1  0.08881392  0.75324137  0.36442675  1
  O2-  O121  1  0.10528244  0.74422527  0.63560941  1
  O2-  O122  1  0.13960889  0.74326399  0.83916059  1
  O2-  O123  1  0.33034857  0.24404402  0.09771114  1
  O2-  O124  1  0.37862760  0.25510006  0.40393871  1
  O2-  O125  1  0.39145242  0.25681163  0.59715842  1
  O2-  O126  1  0.34499791  0.24534542  0.89550752  1
  O2-  O127  1  0.39645671  0.75225207  0.09057133  1
  O2-  O128  1  0.39296020  0.74102484  0.41666552  1
  O2-  O129  1  0.33717487  0.68881803  0.61644268  1
  O2-  O130  1  0.46887341  0.79254461  0.88408738  1
  O2-  O131  1  0.52414417  0.25149624  0.14183727  1
  O2-  O132  1  0.59924415  0.25446651  0.40132666  1
  O2-  O133  1  0.60757481  0.24694191  0.59767673  1
  O2-  O134  1  0.52649524  0.26754756  0.86076215  1
  O2-  O135  1  0.64434864  0.76805259  0.11197454  1
  O2-  O136  1  0.60754453  0.72919919  0.36780120  1
  O2-  O137  1  0.59750226  0.75012615  0.63124080  1
  O2-  O138  1  0.66969863  0.72747104  0.89153289  1
  O2-  O139  1  0.89944817  0.27471618  0.13747931  1
  O2-  O140  1  0.92851349  0.26003965  0.36446566  1
  O2-  O141  1  0.90693909  0.25716890  0.64032061  1
  O2-  O142  1  0.93747159  0.25966736  0.87085465  1
  O2-  O143  1  0.85744720  0.76535670  0.14046407  1
  O2-  O144  1  0.91456143  0.72760606  0.38208310  1
  O2-  O145  1  0.90423445  0.75265054  0.60977566  1
  O2-  O146  1  0.86146143  0.74653875  0.90695555  1
  O2-  O147  1  0.10352298  0.14479044  0.00046353  1
  O2-  O148  1  0.15590178  0.11982974  0.24488973  1
  O2-  O149  1  0.10251852  0.13797187  0.48632093  1
  O2-  O150  1  0.13358273  0.11891746  0.73423239  1
  O2-  O151  1  0.11104886  0.64577765  -0.00892655  1
  O2-  O152  1  0.11595848  0.63516657  0.24522890  1
  O2-  O153  1  0.14093404  0.66095260  0.49678911  1
  O2-  O154  1  0.15857986  0.61198277  0.73684587  1
  O2-  O155  1  0.40136445  0.11120964  -0.01197305  1
  O2-  O156  1  0.36644417  0.15611317  0.25603599  1
  O2-  O157  1  0.36545231  0.10704798  0.50728493  1
  O2-  O158  1  0.39100771  0.15615580  0.74839329  1
  O2-  O159  1  0.40930045  0.62222442  -0.01327163  1
  O2-  O160  1  0.36770967  0.65105098  0.25181026  1
  O2-  O161  1  0.29313795  0.60238882  0.45706513  1
  O2-  O162  1  0.37220618  0.66592847  0.79683404  1
  O2-  O163  1  0.60184724  0.16031611  0.01023287  1
  O2-  O164  1  0.59875808  0.15391791  0.26117997  1
  O2-  O165  1  0.67152710  0.11690902  0.50188138  1
  O2-  O166  1  0.60113170  0.15371177  0.73787645  1
  O2-  O167  1  0.61533082  0.60700793  0.00778255  1
  O2-  O168  1  0.61561284  0.59630286  0.24866835  1
  O2-  O169  1  0.63221216  0.62386137  0.50450206  1
  O2-  O170  1  0.60748989  0.62915172  0.76779169  1
  O2-  O171  1  0.88859836  0.15356477  0.00520337  1
  O2-  O172  1  0.82113667  0.15980036  0.24872973  1
  O2-  O173  1  0.85605859  0.16320374  0.50381915  1
  O2-  O174  1  0.83005077  0.15259384  0.76674308  1
  O2-  O175  1  0.93029601  0.63133352  0.04030678  1
  O2-  O176  1  0.75097694  0.62911508  0.34432944  1
  O2-  O177  1  0.83048463  0.61471444  0.50215638  1
  O2-  O178  1  0.86969276  0.67296154  0.75454927  1
  O2-  O179  1  0.10739563  0.36141379  -0.00498660  1
  O2-  O180  1  0.15051283  0.38632900  0.25089628  1
  O2-  O181  1  0.08580514  0.35961933  0.48261186  1
  O2-  O182  1  0.13576495  0.37872892  0.72978881  1
  O2-  O183  1  0.13205036  0.85262866  -0.00793481  1
  O2-  O184  1  0.10166874  0.88204419  0.24892358  1
  O2-  O185  1  0.14798158  0.84718529  0.49313603  1
  O2-  O186  1  0.11307009  0.88475687  0.74148286  1
  O2-  O187  1  0.40172132  0.37992088  -0.01199282  1
  O2-  O188  1  0.36154812  0.34361562  0.25934461  1
  O2-  O189  1  0.39095704  0.43048985  0.50641321  1
  O2-  O190  1  0.37344777  0.34599005  0.74204995  1
  O2-  O191  1  0.37001980  0.89839061  -0.00224254  1
  O2-  O192  1  0.38985923  0.84688041  0.25918628  1
  O2-  O193  1  0.34149249  0.88444205  0.50338564  1
  O2-  O194  1  0.38759265  0.84101496  0.73900578  1
  O2-  O195  1  0.59842104  0.34181782  0.00292960  1
  O2-  O196  1  0.60962031  0.34764352  0.25686691  1
  O2-  O197  1  0.71353597  0.35503584  0.49074458  1
  O2-  O198  1  0.63497356  0.34691910  0.75206221  1
  O2-  O199  1  0.59615878  0.88463774  -0.02193800  1
  O2-  O200  1  0.59823967  0.86574085  0.25313205  1
  O2-  O201  1  0.63276810  0.86622176  0.50092878  1
  O2-  O202  1  0.74148451  0.86013629  0.64907396  1
  O2-  O203  1  0.84765289  0.35531212  -0.00672706  1
  O2-  O204  1  0.78710489  0.36735555  0.27422600  1
  O2-  O205  1  0.88770783  0.36199776  0.50560586  1
  O2-  O206  1  0.82902730  0.36275500  0.75848156  1
  O2-  O207  1  0.90467640  0.87867741  0.00934508  1
  O2-  O208  1  0.91038792  0.88919911  0.25721717  1
  O2-  O209  1  0.89228858  0.88853598  0.46735665  1
  O2-  O210  1  0.88342154  0.85680249  0.75607849  1
  O2-  O211  1  0.04996296  -0.01015502  0.11086012  1
  O2-  O212  1  -0.00201246  0.14279258  0.16386801  1
  O2-  O213  1  0.00916008  -0.10535177  0.59437624  1
  O2-  O214  1  0.00528997  -0.15405936  0.87161585  1
  O2-  O215  1  -0.00328714  0.65366614  -0.13432694  1
  O2-  O216  1  -0.08560702  0.62662641  0.24820390  1
  O2-  O217  1  -0.01286685  0.62126014  0.53384625  1
  O2-  O218  1  -0.00432630  0.60664802  0.69023706  1
  O2-  O219  1  0.24437005  0.10714008  -0.12002169  1
  O2-  O220  1  0.26009244  -0.15198393  0.14064682  1
  O2-  O221  1  0.25225871  -0.15601600  0.63684008  1
  O2-  O222  1  0.26139370  -0.13612701  0.85060769  1
  O2-  O223  1  0.24043928  0.58107897  -0.10300119  1
  O2-  O224  1  0.25226295  0.65355050  0.10821318  1
  O2-  O225  1  0.24870436  0.34622854  0.49856061  1
  O2-  O226  1  0.24353503  0.39017873  0.88194878  1
  O2-  O227  1  0.51037108  -0.13011779  0.11231838  1
  O2-  O228  1  0.50056540  -0.11689947  0.40650111  1
  O2-  O229  1  0.49020250  -0.11821820  0.60485018  1
  O2-  O230  1  0.59731561  -0.13383379  0.76371220  1
  O2-  O231  1  0.53834967  0.45833170  0.12890077  1
  O2-  O232  1  0.50586879  0.63200464  0.12991957  1
  O2-  O233  1  0.49790155  0.59408879  0.40220823  1
  O2-  O234  1  0.50129039  0.60748964  0.63009520  1
  O2-  O235  1  0.74292895  -0.10522675  0.05045538  1
  O2-  O236  1  0.74576838  -0.10494186  0.21015188  1
  O2-  O237  1  0.74204330  -0.15616742  0.36926310  1
  O2-  O238  1  0.75736803  -0.12138635  0.86677826  1
  O2-  O239  1  0.77837116  0.60401492  -0.03755819  1
  O2-  O240  1  0.74230418  0.62879235  0.13909059  1
  O2-  O241  1  0.74861401  0.65230496  0.64551613  1
  O2-  O242  1  0.76311658  0.57037196  0.80877529  1
