# generated using pymatgen
data_Gd19Ta56(WO20)8
_symmetry_space_group_name_H-M   'P 1'
_cell_length_a   15.50543839
_cell_length_b   15.50643098
_cell_length_c   15.30420351
_cell_angle_alpha   89.97538786
_cell_angle_beta   90.02783864
_cell_angle_gamma   89.99486401
_symmetry_Int_Tables_number   1
_chemical_formula_structural   Gd19Ta56(WO20)8
_chemical_formula_sum   'Gd19 Ta56 W8 O160'
_cell_volume   3679.65023398
_cell_formula_units_Z   1
loop_
 _symmetry_equiv_pos_site_id
 _symmetry_equiv_pos_as_xyz
  1  'x, y, z'
loop_
 _atom_type_symbol
 _atom_type_oxidation_number
  Gd3+  3.0
  Ta5+  5.0
  W6+  6.0
  O2-  -2.0
loop_
 _atom_site_type_symbol
 _atom_site_label
 _atom_site_symmetry_multiplicity
 _atom_site_fract_x
 _atom_site_fract_y
 _atom_site_fract_z
 _atom_site_occupancy
  Gd3+  Gd0  1  0.74963848  0.26131017  0.73474595  1
  Gd3+  Gd1  1  0.47900541  0.24743209  0.00907958  1
  Gd3+  Gd2  1  0.01225128  0.74669130  0.50378443  1
  Gd3+  Gd3  1  0.04052904  0.24470721  0.22970073  1
  Gd3+  Gd4  1  0.75908917  0.24761755  0.24476763  1
  Gd3+  Gd5  1  0.49448466  0.73551808  0.75549380  1
  Gd3+  Gd6  1  0.24281832  0.24574407  0.74928894  1
  Gd3+  Gd7  1  -0.03161142  0.23316662  0.80081209  1
  Gd3+  Gd8  1  0.76410549  0.74117721  0.50567380  1
  Gd3+  Gd9  1  0.74978505  0.25560499  0.50184036  1
  Gd3+  Gd10  1  0.49507390  0.74726712  0.50387266  1
  Gd3+  Gd11  1  -0.00944859  0.75597930  0.00567692  1
  Gd3+  Gd12  1  0.00331514  0.74773632  0.24802589  1
  Gd3+  Gd13  1  0.53055810  0.27446828  0.77351569  1
  Gd3+  Gd14  1  0.49250883  0.75817088  0.25001216  1
  Gd3+  Gd15  1  0.46436476  0.24532871  0.25814156  1
  Gd3+  Gd16  1  0.50018667  0.75634932  0.00617960  1
  Gd3+  Gd17  1  0.24608583  0.24330670  0.49919262  1
  Gd3+  Gd18  1  0.00785592  0.74573971  0.75246104  1
  Ta5+  Ta19  1  0.88886399  0.12370562  0.62325815  1
  Ta5+  Ta20  1  0.59806488  0.12682533  0.61817862  1
  Ta5+  Ta21  1  0.15711937  0.62209933  0.63013189  1
  Ta5+  Ta22  1  0.35543865  0.87979104  0.12429478  1
  Ta5+  Ta23  1  0.33651914  0.37395445  0.13562869  1
  Ta5+  Ta24  1  0.38110190  0.38115938  0.61503394  1
  Ta5+  Ta25  1  0.38146234  0.38657432  0.87660366  1
  Ta5+  Ta26  1  0.37090183  0.62286236  0.37946149  1
  Ta5+  Ta27  1  0.12789927  0.88316105  0.12218359  1
  Ta5+  Ta28  1  0.14395400  0.62374213  0.88229404  1
  Ta5+  Ta29  1  0.16130499  0.86931447  0.37435157  1
  Ta5+  Ta30  1  0.88810451  0.37835632  0.37521932  1
  Ta5+  Ta31  1  0.10653809  0.38518446  0.62196884  1
  Ta5+  Ta32  1  0.38627441  0.37753144  0.39400097  1
  Ta5+  Ta33  1  0.36992029  0.87588936  0.63130116  1
  Ta5+  Ta34  1  0.38135087  0.11093642  0.38910636  1
  Ta5+  Ta35  1  0.62653224  0.11978813  0.37604190  1
  Ta5+  Ta36  1  0.64227726  0.87710027  0.88175640  1
  Ta5+  Ta37  1  0.09490547  0.12604082  0.61687488  1
  Ta5+  Ta38  1  0.17106371  0.37177538  0.11022582  1
  Ta5+  Ta39  1  0.84638015  0.62362474  0.13278264  1
  Ta5+  Ta40  1  0.64420187  0.62534973  0.12879368  1
  Ta5+  Ta41  1  0.63943738  0.87608676  0.37234861  1
  Ta5+  Ta42  1  0.62664978  0.38286400  0.36751057  1
  Ta5+  Ta43  1  0.89189127  0.12348226  0.38415022  1
  Ta5+  Ta44  1  0.32998700  0.87022982  0.37874169  1
  Ta5+  Ta45  1  0.18213625  0.12764191  0.11211433  1
  Ta5+  Ta46  1  0.64635396  0.12262441  0.88734800  1
  Ta5+  Ta47  1  0.88056560  0.11948480  0.12739134  1
  Ta5+  Ta48  1  0.63739521  0.62293996  0.89012535  1
  Ta5+  Ta49  1  0.89107234  0.37746969  0.12496664  1
  Ta5+  Ta50  1  0.13430991  0.11228467  0.36700437  1
  Ta5+  Ta51  1  0.63310819  0.37893742  0.91524786  1
  Ta5+  Ta52  1  0.84554481  0.88458575  0.13033800  1
  Ta5+  Ta53  1  0.39429914  0.11413955  0.87093358  1
  Ta5+  Ta54  1  0.86146720  0.38391731  0.88364758  1
  Ta5+  Ta55  1  0.90373953  0.38474857  0.62481110  1
  Ta5+  Ta56  1  0.62796192  0.88017361  0.63199184  1
  Ta5+  Ta57  1  0.64585395  0.88848731  0.13082978  1
  Ta5+  Ta58  1  0.12908531  0.88104363  0.62642764  1
  Ta5+  Ta59  1  0.11281891  0.38298018  0.86777640  1
  Ta5+  Ta60  1  0.86747993  0.61897812  0.63880574  1
  Ta5+  Ta61  1  0.13231784  0.61878152  0.37952265  1
  Ta5+  Ta62  1  0.35045350  0.87196515  0.87498160  1
  Ta5+  Ta63  1  0.64138167  0.62923846  0.36481168  1
  Ta5+  Ta64  1  0.61199839  0.12107095  0.13521925  1
  Ta5+  Ta65  1  0.34214246  0.62993848  0.88169694  1
  Ta5+  Ta66  1  0.13266265  0.37045858  0.36812236  1
  Ta5+  Ta67  1  0.39279889  0.12190555  0.62114990  1
  Ta5+  Ta68  1  0.63453429  0.37481437  0.12187122  1
  Ta5+  Ta69  1  0.87322128  0.87706476  0.63331251  1
  Ta5+  Ta70  1  0.88526366  0.87723998  0.37314617  1
  Ta5+  Ta71  1  0.35725616  0.62028349  0.12618361  1
  Ta5+  Ta72  1  0.11841353  0.11180395  0.87477323  1
  Ta5+  Ta73  1  0.86638877  0.62577424  0.88346659  1
  Ta5+  Ta74  1  0.15158000  0.86872616  0.87548797  1
  W6+  W75  1  0.58238478  0.41521252  0.57577789  1
  W6+  W76  1  0.11074943  0.61436605  0.12234290  1
  W6+  W77  1  0.32701141  0.62593390  0.62990757  1
  W6+  W78  1  0.88943698  0.61514193  0.37347402  1
  W6+  W79  1  0.81175490  0.12084497  0.88597948  1
  W6+  W80  1  0.63667618  0.62152649  0.63305506  1
  W6+  W81  1  0.34282114  0.13071412  0.13116205  1
  W6+  W82  1  0.85622579  0.87363970  0.87855887  1
  O2-  O83  1  0.14758701  0.00338197  0.11545034  1
  O2-  O84  1  0.16815370  -0.00199569  0.37014248  1
  O2-  O85  1  0.11241909  0.00529096  0.62423654  1
  O2-  O86  1  0.12756790  -0.01088740  0.87753796  1
  O2-  O87  1  0.14408571  0.48733374  0.11318477  1
  O2-  O88  1  0.14381493  0.48998347  0.37901414  1
  O2-  O89  1  0.15684620  0.49746898  0.63068184  1
  O2-  O90  1  0.10581495  0.50505133  0.85909861  1
  O2-  O91  1  0.34275032  -0.00430849  0.12872389  1
  O2-  O92  1  0.35680330  -0.00809054  0.37879927  1
  O2-  O93  1  0.38484139  0.00097694  0.63813041  1
  O2-  O94  1  0.36862589  -0.00619366  0.87832729  1
  O2-  O95  1  0.36045611  0.49808276  0.12980854  1
  O2-  O96  1  0.38054767  0.49962661  0.37544606  1
  O2-  O97  1  0.34408068  0.49126906  0.63063837  1
  O2-  O98  1  0.36568771  0.50416219  0.87324284  1
  O2-  O99  1  0.58725771  -0.00207714  0.14488748  1
  O2-  O100  1  0.64834495  -0.00235169  0.37440936  1
  O2-  O101  1  0.62565081  0.00807578  0.63354629  1
  O2-  O102  1  0.64307089  -0.00326106  0.88257628  1
  O2-  O103  1  0.62853177  0.50302411  0.12305311  1
  O2-  O104  1  0.63263336  0.50894291  0.36397916  1
  O2-  O105  1  0.66303540  0.48952001  0.62596118  1
  O2-  O106  1  0.65431656  0.50381504  0.90703310  1
  O2-  O107  1  0.90400943  -0.00227695  0.13501608  1
  O2-  O108  1  0.89131050  -0.00008736  0.38368174  1
  O2-  O109  1  0.87663841  0.00238456  0.61792524  1
  O2-  O110  1  0.82918051  -0.01053428  0.87902493  1
  O2-  O111  1  0.86405532  0.50162045  0.12535948  1
  O2-  O112  1  0.84532931  0.48824281  0.37272463  1
  O2-  O113  1  0.85371960  0.49602000  0.63327314  1
  O2-  O114  1  0.84055505  0.50305232  0.88420718  1
  O2-  O115  1  0.12752023  0.24444951  0.10855354  1
  O2-  O116  1  0.16929331  0.24463147  0.36891934  1
  O2-  O117  1  0.15609170  0.24240941  0.62789499  1
  O2-  O118  1  0.11297762  0.24963294  0.84879573  1
  O2-  O119  1  0.08174759  0.75416760  0.12366111  1
  O2-  O120  1  0.10948853  0.74765615  0.38382982  1
  O2-  O121  1  0.10612295  0.74991117  0.62491306  1
  O2-  O122  1  0.09191819  0.75505874  0.87822010  1
  O2-  O123  1  0.39657784  0.25938275  0.13149467  1
  O2-  O124  1  0.38604915  0.24675207  0.40543212  1
  O2-  O125  1  0.34410769  0.25066155  0.62067451  1
  O2-  O126  1  0.41359045  0.25018497  0.86739914  1
  O2-  O127  1  0.40757033  0.74931144  0.12525070  1
  O2-  O128  1  0.40314470  0.75155490  0.37656635  1
  O2-  O129  1  0.40182229  0.75332940  0.62978540  1
  O2-  O130  1  0.40544084  0.75427078  0.88479216  1
  O2-  O131  1  0.58289899  0.25058289  0.14165032  1
  O2-  O132  1  0.64996996  0.24986128  0.37218235  1
  O2-  O133  1  0.65391725  0.24161600  0.61814550  1
  O2-  O134  1  0.59841107  0.24979981  0.91045357  1
  O2-  O135  1  0.59578275  0.75131650  0.13080017  1
  O2-  O136  1  0.58801099  0.75362164  0.37149056  1
  O2-  O137  1  0.58192854  0.75999928  0.63137487  1
  O2-  O138  1  0.59028677  0.75261239  0.88091369  1
  O2-  O139  1  0.92485715  0.24361300  0.13555890  1
  O2-  O140  1  0.83966812  0.25052907  0.37564773  1
  O2-  O141  1  0.85060967  0.25317141  0.61928134  1
  O2-  O142  1  0.83141900  0.25951613  0.86952596  1
  O2-  O143  1  0.89162567  0.74878508  0.13376527  1
  O2-  O144  1  0.92461086  0.75060550  0.37669105  1
  O2-  O145  1  0.90377792  0.74572207  0.63797651  1
  O2-  O146  1  0.91149224  0.74978976  0.87336984  1
  O2-  O147  1  0.17891109  0.13094963  -0.01923948  1
  O2-  O148  1  0.13900648  0.13092519  0.23817851  1
  O2-  O149  1  0.14706174  0.12709673  0.49714873  1
  O2-  O150  1  0.15758085  0.12025000  0.75189172  1
  O2-  O151  1  0.07916329  0.63267014  -0.01232889  1
  O2-  O152  1  0.10232513  0.62638438  0.25996931  1
  O2-  O153  1  0.10562194  0.62298282  0.50868667  1
  O2-  O154  1  0.11314791  0.63295190  0.74926038  1
  O2-  O155  1  0.37591078  0.13926257  -0.00844591  1
  O2-  O156  1  0.35059887  0.14199355  0.27247900  1
  O2-  O157  1  0.32793501  0.11730440  0.50915752  1
  O2-  O158  1  0.34482765  0.13198976  0.75191230  1
  O2-  O159  1  0.39540904  0.63446048  0.00240439  1
  O2-  O160  1  0.39755592  0.63187030  0.24910625  1
  O2-  O161  1  0.41350178  0.62620257  0.49626679  1
  O2-  O162  1  0.39446514  0.63009388  0.76701788  1
  O2-  O163  1  0.62947515  0.12298398  0.01524483  1
  O2-  O164  1  0.66745468  0.12775240  0.25385552  1
  O2-  O165  1  0.65497717  0.12863017  0.49936878  1
  O2-  O166  1  0.64218438  0.15309144  0.75768729  1
  O2-  O167  1  0.58013896  0.62990294  0.00411524  1
  O2-  O168  1  0.58220187  0.63518265  0.25072818  1
  O2-  O169  1  0.61898731  0.64388075  0.49003224  1
  O2-  O170  1  0.59265170  0.61766332  0.77556075  1
  O2-  O171  1  0.82590982  0.13087524  0.02305770  1
  O2-  O172  1  0.85332858  0.12778044  0.25943803  1
  O2-  O173  1  0.83359142  0.12845523  0.49814024  1
  O2-  O174  1  0.83188471  0.13533260  0.73826378  1
  O2-  O175  1  0.90040121  0.62942456  0.00452566  1
  O2-  O176  1  0.91808722  0.62297581  0.23814802  1
  O2-  O177  1  0.86846182  0.63572236  0.51208134  1
  O2-  O178  1  0.91329680  0.61596113  0.76361152  1
  O2-  O179  1  0.17004080  0.36980929  -0.02677181  1
  O2-  O180  1  0.13811170  0.35982537  0.24198732  1
  O2-  O181  1  0.13308890  0.35300674  0.50393144  1
  O2-  O182  1  0.16058546  0.37422440  0.74753471  1
  O2-  O183  1  0.08654500  0.87477921  0.00045065  1
  O2-  O184  1  0.11338364  0.87176227  0.24901282  1
  O2-  O185  1  0.10350242  0.87176554  0.50189296  1
  O2-  O186  1  0.09294817  0.86949682  0.74917887  1
  O2-  O187  1  0.36372999  0.36096549  -0.00053015  1
  O2-  O188  1  0.34927688  0.35689520  0.26953533  1
  O2-  O189  1  0.30796782  0.37685454  0.49752080  1
  O2-  O190  1  0.34367092  0.36012997  0.75624857  1
  O2-  O191  1  0.40755194  0.87664683  0.00683525  1
  O2-  O192  1  0.37536691  0.86229459  0.25049974  1
  O2-  O193  1  0.38529415  0.86728687  0.50486677  1
  O2-  O194  1  0.41517440  0.86586063  0.75591513  1
  O2-  O195  1  0.69659642  0.34893555  0.01923859  1
  O2-  O196  1  0.66881470  0.37299490  0.24832144  1
  O2-  O197  1  0.68160314  0.38548498  0.47953158  1
  O2-  O198  1  0.65644503  0.35752009  0.79192662  1
  O2-  O199  1  0.61058319  0.86511031  0.00944739  1
  O2-  O200  1  0.58695502  0.87585565  0.25622475  1
  O2-  O201  1  0.60750331  0.87170804  0.49733230  1
  O2-  O202  1  0.61731780  0.87148233  0.75721481  1
  O2-  O203  1  0.86886956  0.36294906  0.00602049  1
  O2-  O204  1  0.86082052  0.36048755  0.24971484  1
  O2-  O205  1  0.86730264  0.36269892  0.50250683  1
  O2-  O206  1  0.85800683  0.36971447  0.74765716  1
  O2-  O207  1  0.87855740  0.85857604  0.01326620  1
  O2-  O208  1  0.90974361  0.87388930  0.24888460  1
  O2-  O209  1  0.88597131  0.85113094  0.50482678  1
  O2-  O210  1  0.90752479  0.87629173  0.75026513  1
  O2-  O211  1  0.00077906  0.12307436  -0.10872736  1
  O2-  O212  1  0.00908283  0.15222617  0.35753331  1
  O2-  O213  1  -0.00890906  0.14233261  0.54419846  1
  O2-  O214  1  -0.00463200  0.13095360  0.70044671  1
  O2-  O215  1  -0.01109275  0.37097394  -0.12612048  1
  O2-  O216  1  0.00709208  0.34598410  0.36463829  1
  O2-  O217  1  0.00527857  0.44300797  0.57901198  1
  O2-  O218  1  0.00718096  0.32128272  0.68033673  1
  O2-  O219  1  0.25036911  -0.15486553  -0.04953268  1
  O2-  O220  1  0.24160558  -0.16024811  0.12184397  1
  O2-  O221  1  0.24937418  -0.12722801  0.62508065  1
  O2-  O222  1  0.25230716  -0.11522117  0.79700531  1
  O2-  O223  1  0.24044724  0.57864995  -0.05618239  1
  O2-  O224  1  0.24434841  0.64464384  0.13014355  1
  O2-  O225  1  0.25322072  0.64126310  0.38534916  1
  O2-  O226  1  0.24526828  0.69612991  0.83925264  1
  O2-  O227  1  0.51181699  0.10681360  -0.13307939  1
  O2-  O228  1  0.50548901  0.12043381  0.35614042  1
  O2-  O229  1  0.49372296  0.10924367  0.54117666  1
  O2-  O230  1  0.49443635  0.16570541  0.68578869  1
  O2-  O231  1  0.50459695  0.39426458  -0.11905248  1
  O2-  O232  1  0.50737970  0.36506771  0.33967374  1
  O2-  O233  1  0.46551189  0.38373302  0.51310620  1
  O2-  O234  1  0.49285422  0.37616280  0.67270236  1
  O2-  O235  1  0.74499337  -0.05081148  0.08619166  1
  O2-  O236  1  0.74370489  -0.16619389  0.19245520  1
  O2-  O237  1  0.75817098  -0.15337225  0.38631392  1
  O2-  O238  1  0.74851800  -0.14640827  0.61896056  1
  O2-  O239  1  0.74094498  0.65096784  0.05389584  1
  O2-  O240  1  0.74359992  0.61882838  0.20988281  1
  O2-  O241  1  0.75640677  0.66289166  0.38089685  1
  O2-  O242  1  0.75136372  0.66288138  0.87045278  1
