# generated using pymatgen
data_Gd19Ta56(WO20)8
_symmetry_space_group_name_H-M   'P 1'
_cell_length_a   15.54560952
_cell_length_b   15.45330117
_cell_length_c   15.25445041
_cell_angle_alpha   90.06777693
_cell_angle_beta   89.84088572
_cell_angle_gamma   89.53133673
_symmetry_Int_Tables_number   1
_chemical_formula_structural   Gd19Ta56(WO20)8
_chemical_formula_sum   'Gd19 Ta56 W8 O160'
_cell_volume   3664.45227085
_cell_formula_units_Z   1
loop_
 _symmetry_equiv_pos_site_id
 _symmetry_equiv_pos_as_xyz
  1  'x, y, z'
loop_
 _atom_type_symbol
 _atom_type_oxidation_number
  Gd3+  3.0
  Ta5+  5.0
  W6+  6.0
  O2-  -2.0
loop_
 _atom_site_type_symbol
 _atom_site_label
 _atom_site_symmetry_multiplicity
 _atom_site_fract_x
 _atom_site_fract_y
 _atom_site_fract_z
 _atom_site_occupancy
  Gd3+  Gd0  1  0.48546929  0.73768130  0.26910922  1
  Gd3+  Gd1  1  0.47326621  0.74249037  0.51931450  1
  Gd3+  Gd2  1  0.50470438  0.25956193  0.54366495  1
  Gd3+  Gd3  1  -0.01181389  0.75423372  0.25787458  1
  Gd3+  Gd4  1  0.01028354  0.26098385  0.73356811  1
  Gd3+  Gd5  1  0.51375265  0.25378870  0.00435736  1
  Gd3+  Gd6  1  0.24666069  0.26555941  0.26093952  1
  Gd3+  Gd7  1  0.01240607  0.24144536  -0.02922431  1
  Gd3+  Gd8  1  0.78921257  0.22445237  0.00535239  1
  Gd3+  Gd9  1  0.76183388  0.76805117  -0.05046892  1
  Gd3+  Gd10  1  0.25356408  0.75197316  -0.00139519  1
  Gd3+  Gd11  1  -0.00188704  0.76653146  0.00311947  1
  Gd3+  Gd12  1  0.24603796  0.75069546  0.75665928  1
  Gd3+  Gd13  1  0.49211434  0.75225330  0.00847145  1
  Gd3+  Gd14  1  0.71081900  0.24879998  0.77279296  1
  Gd3+  Gd15  1  0.01138543  0.22996244  0.50353854  1
  Gd3+  Gd16  1  -0.00879366  0.75783228  0.74708677  1
  Gd3+  Gd17  1  -0.00766306  0.76531120  0.51133398  1
  Gd3+  Gd18  1  0.76829469  0.24227053  0.24719014  1
  Ta5+  Ta19  1  0.31875316  0.62477108  0.39295767  1
  Ta5+  Ta20  1  0.61190940  0.11681657  0.38563150  1
  Ta5+  Ta21  1  0.17286906  0.13876684  0.63107772  1
  Ta5+  Ta22  1  0.82881402  0.37275411  0.61423497  1
  Ta5+  Ta23  1  0.61906364  0.09769446  0.13676829  1
  Ta5+  Ta24  1  0.87299166  0.39839006  0.86842260  1
  Ta5+  Ta25  1  0.10693406  0.90633279  0.13367559  1
  Ta5+  Ta26  1  0.88756551  0.59097009  0.87184627  1
  Ta5+  Ta27  1  0.15024845  0.63136258  0.39589368  1
  Ta5+  Ta28  1  0.16776832  0.38368205  0.60887116  1
  Ta5+  Ta29  1  0.88272367  0.11548555  0.37193104  1
  Ta5+  Ta30  1  0.37173614  0.88939588  0.87506591  1
  Ta5+  Ta31  1  0.90933072  0.08081669  0.78655747  1
  Ta5+  Ta32  1  0.37288779  0.61702765  0.13653950  1
  Ta5+  Ta33  1  0.86052508  0.62254077  0.62644951  1
  Ta5+  Ta34  1  0.11983255  0.62557157  0.87955909  1
  Ta5+  Ta35  1  0.38459072  0.37547681  0.12935903  1
  Ta5+  Ta36  1  0.62651424  0.86728939  0.38832443  1
  Ta5+  Ta37  1  0.12609409  0.88016308  0.38296530  1
  Ta5+  Ta38  1  0.86528984  0.62467585  0.38198573  1
  Ta5+  Ta39  1  0.33354138  0.37419305  0.62696647  1
  Ta5+  Ta40  1  0.10550478  0.38200801  0.12920915  1
  Ta5+  Ta41  1  0.61390205  0.63062016  0.87479672  1
  Ta5+  Ta42  1  0.59762120  0.88779552  0.62483660  1
  Ta5+  Ta43  1  0.83820408  0.87822305  0.37638539  1
  Ta5+  Ta44  1  0.09966231  0.39116155  0.37358530  1
  Ta5+  Ta45  1  0.88657386  0.91098752  0.87044792  1
  Ta5+  Ta46  1  0.89162777  0.38113490  0.37393412  1
  Ta5+  Ta47  1  0.38695631  0.13011915  0.13169518  1
  Ta5+  Ta48  1  0.63040950  0.38827196  0.88661401  1
  Ta5+  Ta49  1  0.91154551  0.06384702  0.12893234  1
  Ta5+  Ta50  1  0.62978290  0.61605688  0.38953866  1
  Ta5+  Ta51  1  0.36928392  0.61662007  0.86838336  1
  Ta5+  Ta52  1  0.14567729  0.62625439  0.61207458  1
  Ta5+  Ta53  1  0.12649485  0.63259683  0.13935755  1
  Ta5+  Ta54  1  0.35543301  0.88310085  0.38963131  1
  Ta5+  Ta55  1  0.37912581  0.38677161  0.38345533  1
  Ta5+  Ta56  1  0.13482834  0.13558556  0.12076148  1
  Ta5+  Ta57  1  0.66256870  0.85591074  0.17510441  1
  Ta5+  Ta58  1  0.61572172  0.39453930  0.14564946  1
  Ta5+  Ta59  1  0.63034411  0.63602410  0.13506831  1
  Ta5+  Ta60  1  0.31451326  0.89218234  0.62355201  1
  Ta5+  Ta61  1  0.13124618  0.38300790  0.86571775  1
  Ta5+  Ta62  1  0.35228167  0.88378609  0.13903612  1
  Ta5+  Ta63  1  0.66202378  0.38083680  0.62573658  1
  Ta5+  Ta64  1  0.43508890  0.12628364  0.86018121  1
  Ta5+  Ta65  1  0.83795775  0.15482631  0.61547675  1
  Ta5+  Ta66  1  0.12853785  0.12386077  0.37053924  1
  Ta5+  Ta67  1  0.13256269  0.89871745  0.87853182  1
  Ta5+  Ta68  1  0.36919343  0.37336308  0.87216603  1
  Ta5+  Ta69  1  0.63466808  0.62963795  0.62716549  1
  Ta5+  Ta70  1  0.59821448  0.87671318  0.81626197  1
  Ta5+  Ta71  1  0.34761466  0.13874273  0.64086802  1
  Ta5+  Ta72  1  0.67465012  0.11617824  0.61985182  1
  Ta5+  Ta73  1  0.31143922  0.61896298  0.60972859  1
  Ta5+  Ta74  1  0.37577590  0.12619746  0.38727364  1
  W6+  W75  1  0.18469333  0.13947976  0.85109323  1
  W6+  W76  1  0.14965864  0.88607549  0.61888043  1
  W6+  W77  1  0.62050414  0.36512152  0.38807277  1
  W6+  W78  1  0.86644979  0.39594454  0.12458834  1
  W6+  W79  1  0.84752442  0.63274056  0.12339669  1
  W6+  W80  1  0.83129254  0.86452970  0.13728296  1
  W6+  W81  1  0.85348522  0.91233412  0.61868357  1
  W6+  W82  1  0.59722797  0.11344253  0.87412017  1
  O2-  O83  1  0.16788190  0.01182389  0.12731855  1
  O2-  O84  1  0.15128191  0.00289639  0.37182984  1
  O2-  O85  1  0.16158428  0.02098620  0.62504192  1
  O2-  O86  1  0.14045274  0.01563229  0.86302941  1
  O2-  O87  1  0.11215998  0.50982431  0.13382760  1
  O2-  O88  1  0.12880029  0.51088603  0.38287347  1
  O2-  O89  1  0.13457172  0.50364527  0.61553561  1
  O2-  O90  1  0.10466805  0.50675641  0.86929381  1
  O2-  O91  1  0.36183513  0.00782391  0.12182978  1
  O2-  O92  1  0.33514451  0.01014477  0.39681728  1
  O2-  O93  1  0.34352787  0.01006581  0.62425966  1
  O2-  O94  1  0.39643789  0.00567198  0.88973150  1
  O2-  O95  1  0.35358535  0.49713260  0.11341243  1
  O2-  O96  1  0.32650324  0.49683130  0.39346321  1
  O2-  O97  1  0.32354166  0.49755751  0.60281974  1
  O2-  O98  1  0.39700729  0.50005221  0.88839678  1
  O2-  O99  1  0.62901917  -0.02124630  0.15353130  1
  O2-  O100  1  0.62814895  -0.01112062  0.38565538  1
  O2-  O101  1  0.61203683  0.00458444  0.60300235  1
  O2-  O102  1  0.61880657  -0.02456072  0.87457152  1
  O2-  O103  1  0.64161817  0.51186253  0.13664588  1
  O2-  O104  1  0.64117592  0.49892491  0.37968668  1
  O2-  O105  1  0.65163754  0.50902341  0.62395405  1
  O2-  O106  1  0.61011997  0.50824549  0.89640852  1
  O2-  O107  1  0.81202942  0.00041252  0.11524822  1
  O2-  O108  1  0.82802447  0.00382865  0.37324954  1
  O2-  O109  1  0.78669256  0.03445402  0.61662712  1
  O2-  O110  1  1.00881777  -0.13727490  0.86382298  1
  O2-  O111  1  0.82341589  0.50953356  0.10200618  1
  O2-  O112  1  0.86894945  0.50444278  0.39335535  1
  O2-  O113  1  0.84330472  0.50402087  0.62525988  1
  O2-  O114  1  0.94282760  0.49810740  0.92356241  1
  O2-  O115  1  0.16070443  0.26132464  0.13231606  1
  O2-  O116  1  0.11690076  0.25635637  0.36069789  1
  O2-  O117  1  0.10704849  0.26214847  0.61201326  1
  O2-  O118  1  0.12836416  0.25787488  0.87434154  1
  O2-  O119  1  0.08584494  0.76362390  0.13108251  1
  O2-  O120  1  0.08436928  0.75691585  0.38365742  1
  O2-  O121  1  0.09304129  0.75444665  0.62756971  1
  O2-  O122  1  0.15100567  0.75785814  0.89100988  1
  O2-  O123  1  0.33912913  0.25134951  0.13506337  1
  O2-  O124  1  0.34434465  0.25630741  0.37528405  1
  O2-  O125  1  0.39406147  0.25765700  0.64608012  1
  O2-  O126  1  0.41183956  0.25488609  0.86448812  1
  O2-  O127  1  0.39379310  0.75882716  0.14590262  1
  O2-  O128  1  0.38633115  0.75353371  0.38259952  1
  O2-  O129  1  0.33315399  0.75880774  0.62714829  1
  O2-  O130  1  0.34124239  0.75203430  0.87259708  1
  O2-  O131  1  0.71538005  0.16876966  0.11914063  1
  O2-  O132  1  0.57132124  0.23676138  0.40642262  1
  O2-  O133  1  0.63409476  0.24589622  0.62567443  1
  O2-  O134  1  0.59784643  0.26003276  0.88104349  1
  O2-  O135  1  0.57992149  0.76397392  0.13336775  1
  O2-  O136  1  0.57144419  0.74126153  0.39549003  1
  O2-  O137  1  0.57654392  0.74809894  0.62906244  1
  O2-  O138  1  0.63863627  0.76623648  0.86886436  1
  O2-  O139  1  0.84127729  0.27020754  0.13013352  1
  O2-  O140  1  0.88327204  0.24526335  0.35988018  1
  O2-  O141  1  0.91746789  0.26761462  0.61332435  1
  O2-  O142  1  0.96342379  0.17027721  0.85295972  1
  O2-  O143  1  0.91190987  0.74844679  0.12455931  1
  O2-  O144  1  0.89708693  0.75388791  0.38324881  1
  O2-  O145  1  0.90039651  0.76727075  0.63307036  1
  O2-  O146  1  0.99688825  0.67501228  0.87734166  1
  O2-  O147  1  0.12711442  0.13996246  -0.00262510  1
  O2-  O148  1  0.17809417  0.13424212  0.25225252  1
  O2-  O149  1  0.14443922  0.14406305  0.49382255  1
  O2-  O150  1  0.10621819  0.15198021  0.74155294  1
  O2-  O151  1  0.09846694  0.64271597  0.01050478  1
  O2-  O152  1  0.12203301  0.64753687  0.26197031  1
  O2-  O153  1  0.07520712  0.63651234  0.50349688  1
  O2-  O154  1  0.12967246  0.64781980  0.75222531  1
  O2-  O155  1  0.40964270  0.14571669  0.00743757  1
  O2-  O156  1  0.35106168  0.13135468  0.25747340  1
  O2-  O157  1  0.39007711  0.14889353  0.51173277  1
  O2-  O158  1  0.42990302  0.11308495  0.74061826  1
  O2-  O159  1  0.37693417  0.65690629  0.00598111  1
  O2-  O160  1  0.36055367  0.62372283  0.26161065  1
  O2-  O161  1  0.38933625  0.62637715  0.50121016  1
  O2-  O162  1  0.34051937  0.62088924  0.74623537  1
  O2-  O163  1  0.58948123  0.11524248  0.01815301  1
  O2-  O164  1  0.65497837  0.13109511  0.26927090  1
  O2-  O165  1  0.67938558  0.12673531  0.48695173  1
  O2-  O166  1  0.64513052  0.11808310  0.74249720  1
  O2-  O167  1  0.63083656  0.65633671  0.00387771  1
  O2-  O168  1  0.60588213  0.64025118  0.26575258  1
  O2-  O169  1  0.57904596  0.62080236  0.50834025  1
  O2-  O170  1  0.64152807  0.62821111  0.75437033  1
  O2-  O171  1  0.90690378  0.13572885  0.02807254  1
  O2-  O172  1  0.87125603  0.11484543  0.23818359  1
  O2-  O173  1  0.89261678  0.13284518  0.49633429  1
  O2-  O174  1  0.82352787  0.16499223  0.75199127  1
  O2-  O175  1  0.84312566  0.64957463  -0.02513068  1
  O2-  O176  1  0.89427876  0.63141954  0.25988777  1
  O2-  O177  1  0.90241924  0.63706611  0.50850390  1
  O2-  O178  1  0.90933050  0.62879378  0.74478458  1
  O2-  O179  1  0.10645636  0.37537781  0.00434013  1
  O2-  O180  1  0.15797746  0.38416830  0.25273417  1
  O2-  O181  1  0.17067232  0.37389082  0.48135520  1
  O2-  O182  1  0.14068954  0.37438962  0.74206204  1
  O2-  O183  1  0.09783889  0.88100331  0.00801224  1
  O2-  O184  1  0.08740959  0.88138340  0.25715938  1
  O2-  O185  1  0.08031474  0.89118684  0.49583550  1
  O2-  O186  1  0.15150581  0.86638778  0.75858717  1
  O2-  O187  1  0.40363824  0.35894289  0.00356612  1
  O2-  O188  1  0.34441817  0.38002363  0.25190577  1
  O2-  O189  1  0.39572907  0.36050634  0.50664463  1
  O2-  O190  1  0.35111326  0.39113698  0.75173505  1
  O2-  O191  1  0.38738954  0.86034950  0.01617485  1
  O2-  O192  1  0.38406717  0.89030243  0.26095703  1
  O2-  O193  1  0.38349164  0.87395009  0.51135874  1
  O2-  O194  1  0.33545705  0.88316600  0.75526458  1
  O2-  O195  1  0.62027528  0.36673408  0.02045507  1
  O2-  O196  1  0.64949569  0.33635826  0.25057128  1
  O2-  O197  1  0.59056222  0.37578372  0.51930526  1
  O2-  O198  1  0.64262344  0.38531750  0.75756161  1
  O2-  O199  1  0.71321328  0.84573203  0.05938324  1
  O2-  O200  1  0.56476361  0.86020816  0.27516414  1
  O2-  O201  1  0.56438570  0.86846206  0.50122086  1
  O2-  O202  1  0.68308375  0.86901972  0.71845209  1
  O2-  O203  1  0.89015199  0.33664431  -0.01622222  1
  O2-  O204  1  0.82866812  0.38129674  0.26445294  1
  O2-  O205  1  0.82995467  0.36563881  0.48756616  1
  O2-  O206  1  0.85271399  0.35266089  0.75244183  1
  O2-  O207  1  0.87928297  0.86247724  -0.00746569  1
  O2-  O208  1  0.90098912  0.87428393  0.26538924  1
  O2-  O209  1  0.89373844  0.88870044  0.48839446  1
  O2-  O210  1  0.84576036  0.79958804  0.83077794  1
  O2-  O211  1  -0.00370188  -0.03210463  0.12588754  1
  O2-  O212  1  0.02305055  0.13926948  0.15594384  1
  O2-  O213  1  0.00771873  0.11037709  0.36463238  1
  O2-  O214  1  -0.04513329  0.10753516  0.67204732  1
  O2-  O215  1  -0.00483515  0.34618836  0.13874977  1
  O2-  O216  1  -0.00456720  0.41129769  0.30487396  1
  O2-  O217  1  0.00002754  0.36260853  0.45527970  1
  O2-  O218  1  -0.00224991  0.35548662  0.85232670  1
  O2-  O219  1  0.25319659  -0.11064518  -0.07533254  1
  O2-  O220  1  0.23597536  -0.14580548  0.12695344  1
  O2-  O221  1  0.24147496  -0.15409877  0.37511187  1
  O2-  O222  1  0.25953550  0.16457272  0.73199269  1
  O2-  O223  1  0.24450547  0.61461834  -0.09695918  1
  O2-  O224  1  0.24542558  0.65123599  0.11792938  1
  O2-  O225  1  0.23425601  0.66951119  0.49888567  1
  O2-  O226  1  0.25075563  0.38783146  0.89997738  1
  O2-  O227  1  0.48951295  -0.15770399  -0.11548710  1
  O2-  O228  1  0.50343724  0.13799219  0.16875928  1
  O2-  O229  1  0.48999897  0.09311731  0.36876883  1
  O2-  O230  1  0.51591809  -0.10428934  0.72056032  1
  O2-  O231  1  0.49517120  0.61898108  0.13095266  1
  O2-  O232  1  0.49985944  0.33551416  0.14968942  1
  O2-  O233  1  0.49098892  0.40137223  0.35445666  1
  O2-  O234  1  0.49233408  0.65548470  0.87626198  1
  O2-  O235  1  0.83740210  0.02302088  -0.11525654  1
  O2-  O236  1  0.73036326  -0.13566581  0.28287422  1
  O2-  O237  1  0.73472169  -0.16353678  0.44140747  1
  O2-  O238  1  0.89812352  -0.05005938  0.74363082  1
  O2-  O239  1  0.75107934  0.34009959  -0.10346858  1
  O2-  O240  1  0.74578150  0.65010102  0.39759234  1
  O2-  O241  1  0.74728244  0.66879639  0.60267945  1
  O2-  O242  1  0.80456197  0.50744295  0.83826026  1
