# generated using pymatgen
data_Gd19Ta56(WO20)8
_symmetry_space_group_name_H-M   'P 1'
_cell_length_a   15.62364882
_cell_length_b   15.63886250
_cell_length_c   15.32365926
_cell_angle_alpha   90.13626647
_cell_angle_beta   89.90075689
_cell_angle_gamma   90.07904989
_symmetry_Int_Tables_number   1
_chemical_formula_structural   Gd19Ta56(WO20)8
_chemical_formula_sum   'Gd19 Ta56 W8 O160'
_cell_volume   3744.10332573
_cell_formula_units_Z   1
loop_
 _symmetry_equiv_pos_site_id
 _symmetry_equiv_pos_as_xyz
  1  'x, y, z'
loop_
 _atom_type_symbol
 _atom_type_oxidation_number
  Gd3+  3.0
  Ta5+  5.0
  W6+  6.0
  O2-  -2.0
loop_
 _atom_site_type_symbol
 _atom_site_label
 _atom_site_symmetry_multiplicity
 _atom_site_fract_x
 _atom_site_fract_y
 _atom_site_fract_z
 _atom_site_occupancy
  Gd3+  Gd0  1  0.75406135  0.75483804  0.24769075  1
  Gd3+  Gd1  1  0.24458568  0.74777221  0.25283472  1
  Gd3+  Gd2  1  0.50696223  0.75434520  0.75205050  1
  Gd3+  Gd3  1  0.74803877  0.26604774  0.49208581  1
  Gd3+  Gd4  1  0.75950620  0.74564828  0.77009329  1
  Gd3+  Gd5  1  0.51279799  0.75588800  0.00520961  1
  Gd3+  Gd6  1  0.24451334  0.26304962  0.50736073  1
  Gd3+  Gd7  1  0.48219230  0.76943506  0.48556451  1
  Gd3+  Gd8  1  0.25055159  0.74785148  0.48901072  1
  Gd3+  Gd9  1  -0.00280748  0.74309419  0.01307529  1
  Gd3+  Gd10  1  0.01200210  0.75671716  0.49437568  1
  Gd3+  Gd11  1  -0.00727763  0.24082494  0.48677062  1
  Gd3+  Gd12  1  0.49275883  0.23736593  0.49577418  1
  Gd3+  Gd13  1  0.25803535  0.24545424  0.76288183  1
  Gd3+  Gd14  1  0.02232684  0.24841355  0.76774067  1
  Gd3+  Gd15  1  0.69791305  0.75640335  0.48975963  1
  Gd3+  Gd16  1  0.51860887  0.73453210  0.24993715  1
  Gd3+  Gd17  1  0.25034580  0.27354405  0.22664492  1
  Gd3+  Gd18  1  0.75889369  0.25699967  0.75356845  1
  Ta5+  Ta19  1  0.32999989  0.13299304  0.36876931  1
  Ta5+  Ta20  1  0.88320972  0.62282682  0.87343012  1
  Ta5+  Ta21  1  0.64538456  0.61234488  0.12064894  1
  Ta5+  Ta22  1  0.13334513  0.62657136  0.62833908  1
  Ta5+  Ta23  1  0.58287938  0.91331182  0.33629786  1
  Ta5+  Ta24  1  0.87697578  0.62562599  0.37985415  1
  Ta5+  Ta25  1  0.63736546  0.61550650  0.87385656  1
  Ta5+  Ta26  1  0.61153633  0.37089024  0.36483650  1
  Ta5+  Ta27  1  0.61942287  0.13460272  0.62739063  1
  Ta5+  Ta28  1  0.62602986  0.13123176  0.88730369  1
  Ta5+  Ta29  1  0.60908327  0.37295336  0.63002409  1
  Ta5+  Ta30  1  0.14375155  0.12325910  0.12071926  1
  Ta5+  Ta31  1  0.37877724  0.62171955  0.87945646  1
  Ta5+  Ta32  1  0.92336807  0.37764101  0.12874007  1
  Ta5+  Ta33  1  0.09166445  0.37101497  0.12626296  1
  Ta5+  Ta34  1  0.14053485  0.87667923  0.12287200  1
  Ta5+  Ta35  1  0.38640874  0.37391435  0.88107620  1
  Ta5+  Ta36  1  0.85534567  0.88007943  0.63689468  1
  Ta5+  Ta37  1  0.64289041  0.89376099  0.64575342  1
  Ta5+  Ta38  1  0.40712419  0.37015289  0.11795893  1
  Ta5+  Ta39  1  0.35808288  0.88369450  0.62956042  1
  Ta5+  Ta40  1  0.63970045  0.61673909  0.63465596  1
  Ta5+  Ta41  1  0.39084281  0.12231038  0.88021426  1
  Ta5+  Ta42  1  0.09809175  0.38433875  0.62340520  1
  Ta5+  Ta43  1  0.85455755  0.61471662  0.12541741  1
  Ta5+  Ta44  1  0.11884143  0.61760604  0.37043149  1
  Ta5+  Ta45  1  0.88353009  0.12105069  0.62735175  1
  Ta5+  Ta46  1  0.36996027  0.87856914  0.88387821  1
  Ta5+  Ta47  1  0.66620081  0.12866749  0.36178089  1
  Ta5+  Ta48  1  0.57443476  0.37752209  0.12076865  1
  Ta5+  Ta49  1  0.88964948  0.37990669  0.88061269  1
  Ta5+  Ta50  1  0.16361672  0.12476429  0.37922783  1
  Ta5+  Ta51  1  0.90199046  0.13207638  0.12933387  1
  Ta5+  Ta52  1  0.88489890  0.88020497  0.88131966  1
  Ta5+  Ta53  1  0.13380770  0.38210604  0.88296903  1
  Ta5+  Ta54  1  0.40270761  0.13585313  0.13402557  1
  Ta5+  Ta55  1  0.56993360  0.13160091  0.13425925  1
  Ta5+  Ta56  1  0.65406932  0.89164211  0.86383319  1
  Ta5+  Ta57  1  0.88950157  0.38574685  0.62664982  1
  Ta5+  Ta58  1  0.37123532  0.88969655  0.35284952  1
  Ta5+  Ta59  1  0.87045523  0.88576116  0.12976836  1
  Ta5+  Ta60  1  0.15406263  0.87522809  0.63809198  1
  Ta5+  Ta61  1  0.09482609  0.10685762  0.62320859  1
  Ta5+  Ta62  1  0.63778141  0.89318752  0.11077617  1
  Ta5+  Ta63  1  0.14156953  0.62916138  0.87811871  1
  Ta5+  Ta64  1  0.13738583  0.86835737  0.88204111  1
  Ta5+  Ta65  1  0.12290458  0.88372397  0.37437979  1
  Ta5+  Ta66  1  0.38974592  0.61414911  0.12116583  1
  Ta5+  Ta67  1  0.10038607  0.37096892  0.37655269  1
  Ta5+  Ta68  1  0.62508796  0.37014123  0.88574594  1
  Ta5+  Ta69  1  0.14758774  0.60991912  0.11746714  1
  Ta5+  Ta70  1  0.38815988  0.37411845  0.36849359  1
  Ta5+  Ta71  1  0.37854825  0.61457896  0.36799140  1
  Ta5+  Ta72  1  0.85008998  0.62499404  0.62561266  1
  Ta5+  Ta73  1  0.83364102  0.12390296  0.37059757  1
  Ta5+  Ta74  1  0.89372526  0.38015281  0.37697669  1
  W6+  W75  1  0.36603746  0.11047781  0.62490156  1
  W6+  W76  1  0.85924103  0.12743894  0.88258407  1
  W6+  W77  1  0.57167658  0.52533258  0.27225937  1
  W6+  W78  1  0.86870818  0.88122613  0.38930465  1
  W6+  W79  1  0.40095908  0.89006442  0.13165160  1
  W6+  W80  1  0.14700162  0.11835504  0.87995728  1
  W6+  W81  1  0.36586532  0.37762335  0.63093386  1
  W6+  W82  1  0.38819642  0.62554925  0.62418582  1
  O2-  O83  1  0.15954529  -0.00536224  0.12989908  1
  O2-  O84  1  0.13919308  0.00138898  0.37569560  1
  O2-  O85  1  0.09272904  -0.01331225  0.63049548  1
  O2-  O86  1  0.13567830  -0.01540996  0.87911751  1
  O2-  O87  1  0.11217347  0.49793974  0.13474361  1
  O2-  O88  1  0.10791799  0.49899945  0.37122187  1
  O2-  O89  1  0.10080935  0.50860300  0.63424711  1
  O2-  O90  1  0.13535157  0.50743755  0.87143470  1
  O2-  O91  1  0.38639057  0.01861188  0.14342336  1
  O2-  O92  1  0.34597990  0.00600585  0.36657931  1
  O2-  O93  1  0.42068148  -0.01621352  0.61722198  1
  O2-  O94  1  0.36172640  -0.00227297  0.88187378  1
  O2-  O95  1  0.39826481  0.49579942  0.12076981  1
  O2-  O96  1  0.36963683  0.49530410  0.38335609  1
  O2-  O97  1  0.38838176  0.49967757  0.61810775  1
  O2-  O98  1  0.38746735  0.50387359  0.87795915  1
  O2-  O99  1  0.58907113  -0.00062437  0.11810207  1
  O2-  O100  1  0.64228277  0.00291202  0.38676609  1
  O2-  O101  1  0.63628512  0.01340578  0.62639209  1
  O2-  O102  1  0.66582449  0.01236995  0.87298783  1
  O2-  O103  1  0.63477091  0.49595580  0.10650221  1
  O2-  O104  1  0.64142136  0.48433007  0.38699883  1
  O2-  O105  1  0.62029897  0.49587539  0.62006353  1
  O2-  O106  1  0.63491810  0.49460775  0.88110772  1
  O2-  O107  1  0.90361372  -0.00159760  0.13796449  1
  O2-  O108  1  0.86820051  0.01158280  0.38285090  1
  O2-  O109  1  0.86284220  0.00043093  0.62944390  1
  O2-  O110  1  0.87178183  -0.00500541  0.88468886  1
  O2-  O111  1  0.88797046  0.50202267  0.13226194  1
  O2-  O112  1  0.87453878  0.50821061  0.39200157  1
  O2-  O113  1  0.88159476  0.50824775  0.62236019  1
  O2-  O114  1  0.89677982  0.50330007  0.87152486  1
  O2-  O115  1  0.13822942  0.25127927  0.12486167  1
  O2-  O116  1  0.11695917  0.24516708  0.40044331  1
  O2-  O117  1  0.08622523  0.25099543  0.61315757  1
  O2-  O118  1  0.14394699  0.25562420  0.87003569  1
  O2-  O119  1  0.16998491  0.75156238  0.11738772  1
  O2-  O120  1  0.12664850  0.74841178  0.38799521  1
  O2-  O121  1  0.08443884  0.74544542  0.62130378  1
  O2-  O122  1  0.08965360  0.74485444  0.89265983  1
  O2-  O123  1  0.35101592  0.25552972  0.11764837  1
  O2-  O124  1  0.30778255  0.26976814  0.37035961  1
  O2-  O125  1  0.32026697  0.24609978  0.63112093  1
  O2-  O126  1  0.36175757  0.24587496  0.87409250  1
  O2-  O127  1  0.42227822  0.74912204  0.12883892  1
  O2-  O128  1  0.39452554  0.75616859  0.35217837  1
  O2-  O129  1  0.42940736  0.76799040  0.62671489  1
  O2-  O130  1  0.42697274  0.75470304  0.88068973  1
  O2-  O131  1  0.56099777  0.25511373  0.13699873  1
  O2-  O132  1  0.67626588  0.26140679  0.35837975  1
  O2-  O133  1  0.68063504  0.25674283  0.62545860  1
  O2-  O134  1  0.67762228  0.24788346  0.87933626  1
  O2-  O135  1  0.61234658  0.76152973  0.12341018  1
  O2-  O136  1  0.60571835  0.78926557  0.37336608  1
  O2-  O137  1  0.65044390  0.75122845  0.67043739  1
  O2-  O138  1  0.62768443  0.75259331  0.85588656  1
  O2-  O139  1  0.92184307  0.25358822  0.12937892  1
  O2-  O140  1  0.87456216  0.25184514  0.38951841  1
  O2-  O141  1  0.88427639  0.25407630  0.62400045  1
  O2-  O142  1  0.88925079  0.25708914  0.84705888  1
  O2-  O143  1  0.85320103  0.74929946  0.12510324  1
  O2-  O144  1  0.80845258  0.73940216  0.39044758  1
  O2-  O145  1  0.83978037  0.75147764  0.64584307  1
  O2-  O146  1  0.91313027  0.74653102  0.88610507  1
  O2-  O147  1  0.18755314  0.12415466  0.00862615  1
  O2-  O148  1  0.17643566  0.13974324  0.24809082  1
  O2-  O149  1  0.16797234  0.12564282  0.52105828  1
  O2-  O150  1  0.15216590  0.13851086  0.73156434  1
  O2-  O151  1  0.09352164  0.62470451  0.00408731  1
  O2-  O152  1  0.13717106  0.63768778  0.24248527  1
  O2-  O153  1  0.10415969  0.62728397  0.50041200  1
  O2-  O154  1  0.13304646  0.64096969  0.75566545  1
  O2-  O155  1  0.39789160  0.12993784  0.00110221  1
  O2-  O156  1  0.36905003  0.16259521  0.25613233  1
  O2-  O157  1  0.37282532  0.15027261  0.49172854  1
  O2-  O158  1  0.34064261  0.12058822  0.76099709  1
  O2-  O159  1  0.42654041  0.63275872  -0.00298771  1
  O2-  O160  1  0.34684955  0.63216681  0.24295998  1
  O2-  O161  1  0.37801517  0.65743013  0.48844845  1
  O2-  O162  1  0.40298620  0.64167413  0.76046350  1
  O2-  O163  1  0.61181672  0.13612234  0.00679358  1
  O2-  O164  1  0.61973525  0.12830010  0.24680342  1
  O2-  O165  1  0.62805195  0.15408699  0.49620071  1
  O2-  O166  1  0.64160164  0.14666213  0.74885392  1
  O2-  O167  1  0.60952193  0.63844746  -0.00750210  1
  O2-  O168  1  0.51479375  0.61074820  0.16182984  1
  O2-  O169  1  0.57977448  0.66563317  0.53790406  1
  O2-  O170  1  0.58185164  0.61844223  0.75564075  1
  O2-  O171  1  0.84756807  0.12936102  0.02145489  1
  O2-  O172  1  0.84748133  0.13504273  0.24018557  1
  O2-  O173  1  0.82172520  0.13748260  0.51319139  1
  O2-  O174  1  0.82357649  0.12972146  0.73910966  1
  O2-  O175  1  0.90017003  0.62677063  0.00312170  1
  O2-  O176  1  0.84335485  0.63122700  0.25752433  1
  O2-  O177  1  0.90682142  0.65097200  0.51239671  1
  O2-  O178  1  0.90473945  0.63438381  0.74918384  1
  O2-  O179  1  0.13791589  0.38147168  0.00328532  1
  O2-  O180  1  0.10735660  0.35531810  0.25551710  1
  O2-  O181  1  0.15775920  0.38127504  0.50729053  1
  O2-  O182  1  0.15150899  0.36254668  0.74055332  1
  O2-  O183  1  0.09278035  0.86636233  0.00500977  1
  O2-  O184  1  0.12929021  0.86119426  0.24900608  1
  O2-  O185  1  0.13574008  0.86434131  0.50958234  1
  O2-  O186  1  0.12214634  0.85456653  0.75780663  1
  O2-  O187  1  0.35791234  0.37667073  -0.00151011  1
  O2-  O188  1  0.36696661  0.37228176  0.24432142  1
  O2-  O189  1  0.38440837  0.34428676  0.49697397  1
  O2-  O190  1  0.33374873  0.37549377  0.76630878  1
  O2-  O191  1  0.42423698  0.87863729  -0.00347729  1
  O2-  O192  1  0.32038848  0.87135532  0.23530156  1
  O2-  O193  1  0.35467851  0.85534439  0.50150112  1
  O2-  O194  1  0.38722351  0.86621519  0.75849644  1
  O2-  O195  1  0.62742953  0.35664210  0.00570435  1
  O2-  O196  1  0.61476642  0.38927371  0.23983515  1
  O2-  O197  1  0.61273835  0.34620122  0.50053989  1
  O2-  O198  1  0.64383054  0.36633736  0.75109802  1
  O2-  O199  1  0.60894732  0.87727757  -0.02128780  1
  O2-  O200  1  0.66204406  0.87989001  0.23843614  1
  O2-  O201  1  0.58297692  0.85047541  0.54997698  1
  O2-  O202  1  0.57529945  0.89016292  0.76083671  1
  O2-  O203  1  0.87746664  0.37285155  0.00001135  1
  O2-  O204  1  0.90707055  0.37843170  0.25796011  1
  O2-  O205  1  0.83142779  0.38000384  0.50886526  1
  O2-  O206  1  0.83298832  0.38381905  0.74751844  1
  O2-  O207  1  0.91809268  0.86880633  0.00570062  1
  O2-  O208  1  0.84887400  0.86830332  0.25234149  1
  O2-  O209  1  0.91694798  0.86167471  0.53165729  1
  O2-  O210  1  0.91009151  0.86916860  0.75535316  1
  O2-  O211  1  0.02424262  0.11474475  0.12106679  1
  O2-  O212  1  0.00385630  -0.13311284  0.38249211  1
  O2-  O213  1  -0.01014911  0.11203366  0.54495546  1
  O2-  O214  1  -0.01138548  0.12375947  0.70443200  1
  O2-  O215  1  0.01171100  0.37184155  -0.12405440  1
  O2-  O216  1  -0.00627034  0.64869867  0.36021996  1
  O2-  O217  1  -0.00731623  0.38130972  0.54264216  1
  O2-  O218  1  -0.00738935  0.37645209  0.70260247  1
  O2-  O219  1  0.25553563  -0.15940847  -0.10172854  1
  O2-  O220  1  0.25012674  -0.15302515  0.37592199  1
  O2-  O221  1  0.25312064  -0.04937333  0.65043780  1
  O2-  O222  1  0.25209728  -0.20462346  0.63044625  1
  O2-  O223  1  0.26590882  0.60859243  0.08944861  1
  O2-  O224  1  0.24622562  0.63571608  0.38052735  1
  O2-  O225  1  0.24778107  0.62537950  0.60436408  1
  O2-  O226  1  0.25989011  0.64712555  0.89580889  1
  O2-  O227  1  0.50876582  0.11969278  -0.14535219  1
  O2-  O228  1  0.47755136  -0.11497087  0.25550283  1
  O2-  O229  1  0.48347449  -0.09507965  0.41490598  1
  O2-  O230  1  0.50233787  0.15123352  0.62280495  1
  O2-  O231  1  0.50571597  0.35563897  -0.13137696  1
  O2-  O232  1  0.49969953  0.62313913  0.34642511  1
  O2-  O233  1  0.49667931  0.30869822  0.36040622  1
  O2-  O234  1  0.49917853  0.33094527  0.63559439  1
  O2-  O235  1  0.76754958  -0.15519707  -0.10573608  1
  O2-  O236  1  0.75647280  -0.09757515  0.08497619  1
  O2-  O237  1  0.74640330  -0.12598227  0.56838706  1
  O2-  O238  1  0.73924694  -0.11055177  0.73554116  1
  O2-  O239  1  0.76090431  0.63478899  -0.11842607  1
  O2-  O240  1  0.65515809  0.64427048  0.24750829  1
  O2-  O241  1  0.74278890  0.63000451  0.55004528  1
  O2-  O242  1  0.74679431  0.60847742  0.70856459  1
