# generated using pymatgen
data_Gd19Ta56(WO20)8
_symmetry_space_group_name_H-M   'P 1'
_cell_length_a   15.47249363
_cell_length_b   15.42904167
_cell_length_c   15.27361761
_cell_angle_alpha   89.80638647
_cell_angle_beta   89.97863287
_cell_angle_gamma   89.84272273
_symmetry_Int_Tables_number   1
_chemical_formula_structural   Gd19Ta56(WO20)8
_chemical_formula_sum   'Gd19 Ta56 W8 O160'
_cell_volume   3646.17100573
_cell_formula_units_Z   1
loop_
 _symmetry_equiv_pos_site_id
 _symmetry_equiv_pos_as_xyz
  1  'x, y, z'
loop_
 _atom_type_symbol
 _atom_type_oxidation_number
  Gd3+  3.0
  Ta5+  5.0
  W6+  6.0
  O2-  -2.0
loop_
 _atom_site_type_symbol
 _atom_site_label
 _atom_site_symmetry_multiplicity
 _atom_site_fract_x
 _atom_site_fract_y
 _atom_site_fract_z
 _atom_site_occupancy
  Gd3+  Gd0  1  0.51048752  0.26341736  0.74833808  1
  Gd3+  Gd1  1  -0.00780043  0.26851336  0.75278967  1
  Gd3+  Gd2  1  0.74987257  0.76373730  0.50333203  1
  Gd3+  Gd3  1  0.24871708  0.75652865  0.47646666  1
  Gd3+  Gd4  1  0.41379906  0.76598541  0.27660164  1
  Gd3+  Gd5  1  0.02335366  0.22461488  0.25106992  1
  Gd3+  Gd6  1  0.49294677  0.24713219  0.26636799  1
  Gd3+  Gd7  1  0.75407803  0.75044134  0.26148801  1
  Gd3+  Gd8  1  0.01623178  0.24505747  -0.00493400  1
  Gd3+  Gd9  1  -0.03467745  0.78441553  0.70516436  1
  Gd3+  Gd10  1  0.70694429  0.21673744  0.50730147  1
  Gd3+  Gd11  1  0.01234614  0.74351354  -0.01775865  1
  Gd3+  Gd12  1  0.25230223  0.74952515  -0.00698358  1
  Gd3+  Gd13  1  0.73788661  0.23566666  0.75335803  1
  Gd3+  Gd14  1  0.73897859  0.16349167  0.29570569  1
  Gd3+  Gd15  1  0.48745191  0.76352255  0.73001718  1
  Gd3+  Gd16  1  0.75079973  0.73760150  0.01105316  1
  Gd3+  Gd17  1  -0.02843897  0.76741584  0.46026032  1
  Gd3+  Gd18  1  0.71601102  0.77536194  0.76103791  1
  Ta5+  Ta19  1  0.41352810  0.13469056  0.60971637  1
  Ta5+  Ta20  1  0.85195375  0.36052722  0.13469357  1
  Ta5+  Ta21  1  0.91530068  0.11194757  0.44710141  1
  Ta5+  Ta22  1  0.37477701  0.62922747  0.86651408  1
  Ta5+  Ta23  1  0.58030214  0.84981153  0.93245567  1
  Ta5+  Ta24  1  0.10979394  0.62617722  0.60671236  1
  Ta5+  Ta25  1  0.88778578  0.97153647  0.54949567  1
  Ta5+  Ta26  1  0.16994622  0.11987394  0.11470639  1
  Ta5+  Ta27  1  0.06430020  0.13722352  0.59649623  1
  Ta5+  Ta28  1  0.37425335  0.63263930  0.12602090  1
  Ta5+  Ta29  1  0.61429968  0.35990208  0.12619247  1
  Ta5+  Ta30  1  0.89269377  0.60509148  0.13190505  1
  Ta5+  Ta31  1  0.61055247  0.60458022  0.13172918  1
  Ta5+  Ta32  1  0.13668234  0.38153743  0.61964062  1
  Ta5+  Ta33  1  0.13399974  0.12112428  0.85270877  1
  Ta5+  Ta34  1  0.87860516  0.87345605  0.12426652  1
  Ta5+  Ta35  1  0.16596464  0.12073623  0.37677372  1
  Ta5+  Ta36  1  0.11244345  0.60790243  0.37354479  1
  Ta5+  Ta37  1  0.66325015  0.07712870  0.91597501  1
  Ta5+  Ta38  1  0.10831858  0.88573638  0.35483316  1
  Ta5+  Ta39  1  0.88071410  0.94885604  0.35739059  1
  Ta5+  Ta40  1  0.86369721  0.34246964  0.38336624  1
  Ta5+  Ta41  1  0.35796728  0.88544195  0.86545735  1
  Ta5+  Ta42  1  0.39548827  0.90488317  0.10446614  1
  Ta5+  Ta43  1  0.41237847  0.56614399  0.37025746  1
  Ta5+  Ta44  1  0.37517317  0.38307482  0.12675463  1
  Ta5+  Ta45  1  0.63692925  0.40926507  0.37746163  1
  Ta5+  Ta46  1  0.14689107  0.38201912  0.87037793  1
  Ta5+  Ta47  1  0.32538427  0.34757164  0.37495259  1
  Ta5+  Ta48  1  0.37067468  0.37976172  0.61718445  1
  Ta5+  Ta49  1  0.11945957  0.89527415  0.59999547  1
  Ta5+  Ta50  1  0.11293706  0.87290791  0.84933600  1
  Ta5+  Ta51  1  0.13565174  0.37681203  0.12518017  1
  Ta5+  Ta52  1  0.60931182  0.86138393  0.13115036  1
  Ta5+  Ta53  1  0.87369727  0.58795835  0.36281329  1
  Ta5+  Ta54  1  0.88600483  0.12674467  0.62637659  1
  Ta5+  Ta55  1  0.86563317  0.12108470  0.88548674  1
  Ta5+  Ta56  1  0.56255751  0.08357669  0.40098919  1
  Ta5+  Ta57  1  0.36454136  0.94076662  0.36521236  1
  Ta5+  Ta58  1  0.63696867  0.60744688  0.88888071  1
  Ta5+  Ta59  1  0.36481264  0.89442000  0.61143541  1
  Ta5+  Ta60  1  0.84826970  0.11895771  0.09979807  1
  Ta5+  Ta61  1  0.60930836  0.10644697  0.13866982  1
  Ta5+  Ta62  1  0.15674682  0.35870288  0.37335915  1
  Ta5+  Ta63  1  0.90450329  0.59935797  0.58790216  1
  Ta5+  Ta64  1  0.12670159  0.87746362  0.11579279  1
  Ta5+  Ta65  1  0.80200288  0.55712569  0.90113674  1
  Ta5+  Ta66  1  0.36702002  0.13567793  0.86836071  1
  Ta5+  Ta67  1  0.82818660  0.37439374  0.62768644  1
  Ta5+  Ta68  1  0.66532090  0.40691245  0.88717547  1
  Ta5+  Ta69  1  0.61345825  0.61497769  0.38208422  1
  Ta5+  Ta70  1  0.87283026  0.91980563  0.88169579  1
  Ta5+  Ta71  1  0.65794128  0.38107604  0.63266085  1
  Ta5+  Ta72  1  0.37611469  0.37829209  0.87388932  1
  Ta5+  Ta73  1  0.85381843  0.37364371  0.89011669  1
  Ta5+  Ta74  1  0.33379277  0.15186640  0.37768870  1
  W6+  W75  1  0.13208681  0.62161816  0.84574123  1
  W6+  W76  1  0.38200148  0.62941072  0.60414226  1
  W6+  W77  1  0.61891205  0.61737690  0.63709516  1
  W6+  W78  1  0.59899739  0.91745447  0.36756332  1
  W6+  W79  1  0.33039774  0.13506696  0.12197602  1
  W6+  W80  1  0.14442550  0.62750008  0.12784102  1
  W6+  W81  1  0.60170845  0.93059659  0.58238609  1
  W6+  W82  1  0.60602169  0.10745481  0.65947504  1
  O2-  O83  1  0.16455900  -0.00767727  0.09630778  1
  O2-  O84  1  0.11048216  0.00525598  0.36016229  1
  O2-  O85  1  0.09244669  0.01246639  0.60355091  1
  O2-  O86  1  0.12748369  -0.00209708  0.85656376  1
  O2-  O87  1  0.11838148  0.49425119  0.12452300  1
  O2-  O88  1  0.12447547  0.48698909  0.37800637  1
  O2-  O89  1  0.09273830  0.49485046  0.60331342  1
  O2-  O90  1  0.17519748  0.49615558  0.87723149  1
  O2-  O91  1  0.40206499  0.02101114  0.08494578  1
  O2-  O92  1  0.43700092  0.05044252  0.37111180  1
  O2-  O93  1  0.38893339  0.01431147  0.63319176  1
  O2-  O94  1  0.38184033  0.00988959  0.86840666  1
  O2-  O95  1  0.37828929  0.50255528  0.13138144  1
  O2-  O96  1  0.33284093  0.47647739  0.36382393  1
  O2-  O97  1  0.40816129  0.49207881  0.60506121  1
  O2-  O98  1  0.37321814  0.50383558  0.86883270  1
  O2-  O99  1  0.59107032  -0.01386139  0.12643010  1
  O2-  O100  1  0.67188557  0.03982479  0.35736769  1
  O2-  O101  1  0.65035787  -0.02411842  0.68211529  1
  O2-  O102  1  0.59361654  -0.02026784  0.91828851  1
  O2-  O103  1  0.58359449  0.48448299  0.13542989  1
  O2-  O104  1  0.69866867  0.51441500  0.36908675  1
  O2-  O105  1  0.66283687  0.50173684  0.64905540  1
  O2-  O106  1  0.57715018  0.49922170  0.88813949  1
  O2-  O107  1  0.85620035  -0.01137348  0.09678063  1
  O2-  O108  1  0.84034232  0.06148663  0.33483824  1
  O2-  O109  1  0.89901276  0.00214738  0.67027724  1
  O2-  O110  1  0.94008527  0.02356712  0.86172401  1
  O2-  O111  1  0.90184225  0.48421743  0.14103105  1
  O2-  O112  1  0.88175033  0.46674142  0.35126724  1
  O2-  O113  1  0.87255035  0.49806247  0.64447734  1
  O2-  O114  1  0.91375439  0.48115094  0.88257138  1
  O2-  O115  1  0.10099174  0.24283759  0.11909267  1
  O2-  O116  1  0.11539171  0.23784409  0.36833132  1
  O2-  O117  1  0.07987862  0.27130719  0.63066810  1
  O2-  O118  1  0.09276791  0.25028708  0.86462525  1
  O2-  O119  1  0.17828828  0.76303585  0.12122967  1
  O2-  O120  1  0.10480700  0.74808760  0.39059579  1
  O2-  O121  1  0.11568574  0.75387947  0.59441542  1
  O2-  O122  1  0.07459831  0.74575330  0.83349177  1
  O2-  O123  1  0.48868115  0.32508835  0.13100376  1
  O2-  O124  1  0.41760100  0.25357363  0.39116159  1
  O2-  O125  1  0.43782718  0.26837559  0.61533516  1
  O2-  O126  1  0.42849421  0.25199073  0.87443374  1
  O2-  O127  1  0.36276543  0.76079468  0.13087854  1
  O2-  O128  1  0.30447818  0.82075318  0.35623928  1
  O2-  O129  1  0.34112609  0.76482997  0.59132768  1
  O2-  O130  1  0.40546662  0.76536290  0.87854106  1
  O2-  O131  1  0.63255474  0.23790284  0.16597130  1
  O2-  O132  1  0.62221567  0.20703608  0.37587244  1
  O2-  O133  1  0.62629998  0.24894411  0.63864573  1
  O2-  O134  1  0.74362255  0.30006828  0.88720587  1
  O2-  O135  1  0.65745155  0.73536449  0.12833428  1
  O2-  O136  1  0.67680219  0.72160635  0.38269578  1
  O2-  O137  1  0.67598992  0.74152123  0.62890767  1
  O2-  O138  1  0.60318016  0.72652285  0.94215732  1
  O2-  O139  1  0.81759991  0.24168559  0.11301526  1
  O2-  O140  1  0.83021291  0.21718644  0.40582451  1
  O2-  O141  1  0.81075651  0.24229642  0.61636050  1
  O2-  O142  1  0.91084283  0.24623705  0.88633047  1
  O2-  O143  1  0.84492192  0.74358933  0.13304508  1
  O2-  O144  1  0.85545780  0.71751912  0.37816306  1
  O2-  O145  1  0.86963871  0.72280311  0.59647098  1
  O2-  O146  1  0.98960974  0.87035048  0.89107806  1
  O2-  O147  1  0.12713502  0.13292296  -0.01827128  1
  O2-  O148  1  0.14375607  0.12515040  0.23664991  1
  O2-  O149  1  0.14487370  0.13551412  0.49986873  1
  O2-  O150  1  0.07501578  0.13403746  0.74043137  1
  O2-  O151  1  0.12671087  0.65618799  -0.01371141  1
  O2-  O152  1  0.16509890  0.62600531  0.26804023  1
  O2-  O153  1  0.17578101  0.62345178  0.48979685  1
  O2-  O154  1  0.17186405  0.61639172  0.70955418  1
  O2-  O155  1  0.33634314  0.14892594  -0.01533013  1
  O2-  O156  1  0.35664575  0.16074267  0.25019883  1
  O2-  O157  1  0.34850262  0.14197161  0.50933165  1
  O2-  O158  1  0.41015971  0.15063391  0.74229279  1
  O2-  O159  1  0.36857933  0.63466450  0.00075521  1
  O2-  O160  1  0.36957837  0.62051053  0.26279721  1
  O2-  O161  1  0.36351804  0.62989495  0.46197123  1
  O2-  O162  1  0.39868400  0.64108343  0.74509487  1
  O2-  O163  1  0.60057186  0.13187611  0.01306623  1
  O2-  O164  1  0.55113851  0.10939107  0.25054281  1
  O2-  O165  1  0.60202045  0.11868523  0.51851082  1
  O2-  O166  1  0.63296508  0.13130051  0.81018551  1
  O2-  O167  1  0.67436723  0.59676455  0.02320034  1
  O2-  O168  1  0.64914670  0.61607925  0.24766263  1
  O2-  O169  1  0.62252913  0.60657303  0.50191594  1
  O2-  O170  1  0.61191767  0.65808356  0.77131178  1
  O2-  O171  1  0.93221884  0.12334716  0.00439464  1
  O2-  O172  1  0.93228594  0.13252838  0.18549329  1
  O2-  O173  1  0.96713102  0.19670368  0.53288780  1
  O2-  O174  1  0.85908267  0.15039714  0.76078061  1
  O2-  O175  1  0.85050998  0.61137572  0.01621780  1
  O2-  O176  1  0.82726301  0.61179986  0.24399541  1
  O2-  O177  1  0.83219600  0.58632871  0.48317224  1
  O2-  O178  1  0.76080174  0.67753360  0.86696115  1
  O2-  O179  1  0.10647956  0.36809538  -0.00878834  1
  O2-  O180  1  0.10734959  0.35832490  0.24562133  1
  O2-  O181  1  0.15627414  0.35948749  0.50151151  1
  O2-  O182  1  0.08910437  0.38604960  0.75844563  1
  O2-  O183  1  0.12812792  0.84476188  -0.01773050  1
  O2-  O184  1  0.15134128  0.87801964  0.24059023  1
  O2-  O185  1  0.15789029  0.88075927  0.47600860  1
  O2-  O186  1  0.08019300  0.87751790  0.72641302  1
  O2-  O187  1  0.38786600  0.37505888  -0.00362959  1
  O2-  O188  1  0.36767176  0.34914338  0.24771482  1
  O2-  O189  1  0.33322960  0.36073865  0.50329322  1
  O2-  O190  1  0.41580642  0.37434660  0.75075121  1
  O2-  O191  1  0.32607929  0.87972136  -0.00316885  1
  O2-  O192  1  0.36982308  0.91327346  0.22671102  1
  O2-  O193  1  0.35161125  0.91828187  0.48772751  1
  O2-  O194  1  0.38117082  0.87111965  0.74357585  1
  O2-  O195  1  0.61864606  0.35703349  0.00518017  1
  O2-  O196  1  0.58160570  0.36865635  0.27475418  1
  O2-  O197  1  0.63458191  0.37177707  0.49745078  1
  O2-  O198  1  0.62809509  0.36150026  0.76780517  1
  O2-  O199  1  0.67803174  0.86899941  0.01831529  1
  O2-  O200  1  0.64969283  0.86030016  0.24853889  1
  O2-  O201  1  0.66952298  0.88291245  0.48249179  1
  O2-  O202  1  0.59108747  0.83955442  0.80689093  1
  O2-  O203  1  0.90701791  0.35291575  0.01991779  1
  O2-  O204  1  0.90141621  0.32510040  0.24656243  1
  O2-  O205  1  0.86173255  0.36835946  0.50305844  1
  O2-  O206  1  0.86034680  0.34552107  0.75631105  1
  O2-  O207  1  0.85664544  0.84787303  -0.01211568  1
  O2-  O208  1  0.84125183  0.88056148  0.24606201  1
  O2-  O209  1  0.85052568  0.86902583  0.45889995  1
  O2-  O210  1  0.84906169  0.84526138  0.78431712  1
  O2-  O211  1  0.00234790  -0.14961192  0.10573125  1
  O2-  O212  1  -0.01201139  -0.13655202  0.34061094  1
  O2-  O213  1  -0.03037420  -0.00975142  0.44549017  1
  O2-  O214  1  -0.01337343  -0.13422737  0.57602928  1
  O2-  O215  1  0.00101571  0.65472874  0.11761043  1
  O2-  O216  1  -0.00860672  0.61122289  0.33599539  1
  O2-  O217  1  0.00539201  0.62306945  0.50645867  1
  O2-  O218  1  -0.00250128  0.64062261  0.67398948  1
  O2-  O219  1  0.25035988  0.14314849  -0.17486609  1
  O2-  O220  1  0.27373352  0.02900794  0.36016811  1
  O2-  O221  1  0.23696072  -0.09971437  0.63505526  1
  O2-  O222  1  0.23778740  -0.14487576  0.84734364  1
  O2-  O223  1  0.26085742  0.33672181  -0.14111316  1
  O2-  O224  1  0.25388933  0.35664971  0.11151283  1
  O2-  O225  1  0.25247167  0.38451803  0.66511822  1
  O2-  O226  1  0.26022634  0.66537268  0.86583442  1
  O2-  O227  1  0.50144790  -0.15005537  0.04642838  1
  O2-  O228  1  0.47509297  -0.13068040  0.35594836  1
  O2-  O229  1  0.53766503  -0.02348938  0.47544434  1
  O2-  O230  1  0.49018050  -0.13412340  0.61343308  1
  O2-  O231  1  0.49832113  0.64960642  0.13434519  1
  O2-  O232  1  0.50336930  0.66913032  0.35408154  1
  O2-  O233  1  0.52544396  0.50347641  0.38113025  1
  O2-  O234  1  0.50620769  0.67856538  0.61365205  1
  O2-  O235  1  0.76947927  0.13023960  -0.02345909  1
  O2-  O236  1  0.73137346  0.09240312  0.16200945  1
  O2-  O237  1  0.80222348  0.08650464  0.52216029  1
  O2-  O238  1  0.77488275  0.00706024  0.87392974  1
  O2-  O239  1  0.76820046  0.44403945  -0.02684486  1
  O2-  O240  1  0.73619344  0.39377695  0.15362426  1
  O2-  O241  1  0.74040749  0.34441627  0.34810174  1
  O2-  O242  1  0.75734393  0.46665475  0.81812634  1
