# generated using pymatgen
data_Gd19Ta56(WO20)8
_symmetry_space_group_name_H-M   'P 1'
_cell_length_a   15.50271405
_cell_length_b   15.44195281
_cell_length_c   15.36885098
_cell_angle_alpha   89.98237135
_cell_angle_beta   90.12648131
_cell_angle_gamma   90.24108297
_symmetry_Int_Tables_number   1
_chemical_formula_structural   Gd19Ta56(WO20)8
_chemical_formula_sum   'Gd19 Ta56 W8 O160'
_cell_volume   3679.14102349
_cell_formula_units_Z   1
loop_
 _symmetry_equiv_pos_site_id
 _symmetry_equiv_pos_as_xyz
  1  'x, y, z'
loop_
 _atom_type_symbol
 _atom_type_oxidation_number
  Gd3+  3.0
  Ta5+  5.0
  W6+  6.0
  O2-  -2.0
loop_
 _atom_site_type_symbol
 _atom_site_label
 _atom_site_symmetry_multiplicity
 _atom_site_fract_x
 _atom_site_fract_y
 _atom_site_fract_z
 _atom_site_occupancy
  Gd3+  Gd0  1  0.46528753  0.73725479  -0.01420710  1
  Gd3+  Gd1  1  0.76339045  0.25724026  0.00239078  1
  Gd3+  Gd2  1  0.49447596  0.75318857  0.24471253  1
  Gd3+  Gd3  1  0.48920213  0.24814971  0.74668650  1
  Gd3+  Gd4  1  0.00756680  0.26397842  0.51973442  1
  Gd3+  Gd5  1  0.80901537  0.74606877  -0.00656199  1
  Gd3+  Gd6  1  -0.01034022  0.74596404  0.50901984  1
  Gd3+  Gd7  1  0.75043292  0.73870680  0.52714762  1
  Gd3+  Gd8  1  0.76955735  0.23846856  0.75475702  1
  Gd3+  Gd9  1  0.01045997  0.74461590  0.75040695  1
  Gd3+  Gd10  1  0.25797943  0.24355473  0.23974736  1
  Gd3+  Gd11  1  -0.01708661  0.73031090  0.24843900  1
  Gd3+  Gd12  1  0.49211999  0.26020571  0.50314358  1
  Gd3+  Gd13  1  0.24226644  0.74566487  0.72127717  1
  Gd3+  Gd14  1  0.25281104  0.24725891  -0.00954621  1
  Gd3+  Gd15  1  -0.02109698  0.25225820  0.25164199  1
  Gd3+  Gd16  1  0.73499055  0.75034946  0.76909707  1
  Gd3+  Gd17  1  0.72841659  0.25761265  0.47348350  1
  Gd3+  Gd18  1  0.48378562  0.74195903  0.74271721  1
  Ta5+  Ta19  1  0.87363504  0.37747609  0.63591683  1
  Ta5+  Ta20  1  0.86284181  0.12131597  0.13846593  1
  Ta5+  Ta21  1  0.16102766  0.87945174  0.86096475  1
  Ta5+  Ta22  1  0.40755619  0.36742809  0.12274669  1
  Ta5+  Ta23  1  0.61965280  0.37618603  0.88147344  1
  Ta5+  Ta24  1  0.12092893  0.36476307  0.85395497  1
  Ta5+  Ta25  1  0.60016648  0.88462348  0.88822154  1
  Ta5+  Ta26  1  0.36608200  0.62231312  0.37061622  1
  Ta5+  Ta27  1  0.38019081  0.11801536  0.87344767  1
  Ta5+  Ta28  1  0.35691249  0.87598348  0.37052822  1
  Ta5+  Ta29  1  0.11257155  0.87816516  0.36266999  1
  Ta5+  Ta30  1  0.62583453  0.88674252  0.12133565  1
  Ta5+  Ta31  1  0.12060453  0.62186711  0.10990726  1
  Ta5+  Ta32  1  0.61656050  0.61545317  0.63636539  1
  Ta5+  Ta33  1  0.13030664  0.60384644  0.60895423  1
  Ta5+  Ta34  1  0.86845053  0.91674374  0.62051301  1
  Ta5+  Ta35  1  0.34963096  0.87302265  0.12184045  1
  Ta5+  Ta36  1  0.87017455  0.38462303  0.13082681  1
  Ta5+  Ta37  1  0.86332902  0.87528307  0.14021010  1
  Ta5+  Ta38  1  0.86399805  0.87693321  0.37672759  1
  Ta5+  Ta39  1  0.64133338  0.13816082  0.13638969  1
  Ta5+  Ta40  1  0.58153598  0.12654493  0.37099244  1
  Ta5+  Ta41  1  0.88020972  0.10778905  0.61405890  1
  Ta5+  Ta42  1  0.61980130  0.62916075  0.11706769  1
  Ta5+  Ta43  1  0.59937910  0.39230933  0.37311702  1
  Ta5+  Ta44  1  0.92546020  0.90756091  0.89296444  1
  Ta5+  Ta45  1  0.89522808  0.11211922  0.88257351  1
  Ta5+  Ta46  1  0.10378345  0.11528078  0.87279155  1
  Ta5+  Ta47  1  0.37875950  0.37385463  0.37051590  1
  Ta5+  Ta48  1  0.37795603  0.87910677  0.61856322  1
  Ta5+  Ta49  1  0.35797408  0.61153648  0.12591369  1
  Ta5+  Ta50  1  0.89055768  0.12429828  0.39981411  1
  Ta5+  Ta51  1  0.62819238  0.63472857  0.37615982  1
  Ta5+  Ta52  1  0.10950811  0.86644327  0.10655247  1
  Ta5+  Ta53  1  0.15152315  0.12380922  0.37165070  1
  Ta5+  Ta54  1  0.36633509  0.61399233  0.61149917  1
  Ta5+  Ta55  1  0.33559585  0.87473233  0.87002741  1
  Ta5+  Ta56  1  0.11537525  0.37858932  0.10771112  1
  Ta5+  Ta57  1  0.87573299  0.40357214  0.38736048  1
  Ta5+  Ta58  1  0.17514639  0.36263618  0.61882009  1
  Ta5+  Ta59  1  0.36933762  0.12147901  0.61733892  1
  Ta5+  Ta60  1  0.39716036  0.11855281  0.11595707  1
  Ta5+  Ta61  1  0.15142515  0.61280498  0.86313796  1
  Ta5+  Ta62  1  0.61971624  0.13335170  0.88668699  1
  Ta5+  Ta63  1  0.92454449  0.36641537  0.88360307  1
  Ta5+  Ta64  1  0.11162173  0.11418282  0.11789293  1
  Ta5+  Ta65  1  0.41058256  0.12200433  0.36473973  1
  Ta5+  Ta66  1  0.57028419  0.56817023  0.87444353  1
  Ta5+  Ta67  1  0.39146801  0.38071686  0.87057052  1
  Ta5+  Ta68  1  0.34198178  0.37005348  0.62147774  1
  Ta5+  Ta69  1  0.12680062  0.61904178  0.36854885  1
  Ta5+  Ta70  1  0.86114459  0.56792975  0.63171768  1
  Ta5+  Ta71  1  0.62387115  0.87754118  0.37880720  1
  Ta5+  Ta72  1  0.14068324  0.37310941  0.36499026  1
  Ta5+  Ta73  1  0.62542856  0.88084856  0.63210697  1
  Ta5+  Ta74  1  0.32228316  0.61287010  0.86604976  1
  W6+  W75  1  0.62794878  0.12948392  0.62456520  1
  W6+  W76  1  0.90508510  0.61861188  0.86964156  1
  W6+  W77  1  0.12140151  0.12335765  0.61984625  1
  W6+  W78  1  0.86527367  0.60009776  0.38446375  1
  W6+  W79  1  0.85425894  0.59862024  0.13323200  1
  W6+  W80  1  0.63172548  0.37238573  0.62803551  1
  W6+  W81  1  0.65055455  0.39107916  0.13660881  1
  W6+  W82  1  0.12462791  0.88042133  0.60390735  1
  O2-  O83  1  0.09360351  -0.01008264  0.11117990  1
  O2-  O84  1  0.11514087  0.00479890  0.36419136  1
  O2-  O85  1  0.13476296  0.00204552  0.58738309  1
  O2-  O86  1  0.16085278  0.00289660  0.87822026  1
  O2-  O87  1  0.09142374  0.50187772  0.10607132  1
  O2-  O88  1  0.14437103  0.49731674  0.37145453  1
  O2-  O89  1  0.14980116  0.48589451  0.60296260  1
  O2-  O90  1  0.13387530  0.48630759  0.86860406  1
  O2-  O91  1  0.37565812  -0.00584071  0.11399312  1
  O2-  O92  1  0.39119462  -0.00857511  0.36481496  1
  O2-  O93  1  0.39229648  0.00015121  0.61464886  1
  O2-  O94  1  0.37603978  -0.00272276  0.88128432  1
  O2-  O95  1  0.38743199  0.49353430  0.12329688  1
  O2-  O96  1  0.36335425  0.50109781  0.36572129  1
  O2-  O97  1  0.35075575  0.49439866  0.60803369  1
  O2-  O98  1  0.33316860  0.48597622  0.87464365  1
  O2-  O99  1  0.64142612  0.00371780  0.12535599  1
  O2-  O100  1  0.59276073  -0.00719003  0.38449734  1
  O2-  O101  1  0.60882368  -0.00207814  0.63236315  1
  O2-  O102  1  0.61908146  0.00467976  0.88652408  1
  O2-  O103  1  0.59022452  0.51475903  0.12440684  1
  O2-  O104  1  0.57928371  0.52342702  0.37947746  1
  O2-  O105  1  0.60650509  0.49992911  0.65764415  1
  O2-  O106  1  0.66882210  0.49042189  0.86257891  1
  O2-  O107  1  0.84259160  -0.00062904  0.14184719  1
  O2-  O108  1  0.88467756  -0.00392001  0.39222638  1
  O2-  O109  1  0.94960825  0.00303955  0.65242426  1
  O2-  O110  1  0.83750193  -0.01358210  0.86480172  1
  O2-  O111  1  0.78292285  0.46802102  0.13725087  1
  O2-  O112  1  0.95787437  0.48900919  0.40253361  1
  O2-  O113  1  0.78304946  0.47013073  0.62568912  1
  O2-  O114  1  0.91126034  0.48313169  0.86915203  1
  O2-  O115  1  0.15451469  0.24546630  0.12083504  1
  O2-  O116  1  0.11115163  0.24163696  0.32606219  1
  O2-  O117  1  0.10338084  0.25487871  0.63224201  1
  O2-  O118  1  0.15844099  0.23874831  0.87703881  1
  O2-  O119  1  0.07332701  0.74092070  0.12153114  1
  O2-  O120  1  0.09082731  0.74655798  0.37035314  1
  O2-  O121  1  0.10028757  0.74145152  0.62319213  1
  O2-  O122  1  0.14099259  0.74180518  0.83897852  1
  O2-  O123  1  0.34705103  0.24532572  0.11715293  1
  O2-  O124  1  0.41159170  0.25115377  0.36344253  1
  O2-  O125  1  0.40101583  0.24877009  0.62538433  1
  O2-  O126  1  0.35399413  0.25347010  0.87105099  1
  O2-  O127  1  0.38956104  0.74366213  0.12617605  1
  O2-  O128  1  0.39249365  0.75360681  0.35533426  1
  O2-  O129  1  0.37021004  0.74851612  0.63705511  1
  O2-  O130  1  0.33187400  0.74517876  0.85678618  1
  O2-  O131  1  0.67939263  0.25403314  0.13665864  1
  O2-  O132  1  0.59166632  0.26320139  0.37387151  1
  O2-  O133  1  0.69524014  0.24948175  0.61950844  1
  O2-  O134  1  0.67828420  0.25522047  0.87629309  1
  O2-  O135  1  0.56514288  0.74815134  0.10876118  1
  O2-  O136  1  0.57288476  0.75409914  0.37770321  1
  O2-  O137  1  0.61519161  0.74691631  0.65701141  1
  O2-  O138  1  0.68848973  0.80115128  0.91256375  1
  O2-  O139  1  0.85611355  0.25084296  0.13421091  1
  O2-  O140  1  0.92326484  0.25618295  0.39135164  1
  O2-  O141  1  0.89320528  0.24405998  0.62926160  1
  O2-  O142  1  0.85438705  0.24776990  0.88055051  1
  O2-  O143  1  0.88113702  0.74565998  0.13613562  1
  O2-  O144  1  0.90965270  0.75029770  0.38016128  1
  O2-  O145  1  0.93637057  0.81159788  0.64361919  1
  O2-  O146  1  0.87025053  0.78769757  0.85499844  1
  O2-  O147  1  0.15467659  0.12366201  0.00236125  1
  O2-  O148  1  0.17292021  0.11042239  0.22532066  1
  O2-  O149  1  0.12441126  0.15936328  0.48374991  1
  O2-  O150  1  0.10034881  0.11451221  0.75386872  1
  O2-  O151  1  0.14216866  0.63391022  -0.00747800  1
  O2-  O152  1  0.09295408  0.62265153  0.24847694  1
  O2-  O153  1  0.07690565  0.62269907  0.48788715  1
  O2-  O154  1  0.11933912  0.60926421  0.73239828  1
  O2-  O155  1  0.34352416  0.12651579  0.00070400  1
  O2-  O156  1  0.36964022  0.12935161  0.23538600  1
  O2-  O157  1  0.40407610  0.13343045  0.49503368  1
  O2-  O158  1  0.39592224  0.12441589  0.74810019  1
  O2-  O159  1  0.36160322  0.62838960  0.00190543  1
  O2-  O160  1  0.41254305  0.62462795  0.24622692  1
  O2-  O161  1  0.40359981  0.63136296  0.48642648  1
  O2-  O162  1  0.32874767  0.61443957  0.73583878  1
  O2-  O163  1  0.66428983  0.13666965  0.00434601  1
  O2-  O164  1  0.63085368  0.12483554  0.25792272  1
  O2-  O165  1  0.62370383  0.14605430  0.49042200  1
  O2-  O166  1  0.61520436  0.14829059  0.76080590  1
  O2-  O167  1  0.57991501  0.62636803  -0.01501644  1
  O2-  O168  1  0.61783168  0.65030725  0.24477928  1
  O2-  O169  1  0.62999066  0.63564079  0.51334017  1
  O2-  O170  1  0.61872213  0.64413442  0.78335281  1
  O2-  O171  1  0.85447650  0.12083525  0.00283007  1
  O2-  O172  1  0.88203204  0.13336643  0.27213059  1
  O2-  O173  1  0.81027720  0.14159403  0.49791613  1
  O2-  O174  1  0.86788348  0.12545434  0.75698135  1
  O2-  O175  1  0.88254424  0.62372112  0.00538402  1
  O2-  O176  1  0.90182905  0.60384392  0.25303153  1
  O2-  O177  1  0.87038545  0.64216588  0.52819875  1
  O2-  O178  1  0.91362169  0.63052399  0.72454280  1
  O2-  O179  1  0.18744875  0.37652547  0.00681108  1
  O2-  O180  1  0.15870218  0.38117280  0.22530825  1
  O2-  O181  1  0.12434034  0.35422258  0.48742243  1
  O2-  O182  1  0.18746782  0.36563510  0.74744972  1
  O2-  O183  1  0.12274662  0.85770003  -0.01279062  1
  O2-  O184  1  0.08178268  0.86475828  0.24363847  1
  O2-  O185  1  0.05627168  0.87280314  0.47526613  1
  O2-  O186  1  0.16926558  0.87502084  0.73168476  1
  O2-  O187  1  0.38186563  0.36194127  0.00078768  1
  O2-  O188  1  0.35410381  0.36276860  0.23687220  1
  O2-  O189  1  0.37989967  0.36261645  0.49605093  1
  O2-  O190  1  0.39678085  0.37202075  0.74422406  1
  O2-  O191  1  0.36773536  0.85292125  0.00025947  1
  O2-  O192  1  0.39975883  0.87050649  0.23822844  1
  O2-  O193  1  0.36458299  0.86402984  0.49242928  1
  O2-  O194  1  0.35224434  0.87728973  0.74272846  1
  O2-  O195  1  0.65539856  0.36877938  0.00049578  1
  O2-  O196  1  0.65546937  0.39705557  0.26915941  1
  O2-  O197  1  0.64817082  0.38625206  0.48977644  1
  O2-  O198  1  0.59875160  0.34574315  0.75957766  1
  O2-  O199  1  0.55876307  0.88379102  0.01505301  1
  O2-  O200  1  0.59517486  0.86755672  0.24251849  1
  O2-  O201  1  0.64556130  0.85685288  0.50670373  1
  O2-  O202  1  0.63122539  0.86882969  0.76634997  1
  O2-  O203  1  0.86268008  0.37145541  0.00329882  1
  O2-  O204  1  0.88687737  0.37214289  0.26238111  1
  O2-  O205  1  0.85013594  0.35504521  0.50578411  1
  O2-  O206  1  0.84627197  0.36305973  0.75768796  1
  O2-  O207  1  0.90161187  0.87639071  0.01145093  1
  O2-  O208  1  0.90838298  0.87413326  0.25495389  1
  O2-  O209  1  0.84649485  0.85678062  0.50364670  1
  O2-  O210  1  1.02334560  0.87046724  0.82884375  1
  O2-  O211  1  -0.00046334  0.17907975  -0.09911930  1
  O2-  O212  1  -0.00529434  0.14280207  0.13254572  1
  O2-  O213  1  -0.03652157  0.11981311  0.51695479  1
  O2-  O214  1  -0.00888141  0.02459726  0.90257372  1
  O2-  O215  1  0.02730127  0.36020049  -0.04700156  1
  O2-  O216  1  -0.00083710  0.34575648  0.13055922  1
  O2-  O217  1  -0.05011194  0.47723711  0.62516245  1
  O2-  O218  1  0.01634539  0.34615563  0.79271043  1
  O2-  O219  1  0.23203360  -0.13955392  0.14097264  1
  O2-  O220  1  0.23605324  -0.13065111  0.35592461  1
  O2-  O221  1  0.26954497  0.13614449  0.37050433  1
  O2-  O222  1  0.25394190  0.13454160  0.62055173  1
  O2-  O223  1  0.24054052  0.61897043  0.15100417  1
  O2-  O224  1  0.24641908  0.64855177  0.36742723  1
  O2-  O225  1  0.25614307  0.33323088  0.36990218  1
  O2-  O226  1  0.24437442  0.64440397  0.57881126  1
  O2-  O227  1  0.49976044  0.14658442  -0.09661900  1
  O2-  O228  1  0.51419629  0.13312757  0.10944006  1
  O2-  O229  1  0.50037079  -0.14137532  0.63490680  1
  O2-  O230  1  0.48686641  -0.16768763  0.86640665  1
  O2-  O231  1  0.50689186  0.45480543  -0.11223730  1
  O2-  O232  1  0.52041788  0.34555997  0.13687708  1
  O2-  O233  1  0.49007932  0.62729931  0.64715976  1
  O2-  O234  1  0.46397046  0.63876355  0.85710227  1
  O2-  O235  1  0.73896048  -0.15373081  0.09770714  1
  O2-  O236  1  0.74311699  -0.12961906  0.35076584  1
  O2-  O237  1  0.78997992  0.01780036  0.61674917  1
  O2-  O238  1  0.75472652  -0.15762501  0.65047115  1
  O2-  O239  1  0.73124427  0.65049884  0.07999341  1
  O2-  O240  1  0.74366255  0.67404266  0.38881642  1
  O2-  O241  1  0.78762877  0.48414861  0.38617253  1
  O2-  O242  1  0.74746581  0.64517758  0.65233797  1
