# generated using pymatgen
data_Gd19Ta56(WO20)8
_symmetry_space_group_name_H-M   'P 1'
_cell_length_a   15.54538297
_cell_length_b   15.56351077
_cell_length_c   15.30613898
_cell_angle_alpha   89.92046128
_cell_angle_beta   90.06931413
_cell_angle_gamma   90.01259206
_symmetry_Int_Tables_number   1
_chemical_formula_structural   Gd19Ta56(WO20)8
_chemical_formula_sum   'Gd19 Ta56 W8 O160'
_cell_volume   3703.17215066
_cell_formula_units_Z   1
loop_
 _symmetry_equiv_pos_site_id
 _symmetry_equiv_pos_as_xyz
  1  'x, y, z'
loop_
 _atom_type_symbol
 _atom_type_oxidation_number
  Gd3+  3.0
  Ta5+  5.0
  W6+  6.0
  O2-  -2.0
loop_
 _atom_site_type_symbol
 _atom_site_label
 _atom_site_symmetry_multiplicity
 _atom_site_fract_x
 _atom_site_fract_y
 _atom_site_fract_z
 _atom_site_occupancy
  Gd3+  Gd0  1  0.74141298  0.25682751  0.47195859  1
  Gd3+  Gd1  1  0.23422371  0.22091155  0.01780295  1
  Gd3+  Gd2  1  0.23829142  0.75391339  0.00006741  1
  Gd3+  Gd3  1  0.50682713  0.75072064  0.73787042  1
  Gd3+  Gd4  1  0.45710663  0.26079395  0.23041399  1
  Gd3+  Gd5  1  0.74415827  0.24542098  0.24043885  1
  Gd3+  Gd6  1  0.75030432  0.74559224  0.76035305  1
  Gd3+  Gd7  1  -0.02644910  0.75159398  0.50039640  1
  Gd3+  Gd8  1  0.02538569  0.26454015  0.71680681  1
  Gd3+  Gd9  1  0.00427552  0.76143651  0.21644526  1
  Gd3+  Gd10  1  0.51949886  0.76570383  0.26260709  1
  Gd3+  Gd11  1  0.49585155  0.74174465  0.50195462  1
  Gd3+  Gd12  1  0.72633557  0.74836808  0.49419229  1
  Gd3+  Gd13  1  0.00906732  0.74981618  0.76075323  1
  Gd3+  Gd14  1  0.51883691  0.73481680  0.01037035  1
  Gd3+  Gd15  1  0.78590189  0.74664812  -0.01798817  1
  Gd3+  Gd16  1  0.23554953  0.23924504  0.26975497  1
  Gd3+  Gd17  1  0.49477501  0.26068712  0.00918202  1
  Gd3+  Gd18  1  -0.00260018  0.25147589  -0.01467319  1
  Ta5+  Ta19  1  0.64945682  0.60134728  0.64711955  1
  Ta5+  Ta20  1  0.36279901  0.37282280  0.88227389  1
  Ta5+  Ta21  1  0.34882101  0.87260083  0.37730613  1
  Ta5+  Ta22  1  0.89965832  0.89538851  0.86207586  1
  Ta5+  Ta23  1  0.84140247  0.13480787  0.86994778  1
  Ta5+  Ta24  1  0.63166847  0.35614127  0.63025239  1
  Ta5+  Ta25  1  0.85130619  0.60356804  0.60774425  1
  Ta5+  Ta26  1  0.89914172  0.12452668  0.12579693  1
  Ta5+  Ta27  1  0.09962808  0.12515745  0.38783853  1
  Ta5+  Ta28  1  0.64305373  0.59494047  0.89289859  1
  Ta5+  Ta29  1  0.33455551  0.04485249  0.13785825  1
  Ta5+  Ta30  1  0.14720257  0.88325124  0.86502463  1
  Ta5+  Ta31  1  0.35068032  0.61923617  0.37807893  1
  Ta5+  Ta32  1  0.09206614  0.61493135  0.62182626  1
  Ta5+  Ta33  1  0.31803122  0.36935545  0.63272233  1
  Ta5+  Ta34  1  0.17923804  0.12870835  0.61621224  1
  Ta5+  Ta35  1  0.12178417  0.12560132  0.85949657  1
  Ta5+  Ta36  1  0.13621180  0.37624533  0.87023546  1
  Ta5+  Ta37  1  0.85638934  0.88134241  0.36700486  1
  Ta5+  Ta38  1  0.35799311  0.11730873  0.87827318  1
  Ta5+  Ta39  1  0.14363671  0.62230169  0.86913199  1
  Ta5+  Ta40  1  0.65205353  0.14340287  0.63761593  1
  Ta5+  Ta41  1  0.39750332  0.10572535  0.38019063  1
  Ta5+  Ta42  1  0.16455486  0.38071549  0.12697421  1
  Ta5+  Ta43  1  0.38117314  0.87992492  0.87366653  1
  Ta5+  Ta44  1  0.69445863  0.89515857  0.32785870  1
  Ta5+  Ta45  1  0.86452199  0.35455567  0.86520336  1
  Ta5+  Ta46  1  0.11019694  0.87820498  0.37593604  1
  Ta5+  Ta47  1  0.67356761  0.14478134  0.88889740  1
  Ta5+  Ta48  1  0.86415774  0.88149745  0.12159911  1
  Ta5+  Ta49  1  0.40161626  0.60173906  0.62625233  1
  Ta5+  Ta50  1  0.37817412  0.87624922  0.62056167  1
  Ta5+  Ta51  1  0.93470944  0.54825067  0.94993179  1
  Ta5+  Ta52  1  0.37945529  0.62409826  0.13631208  1
  Ta5+  Ta53  1  0.62899159  0.12492174  0.12810475  1
  Ta5+  Ta54  1  0.39093221  0.61866665  0.88024900  1
  Ta5+  Ta55  1  0.33327443  0.38737895  0.11832806  1
  Ta5+  Ta56  1  0.85094404  0.13142476  0.61794533  1
  Ta5+  Ta57  1  0.61480427  0.90860883  0.88920378  1
  Ta5+  Ta58  1  0.60710582  0.38399660  0.36380161  1
  Ta5+  Ta59  1  0.36625974  0.37356818  0.38474967  1
  Ta5+  Ta60  1  0.60318320  0.10978941  0.38111273  1
  Ta5+  Ta61  1  0.66780931  0.62874220  0.14639553  1
  Ta5+  Ta62  1  0.66683147  0.62355800  0.34274029  1
  Ta5+  Ta63  1  0.14028828  0.87824566  0.61593293  1
  Ta5+  Ta64  1  0.63618492  0.89842551  0.64267334  1
  Ta5+  Ta65  1  0.09117128  0.37881987  0.36712196  1
  Ta5+  Ta66  1  0.13896516  0.62441368  0.12495368  1
  Ta5+  Ta67  1  0.64363361  0.88751437  0.12562321  1
  Ta5+  Ta68  1  0.83622866  0.61692005  0.15406129  1
  Ta5+  Ta69  1  0.61501041  0.39297161  0.14516687  1
  Ta5+  Ta70  1  0.10924675  0.62557735  0.37159116  1
  Ta5+  Ta71  1  0.84503788  0.88801968  0.62111100  1
  Ta5+  Ta72  1  0.06289733  0.14044507  0.17414505  1
  Ta5+  Ta73  1  0.84026170  0.62284271  0.35658024  1
  Ta5+  Ta74  1  0.89215667  0.12517860  0.36793455  1
  W6+  W75  1  0.36446535  0.85977691  0.13131642  1
  W6+  W76  1  0.63683197  0.34919815  0.88437111  1
  W6+  W77  1  0.93223093  0.39096183  0.13858418  1
  W6+  W78  1  0.88483005  0.37660350  0.34901432  1
  W6+  W79  1  0.88310940  0.35915998  0.59973643  1
  W6+  W80  1  0.16013682  0.38149168  0.60515423  1
  W6+  W81  1  0.34018262  0.12517664  0.62625732  1
  W6+  W82  1  0.11863139  0.90161488  0.11890368  1
  O2-  O83  1  0.08508880  0.03237879  0.13095772  1
  O2-  O84  1  0.10141172  -0.00402756  0.38657958  1
  O2-  O85  1  0.15087547  -0.00253727  0.61823467  1
  O2-  O86  1  0.14441228  0.00492252  0.85594760  1
  O2-  O87  1  0.14501344  0.50310897  0.13178970  1
  O2-  O88  1  0.09814509  0.50947306  0.36061263  1
  O2-  O89  1  0.15781273  0.51862738  0.61082730  1
  O2-  O90  1  0.14514379  0.49905318  0.87374604  1
  O2-  O91  1  0.25337237  -0.04488079  0.14469203  1
  O2-  O92  1  0.33865734  -0.00626462  0.36782065  1
  O2-  O93  1  0.35720271  -0.00925001  0.62116567  1
  O2-  O94  1  0.33962276  -0.00591730  0.88784065  1
  O2-  O95  1  0.37976780  0.50589727  0.12773642  1
  O2-  O96  1  0.34562558  0.49842544  0.37205244  1
  O2-  O97  1  0.37539028  0.48771456  0.62882524  1
  O2-  O98  1  0.37265102  0.50167974  0.88457351  1
  O2-  O99  1  0.61870606  0.00646445  0.10454117  1
  O2-  O100  1  0.66289046  0.00294938  0.38582323  1
  O2-  O101  1  0.62627611  0.01577409  0.63104538  1
  O2-  O102  1  0.67465682  0.01121909  0.89229490  1
  O2-  O103  1  0.63295258  0.50979853  0.12579535  1
  O2-  O104  1  0.63116499  0.50139147  0.37224152  1
  O2-  O105  1  0.63829621  0.48278218  0.63841759  1
  O2-  O106  1  0.66245357  0.48159262  0.88530922  1
  O2-  O107  1  0.87865069  0.00323329  0.11784446  1
  O2-  O108  1  0.86494332  0.00803950  0.36905857  1
  O2-  O109  1  0.85921786  0.00785057  0.61943094  1
  O2-  O110  1  0.86040281  0.00924804  0.85693743  1
  O2-  O111  1  0.85952281  0.50021434  0.14790718  1
  O2-  O112  1  0.86005951  0.50616284  0.35230837  1
  O2-  O113  1  0.86388600  0.48882196  0.61130533  1
  O2-  O114  1  0.86850348  0.48346686  0.87020763  1
  O2-  O115  1  0.15476517  0.23527752  0.14250418  1
  O2-  O116  1  0.11742983  0.24884734  0.36402512  1
  O2-  O117  1  0.13888417  0.24520449  0.61106995  1
  O2-  O118  1  0.08348325  0.25563623  0.85694285  1
  O2-  O119  1  0.13511992  0.75812335  0.11245146  1
  O2-  O120  1  0.05518909  0.75274488  0.37342440  1
  O2-  O121  1  0.07143687  0.75223042  0.62083521  1
  O2-  O122  1  0.12012556  0.75065878  0.87710573  1
  O2-  O123  1  0.35674776  0.25745150  0.11463726  1
  O2-  O124  1  0.35835886  0.24407437  0.35958034  1
  O2-  O125  1  0.34661645  0.25512740  0.63218971  1
  O2-  O126  1  0.39056124  0.23995014  0.90426149  1
  O2-  O127  1  0.44413177  0.74261113  0.13536542  1
  O2-  O128  1  0.40401313  0.74493529  0.38615162  1
  O2-  O129  1  0.40355551  0.73829366  0.62105079  1
  O2-  O130  1  0.44301917  0.75483268  0.87231015  1
  O2-  O131  1  0.58803439  0.24774424  0.15412018  1
  O2-  O132  1  0.64367653  0.25195002  0.35749761  1
  O2-  O133  1  0.71086559  0.25820000  0.62175294  1
  O2-  O134  1  0.58072616  0.22973596  0.89792394  1
  O2-  O135  1  0.62150327  0.75955186  0.13885320  1
  O2-  O136  1  0.66647605  0.77636406  0.34184352  1
  O2-  O137  1  0.64512214  0.74486382  0.64020375  1
  O2-  O138  1  0.68540800  0.80680923  0.88511754  1
  O2-  O139  1  0.97589155  0.23654151  0.13492714  1
  O2-  O140  1  0.84154357  0.24088312  0.36042446  1
  O2-  O141  1  0.92674542  0.23066077  0.60737285  1
  O2-  O142  1  0.91321003  0.23842861  0.85794746  1
  O2-  O143  1  0.84777428  0.75260413  0.12210436  1
  O2-  O144  1  0.84579565  0.75513078  0.39528182  1
  O2-  O145  1  0.83702867  0.75104089  0.61444733  1
  O2-  O146  1  0.87270930  0.77185813  0.83943540  1
  O2-  O147  1  0.10616909  0.14657744  -0.01452347  1
  O2-  O148  1  0.16172357  0.11510004  0.27417319  1
  O2-  O149  1  0.16999082  0.12226565  0.48855427  1
  O2-  O150  1  0.11225903  0.13453203  0.73244766  1
  O2-  O151  1  0.15129871  0.62630616  -0.00126839  1
  O2-  O152  1  0.09974796  0.64477386  0.24645886  1
  O2-  O153  1  0.07293337  0.63126722  0.49487091  1
  O2-  O154  1  0.12474555  0.63973053  0.74351312  1
  O2-  O155  1  0.32279206  0.10188526  0.02732719  1
  O2-  O156  1  0.34849152  0.11474761  0.24221102  1
  O2-  O157  1  0.35602947  0.12968481  0.48836177  1
  O2-  O158  1  0.36940589  0.11896466  0.76096772  1
  O2-  O159  1  0.37218331  0.65430388  0.00680906  1
  O2-  O160  1  0.39879511  0.63139129  0.26461946  1
  O2-  O161  1  0.40129026  0.61686775  0.49413961  1
  O2-  O162  1  0.41463465  0.62504075  0.75415238  1
  O2-  O163  1  0.68010342  0.15314074  0.02042376  1
  O2-  O164  1  0.65412250  0.11533172  0.25569237  1
  O2-  O165  1  0.62950135  0.14890762  0.49848743  1
  O2-  O166  1  0.65180189  0.14596457  0.75823582  1
  O2-  O167  1  0.65295792  0.65395853  0.01098677  1
  O2-  O168  1  0.57897881  0.63285196  0.24767039  1
  O2-  O169  1  0.60453072  0.66952695  0.44559386  1
  O2-  O170  1  0.60994964  0.63617585  0.77254916  1
  O2-  O171  1  0.88178436  0.14635887  0.00107755  1
  O2-  O172  1  0.84228897  0.13297349  0.23908889  1
  O2-  O173  1  0.82299404  0.13283075  0.48985349  1
  O2-  O174  1  0.83557358  0.14303256  0.73986927  1
  O2-  O175  1  0.86245953  0.62158061  0.01518771  1
  O2-  O176  1  0.91238851  0.65630578  0.25638331  1
  O2-  O177  1  0.88771581  0.62734320  0.48806891  1
  O2-  O178  1  0.96586411  0.62924033  0.66078917  1
  O2-  O179  1  0.11803295  0.34856368  0.00456242  1
  O2-  O180  1  0.16857635  0.37112503  0.25835775  1
  O2-  O181  1  0.16269652  0.38743503  0.46474726  1
  O2-  O182  1  0.12533380  0.37502252  0.74453643  1
  O2-  O183  1  0.16745708  0.88346916  -0.01221720  1
  O2-  O184  1  0.09693624  0.87504103  0.25387307  1
  O2-  O185  1  0.08138286  0.86610752  0.50453752  1
  O2-  O186  1  0.11315630  0.86087856  0.73655695  1
  O2-  O187  1  0.40639932  0.37972959  0.00551652  1
  O2-  O188  1  0.34812058  0.36726878  0.25188575  1
  O2-  O189  1  0.33531410  0.37168941  0.50101645  1
  O2-  O190  1  0.34579119  0.37474726  0.76036948  1
  O2-  O191  1  0.35974142  0.84172819  -0.00847744  1
  O2-  O192  1  0.39838024  0.86170886  0.26702255  1
  O2-  O193  1  0.40075629  0.87069903  0.49097130  1
  O2-  O194  1  0.40414975  0.86213341  0.74323539  1
  O2-  O195  1  0.60443945  0.36034827  0.02491694  1
  O2-  O196  1  0.68513210  0.38062772  0.25684162  1
  O2-  O197  1  0.63282174  0.36268129  0.49322472  1
  O2-  O198  1  0.61856948  0.34302746  0.74817753  1
  O2-  O199  1  0.58011368  0.86802127  0.00750030  1
  O2-  O200  1  0.58526472  0.89628296  0.24048827  1
  O2-  O201  1  0.51898658  0.86306751  0.60770566  1
  O2-  O202  1  0.59396403  0.87258739  0.76390486  1
  O2-  O203  1  0.88270106  0.34931290  -0.00929764  1
  O2-  O204  1  0.84970329  0.34129369  0.22543595  1
  O2-  O205  1  0.82808347  0.37011297  0.47541497  1
  O2-  O206  1  0.90650521  0.35809895  0.74223078  1
  O2-  O207  1  0.87959829  0.87090046  -0.02043112  1
  O2-  O208  1  0.90047655  0.86472145  0.25060720  1
  O2-  O209  1  0.89353149  0.87755957  0.50283628  1
  O2-  O210  1  0.92570760  0.87230113  0.71696695  1
  O2-  O211  1  -0.01223705  -0.13862732  0.10744505  1
  O2-  O212  1  -0.00253605  0.12182281  0.28549374  1
  O2-  O213  1  -0.01013825  0.13570963  0.44580857  1
  O2-  O214  1  0.01775296  -0.11396262  0.87039807  1
  O2-  O215  1  -0.00975179  0.48344170  0.03048934  1
  O2-  O216  1  -0.00801424  0.39070284  0.26689197  1
  O2-  O217  1  -0.01056495  0.36295903  0.43250214  1
  O2-  O218  1  0.00729841  0.61888380  0.87813940  1
  O2-  O219  1  0.23977585  0.15814610  -0.12385014  1
  O2-  O220  1  0.23068437  -0.15474336  0.38921282  1
  O2-  O221  1  0.25619617  -0.15807828  0.60796230  1
  O2-  O222  1  0.26266489  -0.15500250  0.83924237  1
  O2-  O223  1  0.24793890  0.33207822  -0.09688019  1
  O2-  O224  1  0.26040605  0.64480870  0.15015843  1
  O2-  O225  1  0.23188077  0.64851695  0.38289592  1
  O2-  O226  1  0.26806394  0.65134738  0.86758528  1
  O2-  O227  1  0.43408948  -0.01419690  0.12614233  1
  O2-  O228  1  0.50026793  0.16318280  0.32316299  1
  O2-  O229  1  0.49947679  0.04498043  0.42056044  1
  O2-  O230  1  0.49434492  -0.06779629  0.88208203  1
  O2-  O231  1  0.51694637  0.61139248  -0.08185787  1
  O2-  O232  1  0.53035142  0.38645624  0.24325560  1
  O2-  O233  1  0.48564299  0.37174493  0.39727387  1
  O2-  O234  1  0.52846432  0.62092397  0.61354387  1
  O2-  O235  1  0.74526641  -0.12503065  0.05343411  1
  O2-  O236  1  0.74727263  -0.09755795  0.20832902  1
  O2-  O237  1  0.72308918  -0.11713425  0.55158102  1
  O2-  O238  1  0.75046002  -0.11268731  0.71264164  1
  O2-  O239  1  0.75158731  0.64663422  -0.12526597  1
  O2-  O240  1  0.75327382  0.66431491  0.24959172  1
  O2-  O241  1  0.72943048  0.61108215  0.55034941  1
  O2-  O242  1  0.76730395  0.60964550  0.70717283  1
