# generated using pymatgen
data_Gd19Ta56(WO20)8
_symmetry_space_group_name_H-M   'P 1'
_cell_length_a   15.59739002
_cell_length_b   15.45774544
_cell_length_c   15.18810459
_cell_angle_alpha   90.11752143
_cell_angle_beta   90.06579445
_cell_angle_gamma   89.73640667
_symmetry_Int_Tables_number   1
_chemical_formula_structural   Gd19Ta56(WO20)8
_chemical_formula_sum   'Gd19 Ta56 W8 O160'
_cell_volume   3661.81054369
_cell_formula_units_Z   1
loop_
 _symmetry_equiv_pos_site_id
 _symmetry_equiv_pos_as_xyz
  1  'x, y, z'
loop_
 _atom_type_symbol
 _atom_type_oxidation_number
  Gd3+  3.0
  Ta5+  5.0
  W6+  6.0
  O2-  -2.0
loop_
 _atom_site_type_symbol
 _atom_site_label
 _atom_site_symmetry_multiplicity
 _atom_site_fract_x
 _atom_site_fract_y
 _atom_site_fract_z
 _atom_site_occupancy
  Gd3+  Gd0  1  0.23930384  0.71661858  0.27488040  1
  Gd3+  Gd1  1  0.00096261  0.77158716  0.49081563  1
  Gd3+  Gd2  1  0.77056039  0.75901582  0.50074511  1
  Gd3+  Gd3  1  0.03330372  0.77111530  0.03173773  1
  Gd3+  Gd4  1  0.50606622  0.26793185  0.45926848  1
  Gd3+  Gd5  1  0.76520269  0.75004007  -0.01760505  1
  Gd3+  Gd6  1  0.49197980  0.25764808  0.00177889  1
  Gd3+  Gd7  1  0.47917645  0.26886568  0.23674424  1
  Gd3+  Gd8  1  0.74969841  0.74741965  0.74650156  1
  Gd3+  Gd9  1  0.75159546  0.21396702  0.49352272  1
  Gd3+  Gd10  1  0.27134973  0.73669046  -0.01285566  1
  Gd3+  Gd11  1  0.14613962  0.26455230  0.01460378  1
  Gd3+  Gd12  1  0.51003537  0.22958635  0.72450272  1
  Gd3+  Gd13  1  0.26243521  0.74226152  0.73347571  1
  Gd3+  Gd14  1  0.01589979  0.25523786  0.73952335  1
  Gd3+  Gd15  1  -0.01132876  0.25748298  0.21179338  1
  Gd3+  Gd16  1  0.69182922  0.27711869  0.27907962  1
  Gd3+  Gd17  1  0.53249257  0.74442633  0.02318558  1
  Gd3+  Gd18  1  0.74054234  0.23621033  0.74334709  1
  Ta5+  Ta19  1  0.62936188  0.41672305  0.08817628  1
  Ta5+  Ta20  1  0.09261288  0.63239392  0.62293422  1
  Ta5+  Ta21  1  0.38461619  0.37358525  0.85159248  1
  Ta5+  Ta22  1  0.14390610  0.60893298  0.11975682  1
  Ta5+  Ta23  1  0.60399217  0.61627933  0.59993917  1
  Ta5+  Ta24  1  0.18216227  0.37960183  0.19717697  1
  Ta5+  Ta25  1  0.89884443  0.88239589  0.84823657  1
  Ta5+  Ta26  1  0.85707115  0.60839217  0.61465706  1
  Ta5+  Ta27  1  0.87855473  0.89759540  0.63578047  1
  Ta5+  Ta28  1  0.65610423  0.12240345  0.91448689  1
  Ta5+  Ta29  1  0.60406858  0.60853500  0.82511388  1
  Ta5+  Ta30  1  0.69890810  0.59754530  0.39721696  1
  Ta5+  Ta31  1  0.63185012  0.09891133  0.12953081  1
  Ta5+  Ta32  1  0.86181877  0.36258949  0.61561405  1
  Ta5+  Ta33  1  0.89655853  0.10150334  0.61871405  1
  Ta5+  Ta34  1  0.39573505  0.60411865  0.37132449  1
  Ta5+  Ta35  1  0.88295455  0.37938734  0.87140182  1
  Ta5+  Ta36  1  0.35971096  0.11667973  0.34182379  1
  Ta5+  Ta37  1  0.83234193  0.12896709  0.11399930  1
  Ta5+  Ta38  1  0.08093498  0.90527478  0.63715609  1
  Ta5+  Ta39  1  0.39192371  0.11499545  0.59415395  1
  Ta5+  Ta40  1  0.89692128  0.12738391  0.87962787  1
  Ta5+  Ta41  1  0.90266815  0.62446012  0.36687421  1
  Ta5+  Ta42  1  0.89110147  0.12288222  0.36119026  1
  Ta5+  Ta43  1  0.39250370  0.88286626  0.85782629  1
  Ta5+  Ta44  1  0.33569326  0.38435131  0.35879721  1
  Ta5+  Ta45  1  0.14207349  0.12731435  0.85551604  1
  Ta5+  Ta46  1  0.37461251  0.59999471  0.11007019  1
  Ta5+  Ta47  1  0.37460424  0.86918145  0.59948621  1
  Ta5+  Ta48  1  0.14254233  0.39057644  0.61313846  1
  Ta5+  Ta49  1  0.89497780  0.62238965  0.11390927  1
  Ta5+  Ta50  1  0.05787937  0.12340854  0.37379341  1
  Ta5+  Ta51  1  0.16546335  0.11698854  0.18179498  1
  Ta5+  Ta52  1  0.37174409  0.11758930  0.86379942  1
  Ta5+  Ta53  1  0.43438003  0.62433103  0.62329994  1
  Ta5+  Ta54  1  0.19909961  0.88026476  0.13565526  1
  Ta5+  Ta55  1  0.38586605  0.38357230  0.60452292  1
  Ta5+  Ta56  1  0.58905582  0.47222279  0.39155788  1
  Ta5+  Ta57  1  0.14887125  0.39944636  0.84501665  1
  Ta5+  Ta58  1  0.07600225  0.62508103  0.36515398  1
  Ta5+  Ta59  1  0.62703917  0.64647330  0.18321822  1
  Ta5+  Ta60  1  0.35118756  0.12905732  0.11881010  1
  Ta5+  Ta61  1  0.11812339  0.88908486  0.37191479  1
  Ta5+  Ta62  1  0.90536268  0.61846130  0.85956497  1
  Ta5+  Ta63  1  0.63124350  0.37907716  0.61965663  1
  Ta5+  Ta64  1  0.57322179  0.87517069  0.21823041  1
  Ta5+  Ta65  1  0.87156120  0.88183340  0.35584633  1
  Ta5+  Ta66  1  0.61606245  0.86808950  0.61153743  1
  Ta5+  Ta67  1  0.65370649  0.84814484  0.36021943  1
  Ta5+  Ta68  1  0.39931533  0.61629846  0.85161671  1
  Ta5+  Ta69  1  0.83756438  0.38246681  0.10750390  1
  Ta5+  Ta70  1  0.13567627  0.87987259  0.87194588  1
  Ta5+  Ta71  1  0.65014327  0.37484427  0.88642328  1
  Ta5+  Ta72  1  0.14936447  0.13207171  0.61062728  1
  Ta5+  Ta73  1  0.59493072  0.89299402  0.86132657  1
  Ta5+  Ta74  1  0.11236038  0.62523141  0.86495216  1
  W6+  W75  1  0.08275949  0.38029022  0.36732582  1
  W6+  W76  1  0.64645592  0.09740322  0.63147611  1
  W6+  W77  1  0.86003026  0.88483388  0.10439895  1
  W6+  W78  1  0.37192630  0.86418626  0.34727290  1
  W6+  W79  1  0.86654942  0.37699199  0.36250175  1
  W6+  W80  1  0.36056863  0.40591051  0.11169485  1
  W6+  W81  1  0.61967661  0.08590184  0.37303105  1
  W6+  W82  1  0.36396123  0.87472529  0.11584208  1
  O2-  O83  1  0.17482158  0.00185262  0.13534079  1
  O2-  O84  1  0.12195446  0.00961340  0.37764060  1
  O2-  O85  1  0.15169812  0.00571870  0.63059725  1
  O2-  O86  1  0.15033451  0.00168266  0.86597181  1
  O2-  O87  1  0.17087519  0.49406446  0.14292300  1
  O2-  O88  1  0.10409487  0.50897709  0.37055647  1
  O2-  O89  1  0.14416317  0.51649131  0.61983157  1
  O2-  O90  1  0.17907094  0.51828209  0.84757046  1
  O2-  O91  1  0.36271439  0.01070119  0.11356113  1
  O2-  O92  1  0.35543972  -0.00080690  0.34430401  1
  O2-  O93  1  0.36464097  -0.00341987  0.60730694  1
  O2-  O94  1  0.33998671  0.00262256  0.86579105  1
  O2-  O95  1  0.45075161  0.50797194  0.10308875  1
  O2-  O96  1  0.31596303  0.50534123  0.38217599  1
  O2-  O97  1  0.40827080  0.49995485  0.62216361  1
  O2-  O98  1  0.41782660  0.49084124  0.84707260  1
  O2-  O99  1  0.61771332  -0.01780627  0.15192859  1
  O2-  O100  1  0.58543085  -0.04388295  0.33111900  1
  O2-  O101  1  0.64710048  -0.03158109  0.66874086  1
  O2-  O102  1  0.65333437  0.00104143  0.88770354  1
  O2-  O103  1  0.61749911  0.52528931  0.13957906  1
  O2-  O104  1  0.71420910  0.46488677  0.37412101  1
  O2-  O105  1  0.59672845  0.49266369  0.64338646  1
  O2-  O106  1  0.64439152  0.49714668  0.85098933  1
  O2-  O107  1  0.82435294  0.01035564  0.12501978  1
  O2-  O108  1  0.86076898  0.00613086  0.37096253  1
  O2-  O109  1  0.81805435  0.00833688  0.62689457  1
  O2-  O110  1  0.91901797  0.00539618  0.85742485  1
  O2-  O111  1  0.84489796  0.51112185  0.11182851  1
  O2-  O112  1  0.89888528  0.50413024  0.37306952  1
  O2-  O113  1  0.86479442  0.48884762  0.60702159  1
  O2-  O114  1  0.85978853  0.49717047  0.85664953  1
  O2-  O115  1  0.12802167  0.24542753  0.16431541  1
  O2-  O116  1  0.05438421  0.24794013  0.35114861  1
  O2-  O117  1  0.12729312  0.25913721  0.63706915  1
  O2-  O118  1  0.12409963  0.26260725  0.84245211  1
  O2-  O119  1  0.16931043  0.74476485  0.11595711  1
  O2-  O120  1  0.13036597  0.75271096  0.37934230  1
  O2-  O121  1  0.07523933  0.76292868  0.62198403  1
  O2-  O122  1  0.17281412  0.75124442  0.87113645  1
  O2-  O123  1  0.39703177  0.25368223  0.11723747  1
  O2-  O124  1  0.38805011  0.25561263  0.35729361  1
  O2-  O125  1  0.42468297  0.25437880  0.59144271  1
  O2-  O126  1  0.43799506  0.25102098  0.85867924  1
  O2-  O127  1  0.38844152  0.73080949  0.09179245  1
  O2-  O128  1  0.36559091  0.72479893  0.35231373  1
  O2-  O129  1  0.37428606  0.74278157  0.62782717  1
  O2-  O130  1  0.35356066  0.74166500  0.85357900  1
  O2-  O131  1  0.56880258  0.31621997  0.12607572  1
  O2-  O132  1  0.63626111  0.21929819  0.40359287  1
  O2-  O133  1  0.64559475  0.24168946  0.61557917  1
  O2-  O134  1  0.63129027  0.25108252  0.92303484  1
  O2-  O135  1  0.55097874  0.74825409  0.17905189  1
  O2-  O136  1  0.65930304  0.72724303  0.40161216  1
  O2-  O137  1  0.65261012  0.74629825  0.60313935  1
  O2-  O138  1  0.68653968  0.68264576  0.87540777  1
  O2-  O139  1  0.85893932  0.25942979  0.09602231  1
  O2-  O140  1  0.81906996  0.24034553  0.35404378  1
  O2-  O141  1  0.84092221  0.22759101  0.63046786  1
  O2-  O142  1  0.93220030  0.24984805  0.87211326  1
  O2-  O143  1  0.89228669  0.75145037  0.08193403  1
  O2-  O144  1  0.86281885  0.75557572  0.37631577  1
  O2-  O145  1  0.84480568  0.76141473  0.63324170  1
  O2-  O146  1  0.86360826  0.74993635  0.85032242  1
  O2-  O147  1  0.07949924  0.14217850  -0.04238411  1
  O2-  O148  1  0.05897900  0.10565848  0.23926282  1
  O2-  O149  1  0.09443977  0.13488716  0.50351953  1
  O2-  O150  1  0.09788104  0.12495851  0.73703771  1
  O2-  O151  1  0.15710996  0.62307104  -0.01375702  1
  O2-  O152  1  0.11464432  0.63758294  0.24117093  1
  O2-  O153  1  0.08252661  0.63928024  0.49825088  1
  O2-  O154  1  0.14328878  0.65285553  0.74205278  1
  O2-  O155  1  0.39675829  0.13749119  -0.01242371  1
  O2-  O156  1  0.42391076  0.12928106  0.23199757  1
  O2-  O157  1  0.39791832  0.12584580  0.46796823  1
  O2-  O158  1  0.39350008  0.13283602  0.73915720  1
  O2-  O159  1  0.34711197  0.60693563  -0.02934016  1
  O2-  O160  1  0.34871925  0.60486091  0.23359622  1
  O2-  O161  1  0.41654531  0.61960877  0.49237945  1
  O2-  O162  1  0.33500144  0.61356319  0.74203052  1
  O2-  O163  1  0.56818796  0.12066417  0.01770833  1
  O2-  O164  1  0.58693327  0.14833805  0.23664588  1
  O2-  O165  1  0.51132530  0.11173790  0.61773880  1
  O2-  O166  1  0.62496455  0.14544928  0.78002462  1
  O2-  O167  1  0.66696119  0.68331099  0.06873653  1
  O2-  O168  1  0.70698406  0.62545200  0.26990581  1
  O2-  O169  1  0.74381624  0.61226773  0.54698265  1
  O2-  O170  1  0.66611718  0.62687379  0.71812688  1
  O2-  O171  1  0.90011206  0.11883735  0.00233528  1
  O2-  O172  1  0.89079085  0.14138128  0.22637959  1
  O2-  O173  1  0.88110390  0.13012657  0.49517806  1
  O2-  O174  1  0.92185739  0.13305125  0.74283948  1
  O2-  O175  1  0.85460040  0.62430179  -0.02487959  1
  O2-  O176  1  0.89416155  0.63800792  0.23403208  1
  O2-  O177  1  0.90111232  0.65304327  0.50307179  1
  O2-  O178  1  0.84141090  0.62316214  0.74478472  1
  O2-  O179  1  0.10129661  0.39264245  -0.04373912  1
  O2-  O180  1  0.06308105  0.38558767  0.22916878  1
  O2-  O181  1  0.09253075  0.37843289  0.50645440  1
  O2-  O182  1  0.08639197  0.39624720  0.73371374  1
  O2-  O183  1  0.15790891  0.86757025  0.00220787  1
  O2-  O184  1  0.13550068  0.87164058  0.24867266  1
  O2-  O185  1  0.09727071  0.88575435  0.51240453  1
  O2-  O186  1  0.15088244  0.86645510  0.74378460  1
  O2-  O187  1  0.38236154  0.36663426  -0.02507668  1
  O2-  O188  1  0.39073305  0.39657916  0.25006703  1
  O2-  O189  1  0.40128136  0.37967665  0.47528808  1
  O2-  O190  1  0.42344250  0.35529877  0.72624274  1
  O2-  O191  1  0.34139430  0.86842183  -0.02827332  1
  O2-  O192  1  0.29229199  0.84409877  0.22958631  1
  O2-  O193  1  0.34157490  0.86074089  0.48394266  1
  O2-  O194  1  0.34509728  0.87125471  0.73836536  1
  O2-  O195  1  0.56134099  0.40058167  -0.02579469  1
  O2-  O196  1  0.56700913  0.35597968  0.32181789  1
  O2-  O197  1  0.59200157  0.38451758  0.49912152  1
  O2-  O198  1  0.61577270  0.33924836  0.76543436  1
  O2-  O199  1  0.64131007  0.83646769  -0.03606586  1
  O2-  O200  1  0.69304042  0.82724428  0.23951779  1
  O2-  O201  1  0.65550028  0.88516770  0.49630056  1
  O2-  O202  1  0.62179681  0.82976982  0.75803258  1
  O2-  O203  1  0.90339987  0.38915406  -0.00601164  1
  O2-  O204  1  0.88990821  0.37287860  0.22008956  1
  O2-  O205  1  0.84507339  0.34348613  0.49450696  1
  O2-  O206  1  0.91123321  0.36174805  0.74140909  1
  O2-  O207  1  0.84194989  0.88092726  -0.04013392  1
  O2-  O208  1  0.87077058  0.87569271  0.23678388  1
  O2-  O209  1  0.88054976  0.87163820  0.50809346  1
  O2-  O210  1  0.81177206  0.88830942  0.75645376  1
  O2-  O211  1  0.01772496  -0.13993576  -0.10159653  1
  O2-  O212  1  -0.00383075  -0.12498129  0.36946777  1
  O2-  O213  1  -0.02241782  -0.01119787  0.61314593  1
  O2-  O214  1  -0.02743049  -0.12827190  0.72350329  1
  O2-  O215  1  0.00913167  0.68743830  -0.08714405  1
  O2-  O216  1  0.01705816  0.62759634  0.09163424  1
  O2-  O217  1  -0.01878327  0.60860069  0.65126174  1
  O2-  O218  1  0.01227236  0.55588018  0.82954284  1
  O2-  O219  1  0.23899955  0.15391529  0.07050620  1
  O2-  O220  1  0.27026423  0.14417688  0.24304060  1
  O2-  O221  1  0.26731647  0.15001699  0.59984140  1
  O2-  O222  1  0.25921696  0.16290410  0.86865492  1
  O2-  O223  1  0.24155509  0.34135267  0.09344385  1
  O2-  O224  1  0.22652334  0.34107321  0.31710486  1
  O2-  O225  1  0.26405914  0.37643820  0.60893633  1
  O2-  O226  1  0.26719024  0.36448452  0.82537611  1
  O2-  O227  1  0.49453535  -0.18283987  -0.10394898  1
  O2-  O228  1  0.44823207  -0.12363008  0.23518341  1
  O2-  O229  1  0.49542350  -0.12839748  0.60436097  1
  O2-  O230  1  0.49159739  -0.04010477  0.83029632  1
  O2-  O231  1  0.51456193  0.63645645  -0.08283900  1
  O2-  O232  1  0.49430548  0.53861006  0.33748046  1
  O2-  O233  1  0.59651913  0.57185451  0.48093006  1
  O2-  O234  1  0.49635133  0.63651245  0.75414471  1
  O2-  O235  1  0.72464908  0.11455529  0.02456684  1
  O2-  O236  1  0.72810904  0.17445089  0.17456637  1
  O2-  O237  1  0.67593379  0.08467371  0.49797744  1
  O2-  O238  1  0.77674556  0.14253340  0.86232330  1
  O2-  O239  1  0.72400901  0.40520391  0.00396477  1
  O2-  O240  1  0.72373088  0.37707289  0.16771834  1
  O2-  O241  1  0.74987571  0.37354596  0.66984407  1
  O2-  O242  1  0.76992860  0.33598888  0.85455700  1
