# generated using pymatgen
data_Gd19Ta56(WO20)8
_symmetry_space_group_name_H-M   'P 1'
_cell_length_a   15.62896291
_cell_length_b   15.40638615
_cell_length_c   15.30681404
_cell_angle_alpha   90.09967846
_cell_angle_beta   90.23161634
_cell_angle_gamma   90.26498950
_symmetry_Int_Tables_number   1
_chemical_formula_structural   Gd19Ta56(WO20)8
_chemical_formula_sum   'Gd19 Ta56 W8 O160'
_cell_volume   3685.58881088
_cell_formula_units_Z   1
loop_
 _symmetry_equiv_pos_site_id
 _symmetry_equiv_pos_as_xyz
  1  'x, y, z'
loop_
 _atom_type_symbol
 _atom_type_oxidation_number
  Gd3+  3.0
  Ta5+  5.0
  W6+  6.0
  O2-  -2.0
loop_
 _atom_site_type_symbol
 _atom_site_label
 _atom_site_symmetry_multiplicity
 _atom_site_fract_x
 _atom_site_fract_y
 _atom_site_fract_z
 _atom_site_occupancy
  Gd3+  Gd0  1  0.77365523  0.24098131  0.50820235  1
  Gd3+  Gd1  1  0.50668884  0.74654598  0.51848492  1
  Gd3+  Gd2  1  0.75166271  0.73382844  0.78038438  1
  Gd3+  Gd3  1  0.26900986  0.75694302  0.51840468  1
  Gd3+  Gd4  1  0.49430115  0.25258551  0.76743170  1
  Gd3+  Gd5  1  0.23217501  0.22664253  0.49378055  1
  Gd3+  Gd6  1  0.00838490  0.76112215  0.24356377  1
  Gd3+  Gd7  1  -0.04287780  0.74438755  -0.00936162  1
  Gd3+  Gd8  1  0.75986528  0.73364750  0.48217078  1
  Gd3+  Gd9  1  0.52352425  0.25897087  0.51975697  1
  Gd3+  Gd10  1  -0.01685900  0.23211453  -0.00699428  1
  Gd3+  Gd11  1  0.21346136  0.26639621  0.73484283  1
  Gd3+  Gd12  1  0.50934308  0.77403381  0.77229608  1
  Gd3+  Gd13  1  0.75515430  0.75636246  0.24241628  1
  Gd3+  Gd14  1  0.50248012  0.26567780  0.24343395  1
  Gd3+  Gd15  1  0.79838102  0.22893539  0.25466137  1
  Gd3+  Gd16  1  -0.02333503  0.73778920  0.74625523  1
  Gd3+  Gd17  1  0.25523147  0.74259266  -0.00347268  1
  Gd3+  Gd18  1  0.00567140  0.23512854  0.49099666  1
  Ta5+  Ta19  1  0.62703282  0.57264847  0.64742504  1
  Ta5+  Ta20  1  0.67536021  0.37879018  0.64369368  1
  Ta5+  Ta21  1  0.92326042  0.90703739  0.40188257  1
  Ta5+  Ta22  1  0.89602963  0.38306707  0.87695885  1
  Ta5+  Ta23  1  0.08964013  0.37984884  0.60731206  1
  Ta5+  Ta24  1  0.39058476  0.61810070  0.64494359  1
  Ta5+  Ta25  1  0.86841690  0.61023680  0.13330820  1
  Ta5+  Ta26  1  0.90637773  0.36559424  0.13386974  1
  Ta5+  Ta27  1  0.33513768  0.36925703  0.89716081  1
  Ta5+  Ta28  1  0.37152602  0.87437859  0.12818021  1
  Ta5+  Ta29  1  0.35421159  0.61802053  0.37975203  1
  Ta5+  Ta30  1  0.35404162  0.37580471  0.37316301  1
  Ta5+  Ta31  1  0.36166265  0.13041628  0.13583047  1
  Ta5+  Ta32  1  0.09238764  0.11135110  0.35809517  1
  Ta5+  Ta33  1  0.28493107  0.36828607  0.14575293  1
  Ta5+  Ta34  1  0.84700093  0.86722653  0.62484056  1
  Ta5+  Ta35  1  0.92266344  0.61198464  0.40309435  1
  Ta5+  Ta36  1  0.61123431  0.88392757  0.12476790  1
  Ta5+  Ta37  1  0.59537146  0.58292454  0.37989699  1
  Ta5+  Ta38  1  0.12381571  0.11632250  0.87528884  1
  Ta5+  Ta39  1  0.12029537  0.10564600  0.62430463  1
  Ta5+  Ta40  1  0.08674962  0.37603415  0.86706464  1
  Ta5+  Ta41  1  0.92556003  0.08802884  0.37572859  1
  Ta5+  Ta42  1  0.34643766  0.88114741  0.87121303  1
  Ta5+  Ta43  1  0.13462052  0.36993517  0.35199854  1
  Ta5+  Ta44  1  0.08131402  0.61395353  0.60700463  1
  Ta5+  Ta45  1  0.87655152  0.11485109  0.63325282  1
  Ta5+  Ta46  1  0.67590699  0.38845358  0.88110862  1
  Ta5+  Ta47  1  0.88063368  0.37378524  0.37889665  1
  Ta5+  Ta48  1  0.85265814  0.57569435  0.88274804  1
  Ta5+  Ta49  1  0.12000516  0.89845470  0.37347191  1
  Ta5+  Ta50  1  0.38650986  0.87143136  0.36718912  1
  Ta5+  Ta51  1  0.12356013  0.11521279  0.11420010  1
  Ta5+  Ta52  1  0.63425860  0.13425635  0.12149616  1
  Ta5+  Ta53  1  0.61457148  0.62251546  0.13089359  1
  Ta5+  Ta54  1  0.66200021  0.15473517  0.87945634  1
  Ta5+  Ta55  1  0.65879728  0.37625629  0.12756144  1
  Ta5+  Ta56  1  0.36122710  0.13144021  0.89589476  1
  Ta5+  Ta57  1  0.88775795  0.92541234  0.86951179  1
  Ta5+  Ta58  1  0.62162049  0.89987250  0.37554746  1
  Ta5+  Ta59  1  0.64488752  0.39316185  0.38250781  1
  Ta5+  Ta60  1  0.12268018  0.61824954  0.11790229  1
  Ta5+  Ta61  1  0.82906651  0.13739430  0.87144645  1
  Ta5+  Ta62  1  0.83775835  0.58753263  0.63151619  1
  Ta5+  Ta63  1  0.11839582  0.36658751  0.11715659  1
  Ta5+  Ta64  1  0.36458983  0.09956322  0.63849709  1
  Ta5+  Ta65  1  0.12877669  0.87169573  0.11062852  1
  Ta5+  Ta66  1  0.38378417  0.11872705  0.38567254  1
  Ta5+  Ta67  1  0.12098363  0.61974232  0.86030927  1
  Ta5+  Ta68  1  0.37466651  0.61370508  0.86763354  1
  Ta5+  Ta69  1  0.65615169  0.90204090  0.87736934  1
  Ta5+  Ta70  1  0.12057484  0.62340307  0.36239509  1
  Ta5+  Ta71  1  0.36277167  0.36804181  0.62206281  1
  Ta5+  Ta72  1  0.92417272  0.36753189  0.63241897  1
  Ta5+  Ta73  1  0.64401141  0.89289819  0.62931758  1
  Ta5+  Ta74  1  0.88087047  0.09867018  0.12338835  1
  W6+  W75  1  0.10699400  0.85902489  0.59086517  1
  W6+  W76  1  0.64038031  0.14355495  0.65367555  1
  W6+  W77  1  0.35936046  0.60807985  0.12505972  1
  W6+  W78  1  0.89272033  0.89228274  0.13308322  1
  W6+  W79  1  0.10534053  0.86403963  0.85212814  1
  W6+  W80  1  0.40276071  0.90135761  0.63575767  1
  W6+  W81  1  0.61216101  0.61957267  0.89244063  1
  W6+  W82  1  0.62833704  0.14755810  0.38137714  1
  O2-  O83  1  0.15815865  -0.01003415  0.10499040  1
  O2-  O84  1  0.17425073  0.00629809  0.35911018  1
  O2-  O85  1  0.12708541  -0.01198486  0.62192266  1
  O2-  O86  1  0.12730828  -0.00105207  0.85935491  1
  O2-  O87  1  0.11964649  0.49922410  0.12057548  1
  O2-  O88  1  0.12916654  0.49865504  0.35917717  1
  O2-  O89  1  0.12855185  0.50505653  0.59444626  1
  O2-  O90  1  0.12118999  0.50091628  0.85955169  1
  O2-  O91  1  0.36636189  0.00444813  0.13230778  1
  O2-  O92  1  0.36899618  -0.00465561  0.37375765  1
  O2-  O93  1  0.46004709  0.03318915  0.61213222  1
  O2-  O94  1  0.35485063  0.01113834  0.89004254  1
  O2-  O95  1  0.31513733  0.48295730  0.14813166  1
  O2-  O96  1  0.33601755  0.49502937  0.40163168  1
  O2-  O97  1  0.38018824  0.48803720  0.63175935  1
  O2-  O98  1  0.37629056  0.48228871  0.87217310  1
  O2-  O99  1  0.60051483  0.01804804  0.11249876  1
  O2-  O100  1  0.64746173  0.01316942  0.39134747  1
  O2-  O101  1  0.64909828  0.01138877  0.62968135  1
  O2-  O102  1  0.67161389  0.02245316  0.88172122  1
  O2-  O103  1  0.62436312  0.49367331  0.13176141  1
  O2-  O104  1  0.70003253  0.50885420  0.37994185  1
  O2-  O105  1  0.57457887  0.45697244  0.65008267  1
  O2-  O106  1  0.60224229  0.48048992  0.87789464  1
  O2-  O107  1  0.96070227  0.01163220  0.11834547  1
  O2-  O108  1  0.83563644  -0.01395081  0.40956871  1
  O2-  O109  1  0.86298471  -0.01217552  0.61433948  1
  O2-  O110  1  0.92355153  0.03781427  0.86127488  1
  O2-  O111  1  0.89337089  0.49392358  0.15742787  1
  O2-  O112  1  0.90682044  0.49346171  0.39078862  1
  O2-  O113  1  0.88997146  0.48321160  0.59707719  1
  O2-  O114  1  0.94884495  0.50681686  0.89148026  1
  O2-  O115  1  0.09537428  0.23775371  0.09817865  1
  O2-  O116  1  0.13919625  0.23472538  0.36883052  1
  O2-  O117  1  0.10461104  0.24803071  0.60579676  1
  O2-  O118  1  0.07686551  0.24199543  0.87352992  1
  O2-  O119  1  0.17113975  0.74838977  0.12053824  1
  O2-  O120  1  0.09659288  0.75499803  0.36487909  1
  O2-  O121  1  0.13953566  0.71843638  0.57353575  1
  O2-  O122  1  0.05362928  0.73247866  0.87689855  1
  O2-  O123  1  0.36551801  0.26155265  0.16024493  1
  O2-  O124  1  0.33790480  0.24123402  0.38281862  1
  O2-  O125  1  0.41437670  0.24109170  0.62410867  1
  O2-  O126  1  0.40499172  0.26366002  0.89060675  1
  O2-  O127  1  0.35244152  0.75125780  0.11160221  1
  O2-  O128  1  0.34568004  0.75238758  0.38444003  1
  O2-  O129  1  0.40139001  0.74988213  0.64899964  1
  O2-  O130  1  0.37148647  0.75135296  0.87395108  1
  O2-  O131  1  0.58567934  0.26970844  0.12170793  1
  O2-  O132  1  0.57301592  0.27917956  0.38139927  1
  O2-  O133  1  0.59020459  0.27962766  0.65479353  1
  O2-  O134  1  0.60843233  0.28168836  0.86599697  1
  O2-  O135  1  0.63934081  0.75999477  0.14358177  1
  O2-  O136  1  0.71116809  0.81740895  0.37056504  1
  O2-  O137  1  0.57694354  0.78404303  0.64180449  1
  O2-  O138  1  0.62779031  0.76208317  0.86395741  1
  O2-  O139  1  0.90354927  0.23121302  0.12948424  1
  O2-  O140  1  0.76056776  0.31914502  0.37185842  1
  O2-  O141  1  0.87440427  0.24395210  0.63093499  1
  O2-  O142  1  0.86654442  0.25347344  0.87414911  1
  O2-  O143  1  0.86708390  0.74544935  0.14663785  1
  O2-  O144  1  0.83126693  0.67952511  0.34990582  1
  O2-  O145  1  0.84981263  0.73717795  0.66226253  1
  O2-  O146  1  0.87659433  0.70672102  0.86367531  1
  O2-  O147  1  0.07121898  0.10865689  -0.00736888  1
  O2-  O148  1  0.08906125  0.11395712  0.22911291  1
  O2-  O149  1  0.12465314  0.11889556  0.49461976  1
  O2-  O150  1  0.13366319  0.13859277  0.75077530  1
  O2-  O151  1  0.14484328  0.63285425  -0.01042619  1
  O2-  O152  1  0.15148712  0.63338736  0.24135682  1
  O2-  O153  1  0.22938555  0.64203163  0.41749413  1
  O2-  O154  1  0.11217470  0.63446475  0.73219470  1
  O2-  O155  1  0.40266864  0.14087172  0.01644208  1
  O2-  O156  1  0.41230621  0.13310907  0.25682225  1
  O2-  O157  1  0.33761117  0.11788317  0.50544341  1
  O2-  O158  1  0.38516775  0.14084397  0.76666673  1
  O2-  O159  1  0.33490021  0.61575279  -0.01485936  1
  O2-  O160  1  0.35977345  0.61680510  0.26187825  1
  O2-  O161  1  0.35661072  0.63526563  0.52683527  1
  O2-  O162  1  0.48836893  0.63141756  0.83044003  1
  O2-  O163  1  0.65289052  0.16355905  0.00146713  1
  O2-  O164  1  0.60192880  0.15118493  0.24429923  1
  O2-  O165  1  0.64823960  0.16892998  0.51646834  1
  O2-  O166  1  0.58166700  0.13677014  0.77732415  1
  O2-  O167  1  0.65423605  0.63058651  0.01596566  1
  O2-  O168  1  0.61171654  0.62914753  0.26831618  1
  O2-  O169  1  0.62629768  0.67418052  0.45777169  1
  O2-  O170  1  0.63818893  0.62728424  0.75576269  1
  O2-  O171  1  0.86197009  0.12316049  -0.00033889  1
  O2-  O172  1  0.88858325  0.10829286  0.25600011  1
  O2-  O173  1  0.88715841  0.13720023  0.49371486  1
  O2-  O174  1  0.82173041  0.11692040  0.74245809  1
  O2-  O175  1  0.85836881  0.61128815  0.01056537  1
  O2-  O176  1  0.75351067  0.61957786  0.17331520  1
  O2-  O177  1  0.86018266  0.63120199  0.51097823  1
  O2-  O178  1  0.81922386  0.58541145  0.75766718  1
  O2-  O179  1  0.09130834  0.37554146  -0.00884390  1
  O2-  O180  1  0.08358804  0.35534128  0.24288985  1
  O2-  O181  1  0.09489000  0.36254077  0.47335821  1
  O2-  O182  1  0.11270919  0.36937598  0.73568024  1
  O2-  O183  1  0.14526055  0.85113395  -0.01385589  1
  O2-  O184  1  0.11419175  0.87250723  0.24313436  1
  O2-  O185  1  0.19519457  0.86852870  0.47052140  1
  O2-  O186  1  0.07894962  0.83430938  0.71887306  1
  O2-  O187  1  0.31630643  0.36329386  0.01622102  1
  O2-  O188  1  0.43921076  0.38526645  0.29431449  1
  O2-  O189  1  0.40417264  0.35720515  0.49618171  1
  O2-  O190  1  0.35006505  0.34322935  0.74734174  1
  O2-  O191  1  0.33641558  0.87792737  0.00178253  1
  O2-  O192  1  0.33868038  0.86910919  0.24947696  1
  O2-  O193  1  0.39640097  0.86016688  0.49709380  1
  O2-  O194  1  0.24032961  0.86353512  0.82730875  1
  O2-  O195  1  0.68250734  0.37067912  0.00616077  1
  O2-  O196  1  0.62866065  0.37373389  0.25843550  1
  O2-  O197  1  0.66588335  0.35802006  0.51111744  1
  O2-  O198  1  0.71428375  0.36641304  0.75889436  1
  O2-  O199  1  0.62857657  0.88421120  -0.00044956  1
  O2-  O200  1  0.64698302  0.90252163  0.24292290  1
  O2-  O201  1  0.58668416  0.87274998  0.49668614  1
  O2-  O202  1  0.59587613  0.90044715  0.76698214  1
  O2-  O203  1  0.89820271  0.36999783  0.01074491  1
  O2-  O204  1  0.90787429  0.33747599  0.26438212  1
  O2-  O205  1  0.88989960  0.33951908  0.49939557  1
  O2-  O206  1  0.90205029  0.38351875  0.75292519  1
  O2-  O207  1  0.90264167  0.88141194  -0.01232987  1
  O2-  O208  1  0.90140581  0.85741578  0.28285766  1
  O2-  O209  1  0.88611884  0.82847305  0.50658020  1
  O2-  O210  1  0.90430567  0.87626223  0.75120276  1
  O2-  O211  1  0.01241325  -0.17083282  0.10651586  1
  O2-  O212  1  0.01251986  -0.01341137  0.33583444  1
  O2-  O213  1  0.03477184  -0.10245316  0.46956601  1
  O2-  O214  1  -0.00152078  0.11316248  0.63023669  1
  O2-  O215  1  0.00046515  0.64692365  0.11550485  1
  O2-  O216  1  -0.00473389  0.62534589  0.30166967  1
  O2-  O217  1  0.03494687  0.61525664  0.47063628  1
  O2-  O218  1  -0.03295905  0.62053416  0.64920791  1
  O2-  O219  1  0.24291077  0.15479462  -0.09961510  1
  O2-  O220  1  0.24418133  0.13936462  0.11898818  1
  O2-  O221  1  0.24400161  0.16037769  0.63059398  1
  O2-  O222  1  0.30742817  -0.00178127  0.66662884  1
  O2-  O223  1  0.22130756  0.34829585  -0.13528098  1
  O2-  O224  1  0.25602270  0.36698954  0.28999011  1
  O2-  O225  1  0.24530310  0.34683319  0.59788401  1
  O2-  O226  1  0.32409655  0.61410441  0.75025024  1
  O2-  O227  1  0.49150303  -0.12921332  0.13212959  1
  O2-  O228  1  0.50341501  -0.13568695  0.33975204  1
  O2-  O229  1  0.49278861  0.13517591  0.42776241  1
  O2-  O230  1  0.42363633  -0.10757916  0.77698638  1
  O2-  O231  1  0.49837183  0.62757883  0.11912600  1
  O2-  O232  1  0.47628258  0.62965072  0.40363628  1
  O2-  O233  1  0.54786232  0.46788134  0.41059156  1
  O2-  O234  1  0.51567497  0.61804446  0.60968050  1
  O2-  O235  1  0.77088157  -0.13641199  -0.12644949  1
  O2-  O236  1  0.75264915  0.12817752  0.14749234  1
  O2-  O237  1  0.73827041  -0.13682770  0.55024459  1
  O2-  O238  1  0.74167662  -0.13778932  0.70554687  1
  O2-  O239  1  0.78491469  0.46635889  -0.10436438  1
  O2-  O240  1  0.77350695  0.35099584  0.15881959  1
  O2-  O241  1  0.71938902  0.65207678  0.60600892  1
  O2-  O242  1  0.73060191  0.49636136  0.62368276  1
