# generated using pymatgen
data_Gd19Ta56(WO20)8
_symmetry_space_group_name_H-M   'P 1'
_cell_length_a   15.48839303
_cell_length_b   15.42087759
_cell_length_c   15.22497080
_cell_angle_alpha   89.81629427
_cell_angle_beta   90.08466012
_cell_angle_gamma   90.27738947
_symmetry_Int_Tables_number   1
_chemical_formula_structural   Gd19Ta56(WO20)8
_chemical_formula_sum   'Gd19 Ta56 W8 O160'
_cell_volume   3636.33706375
_cell_formula_units_Z   1
loop_
 _symmetry_equiv_pos_site_id
 _symmetry_equiv_pos_as_xyz
  1  'x, y, z'
loop_
 _atom_type_symbol
 _atom_type_oxidation_number
  Gd3+  3.0
  Ta5+  5.0
  W6+  6.0
  O2-  -2.0
loop_
 _atom_site_type_symbol
 _atom_site_label
 _atom_site_symmetry_multiplicity
 _atom_site_fract_x
 _atom_site_fract_y
 _atom_site_fract_z
 _atom_site_occupancy
  Gd3+  Gd0  1  0.25200604  0.74032194  0.49752041  1
  Gd3+  Gd1  1  0.23621031  0.74543367  0.01563569  1
  Gd3+  Gd2  1  -0.02454761  0.75454753  0.45646268  1
  Gd3+  Gd3  1  0.22271652  0.23689251  0.22377580  1
  Gd3+  Gd4  1  0.73046998  0.27100828  0.49689607  1
  Gd3+  Gd5  1  0.30684121  0.78257834  0.79989710  1
  Gd3+  Gd6  1  0.76000409  0.78703618  0.74569745  1
  Gd3+  Gd7  1  0.48121611  0.75126679  0.00858581  1
  Gd3+  Gd8  1  0.54608605  0.26025190  0.28965119  1
  Gd3+  Gd9  1  0.73604821  0.77714848  0.47492540  1
  Gd3+  Gd10  1  0.26790822  0.24339801  0.76008703  1
  Gd3+  Gd11  1  0.27121838  0.71969272  0.24794245  1
  Gd3+  Gd12  1  0.50885636  0.25165107  0.71215216  1
  Gd3+  Gd13  1  0.02683018  0.74515973  0.22853219  1
  Gd3+  Gd14  1  0.75609483  0.75860581  -0.01374091  1
  Gd3+  Gd15  1  -0.02564126  0.24654582  0.48228792  1
  Gd3+  Gd16  1  0.73504961  0.26301110  0.02436395  1
  Gd3+  Gd17  1  0.24667714  0.23011056  0.50713606  1
  Gd3+  Gd18  1  0.07447125  0.75184841  0.77241997  1
  Ta5+  Ta19  1  0.90036136  0.37041625  0.11907218  1
  Ta5+  Ta20  1  0.38752091  0.09895489  0.62928886  1
  Ta5+  Ta21  1  0.59028935  0.65011010  0.36954111  1
  Ta5+  Ta22  1  0.61401017  0.63060429  0.86429844  1
  Ta5+  Ta23  1  0.36163973  0.38088090  0.62475815  1
  Ta5+  Ta24  1  0.42470316  0.34746262  0.13449397  1
  Ta5+  Ta25  1  0.89537364  0.64088267  0.61835024  1
  Ta5+  Ta26  1  0.60178833  0.89562241  0.35243323  1
  Ta5+  Ta27  1  0.91941462  0.89616174  0.88129992  1
  Ta5+  Ta28  1  0.09795225  0.11269371  0.36433906  1
  Ta5+  Ta29  1  0.83896040  0.91893161  0.32592376  1
  Ta5+  Ta30  1  0.88996990  0.62938858  0.85956445  1
  Ta5+  Ta31  1  0.41133341  0.88479438  0.16973177  1
  Ta5+  Ta32  1  0.62856869  0.89468410  0.10597307  1
  Ta5+  Ta33  1  0.09992785  0.87792399  0.59407348  1
  Ta5+  Ta34  1  0.59932865  0.64307344  0.62318234  1
  Ta5+  Ta35  1  0.62314377  0.11693997  0.61102339  1
  Ta5+  Ta36  1  0.58987965  0.38538902  0.12414331  1
  Ta5+  Ta37  1  0.07527887  0.10721935  0.62789615  1
  Ta5+  Ta38  1  0.86635890  0.14224418  0.64257183  1
  Ta5+  Ta39  1  0.42498771  0.14547371  0.90181687  1
  Ta5+  Ta40  1  0.86457313  0.60501542  0.11383423  1
  Ta5+  Ta41  1  0.13198292  0.92358444  0.37388148  1
  Ta5+  Ta42  1  0.89619381  0.15709456  0.13053522  1
  Ta5+  Ta43  1  0.67083154  0.11308197  0.35753805  1
  Ta5+  Ta44  1  0.84547060  0.60248093  0.36252730  1
  Ta5+  Ta45  1  0.59383041  0.87624662  0.61421592  1
  Ta5+  Ta46  1  0.58589378  0.37831666  0.87597191  1
  Ta5+  Ta47  1  0.64044284  0.46046024  0.36866466  1
  Ta5+  Ta48  1  0.62070642  0.39511462  0.61768673  1
  Ta5+  Ta49  1  0.06279177  0.13383617  0.10895097  1
  Ta5+  Ta50  1  0.41626400  0.61674018  0.38603811  1
  Ta5+  Ta51  1  0.41906112  0.35766474  0.88910853  1
  Ta5+  Ta52  1  0.15549692  0.55503377  0.12557660  1
  Ta5+  Ta53  1  0.13913711  0.58769947  0.88389003  1
  Ta5+  Ta54  1  0.39166497  0.58869065  0.13200183  1
  Ta5+  Ta55  1  0.42133992  0.13187628  0.15618018  1
  Ta5+  Ta56  1  0.58384086  0.13578006  0.11842701  1
  Ta5+  Ta57  1  0.35524233  0.62969414  0.63581710  1
  Ta5+  Ta58  1  0.82329762  0.12097874  0.88509259  1
  Ta5+  Ta59  1  0.83994016  0.12805947  0.36599603  1
  Ta5+  Ta60  1  0.86948241  0.92268134  0.12082067  1
  Ta5+  Ta61  1  0.11117917  0.36422921  0.36449367  1
  Ta5+  Ta62  1  0.06025611  0.32443801  0.10637895  1
  Ta5+  Ta63  1  0.10401211  0.60353986  0.62705355  1
  Ta5+  Ta64  1  0.59267199  0.12821436  0.87206874  1
  Ta5+  Ta65  1  0.13801470  0.91290087  0.89262973  1
  Ta5+  Ta66  1  0.62913973  0.63105043  0.12597279  1
  Ta5+  Ta67  1  0.11411731  0.34054889  0.89086075  1
  Ta5+  Ta68  1  0.39482170  0.94320437  0.92200895  1
  Ta5+  Ta69  1  0.37606881  0.58962715  0.88407483  1
  Ta5+  Ta70  1  0.08842538  0.11019888  0.87840417  1
  Ta5+  Ta71  1  0.34536272  0.11081338  0.36883414  1
  Ta5+  Ta72  1  0.86897054  0.37915535  0.35849144  1
  Ta5+  Ta73  1  0.16266567  0.54428017  0.32922203  1
  Ta5+  Ta74  1  0.38590861  0.86639908  0.37466532  1
  W6+  W75  1  0.58968221  0.89254672  0.85610939  1
  W6+  W76  1  0.37249778  0.89924572  0.62337493  1
  W6+  W77  1  0.87891910  0.38750211  0.62710446  1
  W6+  W78  1  0.90717524  0.90770499  0.63005279  1
  W6+  W79  1  0.11063057  0.35077524  0.63209692  1
  W6+  W80  1  0.84126373  0.37659186  0.86897008  1
  W6+  W81  1  0.15584537  0.91195552  0.13772462  1
  W6+  W82  1  0.34529490  0.37498995  0.36720598  1
  O2-  O83  1  0.10525726  0.01856590  0.10080270  1
  O2-  O84  1  0.21494483  0.07401440  0.39244553  1
  O2-  O85  1  0.12713728  -0.00262268  0.62284760  1
  O2-  O86  1  0.02989872  -0.01693080  0.86929455  1
  O2-  O87  1  0.11275076  0.44773598  0.10076743  1
  O2-  O88  1  0.21631357  0.43587292  0.38664665  1
  O2-  O89  1  0.09004927  0.48711897  0.62425158  1
  O2-  O90  1  0.10588573  0.46972157  0.89344919  1
  O2-  O91  1  0.41221890  0.00522847  0.17711538  1
  O2-  O92  1  0.37369127  -0.01023515  0.36929634  1
  O2-  O93  1  0.46092511  -0.00095921  0.63867215  1
  O2-  O94  1  0.34212486  0.04768830  0.89580937  1
  O2-  O95  1  0.40330157  0.47410006  0.15871405  1
  O2-  O96  1  0.37495022  0.50425768  0.38185360  1
  O2-  O97  1  0.36204122  0.50278842  0.63739496  1
  O2-  O98  1  0.42189643  0.48216013  0.84826570  1
  O2-  O99  1  0.59464914  0.01206417  0.08868541  1
  O2-  O100  1  0.58653115  0.01280489  0.37862678  1
  O2-  O101  1  0.62557638  -0.00323287  0.59587492  1
  O2-  O102  1  0.71374064  0.07648610  0.86548329  1
  O2-  O103  1  0.62408722  0.51019515  0.10496116  1
  O2-  O104  1  0.53582488  0.53197948  0.39080110  1
  O2-  O105  1  0.61534386  0.52306401  0.61440957  1
  O2-  O106  1  0.61130754  0.51097409  0.87446455  1
  O2-  O107  1  0.92800481  0.02565144  0.10463988  1
  O2-  O108  1  0.87395976  0.00686320  0.40036187  1
  O2-  O109  1  0.95067826  0.04905596  0.62696194  1
  O2-  O110  1  0.87003799  0.00543460  0.91177639  1
  O2-  O111  1  0.91762564  0.49955966  0.09245668  1
  O2-  O112  1  0.89202514  0.50106478  0.40032208  1
  O2-  O113  1  0.86801500  0.52544897  0.61415299  1
  O2-  O114  1  0.86994193  0.51290355  0.85824018  1
  O2-  O115  1  0.15066525  0.22767303  0.09276144  1
  O2-  O116  1  0.13142828  0.23608833  0.38365139  1
  O2-  O117  1  0.14991037  0.21119868  0.62658571  1
  O2-  O118  1  0.15987623  0.21659187  0.88255447  1
  O2-  O119  1  0.16043750  0.77873121  0.16308089  1
  O2-  O120  1  0.18893090  0.65466939  0.37655077  1
  O2-  O121  1  0.12606778  0.75381439  0.60773873  1
  O2-  O122  1  0.18227210  0.71697234  0.87776406  1
  O2-  O123  1  0.34616934  0.23712699  0.14309644  1
  O2-  O124  1  0.30509065  0.23835078  0.36220812  1
  O2-  O125  1  0.34013084  0.22906112  0.62465249  1
  O2-  O126  1  0.34808359  0.24392136  0.89120258  1
  O2-  O127  1  0.37289067  0.76176539  0.11988614  1
  O2-  O128  1  0.35018793  0.73556006  0.37521281  1
  O2-  O129  1  0.31826582  0.75751731  0.64189026  1
  O2-  O130  1  0.35414905  0.71766097  0.92844167  1
  O2-  O131  1  0.62967541  0.26417947  0.14636072  1
  O2-  O132  1  0.66812881  0.24072088  0.36345796  1
  O2-  O133  1  0.62855873  0.26363382  0.60938051  1
  O2-  O134  1  0.59845463  0.25190265  0.84821876  1
  O2-  O135  1  0.60986092  0.76729375  0.11934734  1
  O2-  O136  1  0.64322935  0.76476274  0.35392129  1
  O2-  O137  1  0.66982083  0.76516115  0.61707363  1
  O2-  O138  1  0.66583490  0.76730338  0.86261935  1
  O2-  O139  1  0.82853970  0.26748759  0.14720246  1
  O2-  O140  1  0.88028812  0.25340027  0.35522511  1
  O2-  O141  1  0.92789720  0.24919461  0.62876147  1
  O2-  O142  1  0.79417068  0.24807646  0.88232034  1
  O2-  O143  1  0.94873875  0.68816639  0.12209247  1
  O2-  O144  1  0.94725877  0.67035848  0.33698494  1
  O2-  O145  1  0.86914002  0.77170720  0.60663203  1
  O2-  O146  1  0.85535909  0.76902970  0.87042176  1
  O2-  O147  1  0.02479148  0.13513834  -0.02190792  1
  O2-  O148  1  0.10248705  0.13429459  0.24069468  1
  O2-  O149  1  0.06098615  0.12260262  0.50029892  1
  O2-  O150  1  0.06450439  0.12243986  0.75468149  1
  O2-  O151  1  0.13148145  0.61825145  0.01497155  1
  O2-  O152  1  0.09230315  0.60736971  0.22111970  1
  O2-  O153  1  0.22554686  0.61513990  0.59300219  1
  O2-  O154  1  0.14086401  0.60678676  0.75415851  1
  O2-  O155  1  0.43617173  0.13764234  0.02618938  1
  O2-  O156  1  0.43803706  0.14828942  0.29288882  1
  O2-  O157  1  0.35655878  0.12179094  0.49489754  1
  O2-  O158  1  0.40064901  0.14107708  0.75362286  1
  O2-  O159  1  0.40064148  0.57068847  0.00499167  1
  O2-  O160  1  0.39414556  0.63105639  0.25345207  1
  O2-  O161  1  0.38235892  0.64094447  0.51057592  1
  O2-  O162  1  0.34331337  0.63925284  0.76414166  1
  O2-  O163  1  0.62323404  0.16214550  -0.00519921  1
  O2-  O164  1  0.63012882  0.12128664  0.23688974  1
  O2-  O165  1  0.66465710  0.13380412  0.49168313  1
  O2-  O166  1  0.59138965  0.12093097  0.73954133  1
  O2-  O167  1  0.63634674  0.65608489  -0.01350103  1
  O2-  O168  1  0.61878656  0.61958431  0.24762815  1
  O2-  O169  1  0.61431878  0.66361894  0.49943114  1
  O2-  O170  1  0.65163211  0.64791674  0.74154788  1
  O2-  O171  1  0.83100935  0.14584556  0.01362889  1
  O2-  O172  1  0.87442849  0.11996523  0.24633353  1
  O2-  O173  1  0.84991213  0.15902411  0.50483423  1
  O2-  O174  1  0.87634861  0.13088046  0.77117404  1
  O2-  O175  1  0.84554697  0.63812748  -0.02032443  1
  O2-  O176  1  0.83266111  0.58485801  0.23680314  1
  O2-  O177  1  0.83655639  0.65913444  0.48300630  1
  O2-  O178  1  0.83834079  0.65516408  0.74109613  1
  O2-  O179  1  0.03074281  0.31998874  -0.02497958  1
  O2-  O180  1  0.10917390  0.33633499  0.24033562  1
  O2-  O181  1  0.08560219  0.34949621  0.49534727  1
  O2-  O182  1  0.10494431  0.33491592  0.76915990  1
  O2-  O183  1  0.14317069  0.86299291  0.00760191  1
  O2-  O184  1  0.07001070  0.81650346  0.35680727  1
  O2-  O185  1  0.17999630  0.87626111  0.48757657  1
  O2-  O186  1  0.17645423  0.86571616  0.78266518  1
  O2-  O187  1  0.40023751  0.36509532  0.01118882  1
  O2-  O188  1  0.42353928  0.34157657  0.27110508  1
  O2-  O189  1  0.32372245  0.35977939  0.50625235  1
  O2-  O190  1  0.38947989  0.33652022  0.75141897  1
  O2-  O191  1  0.41530395  0.90178986  0.03757023  1
  O2-  O192  1  0.32363108  0.85586842  0.25731655  1
  O2-  O193  1  0.35896929  0.85226165  0.49566872  1
  O2-  O194  1  0.44778925  0.86205634  0.84248153  1
  O2-  O195  1  0.61945488  0.36365471  -0.00254107  1
  O2-  O196  1  0.59912085  0.40700094  0.26324284  1
  O2-  O197  1  0.62705925  0.39819560  0.47579338  1
  O2-  O198  1  0.59831111  0.38720363  0.74045319  1
  O2-  O199  1  0.57464104  0.86508885  -0.01089000  1
  O2-  O200  1  0.62843824  0.90711555  0.22936587  1
  O2-  O201  1  0.59685963  0.86046822  0.48719768  1
  O2-  O202  1  0.64779384  0.88886705  0.73065945  1
  O2-  O203  1  0.84218452  0.36755365  -0.00079738  1
  O2-  O204  1  0.91196929  0.39629182  0.24479856  1
  O2-  O205  1  0.86556912  0.35201826  0.49205264  1
  O2-  O206  1  0.88884474  0.37045645  0.75716992  1
  O2-  O207  1  0.89630821  0.86317577  0.00844080  1
  O2-  O208  1  0.92205957  0.86162349  0.21864963  1
  O2-  O209  1  0.86059157  0.81378340  0.39271105  1
  O2-  O210  1  0.86411387  0.90022172  0.76612425  1
  O2-  O211  1  0.02808869  -0.17074380  -0.11514037  1
  O2-  O212  1  0.03753478  -0.00061005  0.36656713  1
  O2-  O213  1  0.00007128  -0.11199989  0.52279666  1
  O2-  O214  1  0.02132820  -0.13634306  0.69200461  1
  O2-  O215  1  0.01074481  0.63811031  -0.12567311  1
  O2-  O216  1  0.05831615  0.48387345  0.35566296  1
  O2-  O217  1  0.00644586  0.63344486  0.53909277  1
  O2-  O218  1  -0.00401696  0.65026310  0.69581145  1
  O2-  O219  1  0.28336875  -0.11703749  -0.08578095  1
  O2-  O220  1  0.18126298  -0.06088908  0.26494106  1
  O2-  O221  1  0.29785692  0.01636918  0.63445968  1
  O2-  O222  1  0.17891843  0.03108338  0.90407283  1
  O2-  O223  1  0.27029858  0.62814866  0.11027532  1
  O2-  O224  1  0.23321550  0.52322270  0.22807375  1
  O2-  O225  1  0.24318856  0.36352942  0.67035707  1
  O2-  O226  1  0.25760446  0.55685925  0.89763697  1
  O2-  O227  1  0.51289061  0.01938396  -0.10962736  1
  O2-  O228  1  0.48383138  -0.14486331  0.29039945  1
  O2-  O229  1  0.50380891  0.15473899  0.59311415  1
  O2-  O230  1  0.49000156  -0.17345367  0.64120364  1
  O2-  O231  1  0.49701141  0.65685891  -0.13269288  1
  O2-  O232  1  0.50239451  0.64199070  0.11023313  1
  O2-  O233  1  0.48629898  0.36833360  0.60663309  1
  O2-  O234  1  0.48325954  0.64518550  0.65130219  1
  O2-  O235  1  0.74779911  -0.11569349  0.07112680  1
  O2-  O236  1  0.79215486  -0.04001766  0.21487402  1
  O2-  O237  1  0.72799998  -0.09336355  0.38157104  1
  O2-  O238  1  0.74561499  0.13654888  0.65014466  1
  O2-  O239  1  0.75069008  0.66730359  0.11240235  1
  O2-  O240  1  0.75106818  0.40031785  0.34599136  1
  O2-  O241  1  0.71208651  0.56724695  0.38118984  1
  O2-  O242  1  0.74267300  0.38688161  0.61297651  1
