# generated using pymatgen
data_Gd19Ta56(WO20)8
_symmetry_space_group_name_H-M   'P 1'
_cell_length_a   15.55271227
_cell_length_b   15.48436167
_cell_length_c   15.08700205
_cell_angle_alpha   90.40765158
_cell_angle_beta   90.22882631
_cell_angle_gamma   89.45027152
_symmetry_Int_Tables_number   1
_chemical_formula_structural   Gd19Ta56(WO20)8
_chemical_formula_sum   'Gd19 Ta56 W8 O160'
_cell_volume   3633.02230625
_cell_formula_units_Z   1
loop_
 _symmetry_equiv_pos_site_id
 _symmetry_equiv_pos_as_xyz
  1  'x, y, z'
loop_
 _atom_type_symbol
 _atom_type_oxidation_number
  Gd3+  3.0
  Ta5+  5.0
  W6+  6.0
  O2-  -2.0
loop_
 _atom_site_type_symbol
 _atom_site_label
 _atom_site_symmetry_multiplicity
 _atom_site_fract_x
 _atom_site_fract_y
 _atom_site_fract_z
 _atom_site_occupancy
  Gd3+  Gd0  1  0.24633944  0.76260923  0.75342392  1
  Gd3+  Gd1  1  0.53091534  0.75478602  0.01064628  1
  Gd3+  Gd2  1  0.48604682  0.76242446  0.76612233  1
  Gd3+  Gd3  1  0.76138876  0.23985824  0.52216950  1
  Gd3+  Gd4  1  0.50853498  0.25962369  0.75270303  1
  Gd3+  Gd5  1  0.00064666  0.75651224  0.78913445  1
  Gd3+  Gd6  1  0.21714761  0.74882700  0.00148230  1
  Gd3+  Gd7  1  0.25965012  0.23442460  0.24198050  1
  Gd3+  Gd8  1  0.01179433  0.25370392  0.51055567  1
  Gd3+  Gd9  1  0.51007089  0.26995484  0.51128260  1
  Gd3+  Gd10  1  0.26701409  0.20300135  0.75351833  1
  Gd3+  Gd11  1  0.01642568  0.24144850  0.74743494  1
  Gd3+  Gd12  1  0.25109112  0.24965335  0.49738429  1
  Gd3+  Gd13  1  0.19189529  0.24305790  -0.00081554  1
  Gd3+  Gd14  1  0.01140701  0.25000198  0.23458230  1
  Gd3+  Gd15  1  0.76797494  0.77456489  0.75011810  1
  Gd3+  Gd16  1  0.22202130  0.71539665  0.49913437  1
  Gd3+  Gd17  1  -0.03064071  0.75180383  0.23891558  1
  Gd3+  Gd18  1  0.52357411  0.26745412  0.01868361  1
  Ta5+  Ta19  1  0.86540191  0.62326439  0.37202919  1
  Ta5+  Ta20  1  0.03673092  0.61432503  0.08892606  1
  Ta5+  Ta21  1  0.62794284  0.11828646  0.38909794  1
  Ta5+  Ta22  1  0.90954259  0.86694434  0.61889518  1
  Ta5+  Ta23  1  0.66522117  0.88359721  0.13436481  1
  Ta5+  Ta24  1  0.37246047  0.86608731  0.14465800  1
  Ta5+  Ta25  1  0.56661122  0.93913578  0.89294623  1
  Ta5+  Ta26  1  0.13682483  0.39353658  0.12240981  1
  Ta5+  Ta27  1  0.64457378  0.12683041  0.88864718  1
  Ta5+  Ta28  1  0.35907667  0.37005251  0.90551882  1
  Ta5+  Ta29  1  0.32435132  0.59281259  0.88108288  1
  Ta5+  Ta30  1  0.88781283  0.09859388  0.61986788  1
  Ta5+  Ta31  1  0.89306873  0.38464544  0.09018649  1
  Ta5+  Ta32  1  0.17541309  0.39621683  0.81788116  1
  Ta5+  Ta33  1  0.63928840  0.39268664  0.88926313  1
  Ta5+  Ta34  1  0.90159169  0.63413394  0.62438149  1
  Ta5+  Ta35  1  0.13683105  0.08919674  0.13638000  1
  Ta5+  Ta36  1  0.87515766  0.12615039  0.36518536  1
  Ta5+  Ta37  1  0.11023706  0.58418653  0.88093910  1
  Ta5+  Ta38  1  0.58807489  0.88742944  0.61861938  1
  Ta5+  Ta39  1  0.13353715  0.38052691  0.36515544  1
  Ta5+  Ta40  1  0.09215313  0.86259054  0.61078476  1
  Ta5+  Ta41  1  0.40814319  0.61666394  0.59123218  1
  Ta5+  Ta42  1  0.09393834  0.45952411  0.59004347  1
  Ta5+  Ta43  1  0.69752219  0.88311415  0.38679738  1
  Ta5+  Ta44  1  0.37574320  0.07600330  0.11342338  1
  Ta5+  Ta45  1  0.65955953  0.38869977  0.15299286  1
  Ta5+  Ta46  1  0.69922481  0.63409772  0.40166222  1
  Ta5+  Ta47  1  0.86219923  0.37252788  0.84676046  1
  Ta5+  Ta48  1  0.66460258  0.38587996  0.64966649  1
  Ta5+  Ta49  1  0.64463470  0.11393256  0.64752230  1
  Ta5+  Ta50  1  0.88357437  0.37891180  0.35271783  1
  Ta5+  Ta51  1  0.38828370  0.06749324  0.61330130  1
  Ta5+  Ta52  1  0.33129235  0.92482780  0.90904416  1
  Ta5+  Ta53  1  0.05387208  0.87019231  0.09365010  1
  Ta5+  Ta54  1  0.37833719  0.43271225  0.14680823  1
  Ta5+  Ta55  1  0.27995977  0.86280084  0.36174292  1
  Ta5+  Ta56  1  0.06992882  0.61798944  0.35665701  1
  Ta5+  Ta57  1  0.06679386  0.64847917  0.61567235  1
  Ta5+  Ta58  1  0.06770227  0.92326669  0.88466414  1
  Ta5+  Ta59  1  0.37107029  0.86085181  0.60223617  1
  Ta5+  Ta60  1  0.11417033  0.10326866  0.35225037  1
  Ta5+  Ta61  1  0.86993083  0.13652342  0.11225306  1
  Ta5+  Ta62  1  0.13565338  0.10000240  0.60944008  1
  Ta5+  Ta63  1  0.63154364  0.63559236  0.16107266  1
  Ta5+  Ta64  1  0.89139848  0.87827493  0.90672838  1
  Ta5+  Ta65  1  0.38614129  0.08959997  0.36606637  1
  Ta5+  Ta66  1  0.88553067  0.11454141  0.87104180  1
  Ta5+  Ta67  1  0.13767347  0.06963857  0.87968750  1
  Ta5+  Ta68  1  0.64034927  0.63163518  0.64984017  1
  Ta5+  Ta69  1  0.39485420  0.38740977  0.34384882  1
  Ta5+  Ta70  1  0.34611214  0.62276419  0.34524336  1
  Ta5+  Ta71  1  0.88135501  0.88511528  0.10695679  1
  Ta5+  Ta72  1  0.87368132  0.39854389  0.63263218  1
  Ta5+  Ta73  1  0.11156569  0.86271758  0.35388709  1
  Ta5+  Ta74  1  0.86508345  0.62651418  0.11050585  1
  W6+  W75  1  0.67825329  0.64052637  0.90864091  1
  W6+  W76  1  0.39101000  0.42886258  0.57853181  1
  W6+  W77  1  0.63226972  0.13449572  0.14629668  1
  W6+  W78  1  0.86064752  0.87775225  0.36899620  1
  W6+  W79  1  0.63926059  0.39122165  0.39934083  1
  W6+  W80  1  0.87536888  0.62065833  0.88874525  1
  W6+  W81  1  0.37870803  0.62601243  0.13785639  1
  W6+  W82  1  0.38829489  0.11425326  0.91090826  1
  O2-  O83  1  0.13193867  -0.02749464  0.11139564  1
  O2-  O84  1  0.08919823  -0.01037472  0.37738822  1
  O2-  O85  1  0.14535270  -0.01884603  0.59873245  1
  O2-  O86  1  0.20472041  -0.03029196  0.91000624  1
  O2-  O87  1  0.10615274  0.50470531  0.10242722  1
  O2-  O88  1  0.11926458  0.50063975  0.36977215  1
  O2-  O89  1  0.17077590  0.55025749  0.58307433  1
  O2-  O90  1  0.08208692  0.46182154  0.86992445  1
  O2-  O91  1  0.43881439  -0.03106521  0.14966273  1
  O2-  O92  1  0.32946015  -0.01260079  0.37956125  1
  O2-  O93  1  0.31194927  -0.02640272  0.61518396  1
  O2-  O94  1  0.35421331  0.00795108  0.82230142  1
  O2-  O95  1  0.29726730  0.51843736  0.17519547  1
  O2-  O96  1  0.34473957  0.49932813  0.37204100  1
  O2-  O97  1  0.35279991  0.54157911  0.66382007  1
  O2-  O98  1  0.39567281  0.48388389  0.88002765  1
  O2-  O99  1  0.64641826  0.00037462  0.13101233  1
  O2-  O100  1  0.68915345  0.01771369  0.41309745  1
  O2-  O101  1  0.64896314  -0.00722986  0.65483272  1
  O2-  O102  1  0.51612771  0.05152434  0.90147689  1
  O2-  O103  1  0.62626519  0.50575896  0.15903309  1
  O2-  O104  1  0.66196830  0.51931988  0.40118689  1
  O2-  O105  1  0.65051320  0.51025376  0.65313998  1
  O2-  O106  1  0.65037922  0.50925567  0.88352523  1
  O2-  O107  1  0.87949692  0.01735038  0.12396459  1
  O2-  O108  1  0.86999149  0.01160194  0.34414043  1
  O2-  O109  1  0.85056398  -0.01340018  0.63098906  1
  O2-  O110  1  0.85522871  -0.00081888  0.87217886  1
  O2-  O111  1  0.92749650  0.50433879  0.09998278  1
  O2-  O112  1  0.86756880  0.49038817  0.38903033  1
  O2-  O113  1  0.85022242  0.51413669  0.64191858  1
  O2-  O114  1  0.85970293  0.49152926  0.84747711  1
  O2-  O115  1  0.13512641  0.23002895  0.15178007  1
  O2-  O116  1  0.13515729  0.24106966  0.34353927  1
  O2-  O117  1  0.11006374  0.23176770  0.62227287  1
  O2-  O118  1  0.13391116  0.27973695  0.83221435  1
  O2-  O119  1  0.05950546  0.73683585  0.10106636  1
  O2-  O120  1  0.09501491  0.73758022  0.33232047  1
  O2-  O121  1  0.15575294  0.74861164  0.63243867  1
  O2-  O122  1  0.21575597  0.66801427  0.86499014  1
  O2-  O123  1  0.25507860  0.35755308  0.12775208  1
  O2-  O124  1  0.30782646  0.18429675  0.38071226  1
  O2-  O125  1  0.44385620  0.31928154  0.63406755  1
  O2-  O126  1  0.41570500  0.25971264  0.87438541  1
  O2-  O127  1  0.42713532  0.75857989  0.11969132  1
  O2-  O128  1  0.28022107  0.73179776  0.34451277  1
  O2-  O129  1  0.33302836  0.72770763  0.61931001  1
  O2-  O130  1  0.28358342  0.81445111  0.88555690  1
  O2-  O131  1  0.59995146  0.27796468  0.14690134  1
  O2-  O132  1  0.64571175  0.24204288  0.42563794  1
  O2-  O133  1  0.63479643  0.25628516  0.64303551  1
  O2-  O134  1  0.59554075  0.25914644  0.88175305  1
  O2-  O135  1  0.61184960  0.76616471  0.14365231  1
  O2-  O136  1  0.69879422  0.76473824  0.40381558  1
  O2-  O137  1  0.64461188  0.78220222  0.66124476  1
  O2-  O138  1  0.56874970  0.71494784  0.87308690  1
  O2-  O139  1  0.92878727  0.26295223  0.10980058  1
  O2-  O140  1  0.99406691  0.15454789  0.38918059  1
  O2-  O141  1  0.89739931  0.24712641  0.60551018  1
  O2-  O142  1  0.91160593  0.24813943  0.84955027  1
  O2-  O143  1  0.86945998  0.74793390  0.10754104  1
  O2-  O144  1  0.88654728  0.74649870  0.36477531  1
  O2-  O145  1  0.84434657  0.75532957  0.62419688  1
  O2-  O146  1  0.91088088  0.75134184  0.91110903  1
  O2-  O147  1  0.11921103  0.11644771  0.00637844  1
  O2-  O148  1  0.20285050  0.08993152  0.26295820  1
  O2-  O149  1  0.15148507  0.13143510  0.47705094  1
  O2-  O150  1  0.14524041  0.10963078  0.74543357  1
  O2-  O151  1  0.14537504  0.62126955  0.00058228  1
  O2-  O152  1  0.04488285  0.60987960  0.22583779  1
  O2-  O153  1  0.07957392  0.65232786  0.48285419  1
  O2-  O154  1  0.08451069  0.63302740  0.76579760  1
  O2-  O155  1  0.42563658  0.16496826  0.04823096  1
  O2-  O156  1  0.38227004  0.11368488  0.24027624  1
  O2-  O157  1  0.40787389  0.12166853  0.50286407  1
  O2-  O158  1  0.40915840  0.14666747  0.70733268  1
  O2-  O159  1  0.33414883  0.63923459  -0.00506175  1
  O2-  O160  1  0.43220674  0.64169978  0.26746985  1
  O2-  O161  1  0.35503027  0.64729547  0.47515476  1
  O2-  O162  1  0.38060784  0.66767190  0.80574112  1
  O2-  O163  1  0.61394828  0.14547363  0.00732691  1
  O2-  O164  1  0.67167372  0.13828097  0.27894183  1
  O2-  O165  1  0.59192032  0.12477892  0.53473723  1
  O2-  O166  1  0.59322673  0.13257738  0.76256953  1
  O2-  O167  1  0.61703479  0.63680604  0.03038532  1
  O2-  O168  1  0.68124780  0.64831693  0.27148038  1
  O2-  O169  1  0.68066804  0.64737489  0.53713052  1
  O2-  O170  1  0.70208854  0.64620781  0.75889642  1
  O2-  O171  1  0.91187102  0.13553316  -0.00811792  1
  O2-  O172  1  0.88044850  0.16842959  0.24402951  1
  O2-  O173  1  0.84535384  0.11910554  0.49232587  1
  O2-  O174  1  0.92120419  0.12254099  0.74054967  1
  O2-  O175  1  0.79788925  0.60276351  -0.00481340  1
  O2-  O176  1  0.86270196  0.61810443  0.23601724  1
  O2-  O177  1  0.88983243  0.62785105  0.50119369  1
  O2-  O178  1  0.88869122  0.66204276  0.76007348  1
  O2-  O179  1  0.08451755  0.33797114  0.02842927  1
  O2-  O180  1  0.08981194  0.37915865  0.23886973  1
  O2-  O181  1  0.14182447  0.36242165  0.49744676  1
  O2-  O182  1  0.13498021  0.40681975  0.69759871  1
  O2-  O183  1  0.10889790  0.84203884  -0.02242465  1
  O2-  O184  1  0.06392440  0.87027414  0.22907656  1
  O2-  O185  1  0.10759796  0.83930699  0.48596228  1
  O2-  O186  1  0.11926394  0.85038042  0.78245424  1
  O2-  O187  1  0.40022161  0.35702678  0.02652793  1
  O2-  O188  1  0.37981284  0.31557454  0.23766657  1
  O2-  O189  1  0.50792416  0.35112964  0.38271303  1
  O2-  O190  1  0.29481643  0.34730762  0.78514115  1
  O2-  O191  1  0.30355246  0.86858664  0.04333244  1
  O2-  O192  1  0.28939548  0.88062208  0.23056529  1
  O2-  O193  1  0.30925139  0.83978367  0.49207649  1
  O2-  O194  1  0.36549486  0.84771543  0.72971647  1
  O2-  O195  1  0.60762624  0.38769584  0.01248862  1
  O2-  O196  1  0.69135404  0.37567126  0.27020990  1
  O2-  O197  1  0.59962409  0.38343896  0.53905428  1
  O2-  O198  1  0.59626565  0.38216572  0.76111879  1
  O2-  O199  1  0.61093295  0.87918423  -0.00023467  1
  O2-  O200  1  0.68234003  0.88397349  0.26210848  1
  O2-  O201  1  0.62121453  0.89040139  0.50327297  1
  O2-  O202  1  0.55887459  0.89378368  0.77506211  1
  O2-  O203  1  0.90747472  0.37639791  -0.03176480  1
  O2-  O204  1  0.90011738  0.37829737  0.23122341  1
  O2-  O205  1  0.84475531  0.26540689  0.39879066  1
  O2-  O206  1  0.94466891  0.37055861  0.73963740  1
  O2-  O207  1  0.80879978  0.88216680  0.00108991  1
  O2-  O208  1  0.87356972  0.86921836  0.23269973  1
  O2-  O209  1  0.90150085  0.87684339  0.49709095  1
  O2-  O210  1  0.88663444  0.85527596  0.76937330  1
  O2-  O211  1  0.01472384  0.05466798  -0.13216675  1
  O2-  O212  1  0.04624996  0.10455048  0.22857858  1
  O2-  O213  1  0.00812907  0.10214445  0.58328600  1
  O2-  O214  1  0.00449127  -0.06926546  0.66899617  1
  O2-  O215  1  0.00043665  0.60114157  -0.05343155  1
  O2-  O216  1  0.00234648  0.34424673  0.38188286  1
  O2-  O217  1  -0.02095521  0.39179645  0.55984823  1
  O2-  O218  1  0.00727863  0.53520446  0.64126390  1
  O2-  O219  1  0.35112141  0.01466393  0.00205203  1
  O2-  O220  1  0.26097849  0.13203711  0.10753516  1
  O2-  O221  1  0.26433471  0.14234542  0.61050645  1
  O2-  O222  1  0.25519022  0.15486764  0.89214650  1
  O2-  O223  1  0.24179023  0.37484801  -0.05815359  1
  O2-  O224  1  0.25303290  0.35988719  0.34437186  1
  O2-  O225  1  0.37266338  0.33211964  0.47005675  1
  O2-  O226  1  0.23060138  0.51494267  0.83780527  1
  O2-  O227  1  0.45163048  -0.12539240  -0.07986645  1
  O2-  O228  1  0.51143828  0.08794143  0.36572892  1
  O2-  O229  1  0.47414133  -0.02599801  0.61339198  1
  O2-  O230  1  0.48636191  -0.18919275  0.60381447  1
  O2-  O231  1  0.43660419  0.51472911  0.07973242  1
  O2-  O232  1  0.45290319  0.45155144  0.24748323  1
  O2-  O233  1  0.46656841  0.52873731  0.52929868  1
  O2-  O234  1  0.51538098  0.64981192  0.66106479  1
  O2-  O235  1  0.67024158  0.00470963  -0.12257928  1
  O2-  O236  1  0.75792555  0.16422457  0.10073575  1
  O2-  O237  1  0.76240727  0.14001441  0.64475533  1
  O2-  O238  1  0.76195270  0.15242275  0.87259492  1
  O2-  O239  1  0.75052891  0.34691095  -0.10514597  1
  O2-  O240  1  0.77140272  0.38359863  0.09856257  1
  O2-  O241  1  0.76948552  0.37873138  0.55748518  1
  O2-  O242  1  0.77698060  0.36513304  0.72241972  1
