# generated using pymatgen
data_Gd19Ta56(WO20)8
_symmetry_space_group_name_H-M   'P 1'
_cell_length_a   15.55429960
_cell_length_b   15.50559319
_cell_length_c   15.11365385
_cell_angle_alpha   90.03698911
_cell_angle_beta   90.30533899
_cell_angle_gamma   90.31957529
_symmetry_Int_Tables_number   1
_chemical_formula_structural   Gd19Ta56(WO20)8
_chemical_formula_sum   'Gd19 Ta56 W8 O160'
_cell_volume   3644.98122011
_cell_formula_units_Z   1
loop_
 _symmetry_equiv_pos_site_id
 _symmetry_equiv_pos_as_xyz
  1  'x, y, z'
loop_
 _atom_type_symbol
 _atom_type_oxidation_number
  Gd3+  3.0
  Ta5+  5.0
  W6+  6.0
  O2-  -2.0
loop_
 _atom_site_type_symbol
 _atom_site_label
 _atom_site_symmetry_multiplicity
 _atom_site_fract_x
 _atom_site_fract_y
 _atom_site_fract_z
 _atom_site_occupancy
  Gd3+  Gd0  1  0.74758876  0.25118668  0.51202595  1
  Gd3+  Gd1  1  0.23209187  0.74360777  0.53155146  1
  Gd3+  Gd2  1  0.54202153  0.73758898  0.51323867  1
  Gd3+  Gd3  1  -0.02869080  0.75172432  -0.04217814  1
  Gd3+  Gd4  1  -0.00780483  0.74880732  0.22382454  1
  Gd3+  Gd5  1  0.23728717  0.25741062  -0.01545426  1
  Gd3+  Gd6  1  0.24033827  0.75193466  0.25800420  1
  Gd3+  Gd7  1  0.77554726  0.74634160  0.51201284  1
  Gd3+  Gd8  1  0.25533991  0.24824185  0.50596586  1
  Gd3+  Gd9  1  0.75088355  0.25983445  -0.00779753  1
  Gd3+  Gd10  1  0.44549504  0.23877463  0.25936138  1
  Gd3+  Gd11  1  0.22483461  0.24087129  0.26625094  1
  Gd3+  Gd12  1  0.51190148  0.26723351  0.48836766  1
  Gd3+  Gd13  1  0.52057011  0.77260599  0.74500270  1
  Gd3+  Gd14  1  0.28517023  0.74598028  -0.01014725  1
  Gd3+  Gd15  1  0.50398072  0.75650637  0.25489161  1
  Gd3+  Gd16  1  0.73017417  0.26055826  0.24517291  1
  Gd3+  Gd17  1  0.03267179  0.25241298  0.52579329  1
  Gd3+  Gd18  1  -0.01152232  0.23030764  -0.01305214  1
  Ta5+  Ta19  1  0.86788612  0.12342143  0.12521219  1
  Ta5+  Ta20  1  0.62971150  0.87002094  0.11120906  1
  Ta5+  Ta21  1  0.66979592  0.87653838  0.86465072  1
  Ta5+  Ta22  1  0.89735828  0.37815574  0.85518574  1
  Ta5+  Ta23  1  0.08375380  0.10902856  0.38038142  1
  Ta5+  Ta24  1  0.64147402  0.59121847  0.37044011  1
  Ta5+  Ta25  1  0.88078860  0.38378158  0.37805967  1
  Ta5+  Ta26  1  0.09567185  0.62712612  0.64593595  1
  Ta5+  Ta27  1  0.67423097  0.61698937  0.64707162  1
  Ta5+  Ta28  1  0.61257106  0.12010377  0.10681223  1
  Ta5+  Ta29  1  0.37571305  0.60103960  0.63880425  1
  Ta5+  Ta30  1  0.59469162  0.38173295  0.10094950  1
  Ta5+  Ta31  1  0.35754162  0.61433088  0.12938649  1
  Ta5+  Ta32  1  0.14650734  0.61502569  0.12065164  1
  Ta5+  Ta33  1  0.38440366  0.12881814  0.88879236  1
  Ta5+  Ta34  1  0.06818771  0.37661266  0.87039684  1
  Ta5+  Ta35  1  0.12374028  0.61323196  0.89857949  1
  Ta5+  Ta36  1  0.62897864  0.91245218  0.36902873  1
  Ta5+  Ta37  1  0.83439947  0.61712729  0.84739518  1
  Ta5+  Ta38  1  0.39764851  0.88401328  0.88525151  1
  Ta5+  Ta39  1  0.58284159  0.11271666  0.62726270  1
  Ta5+  Ta40  1  0.63561899  0.37475769  0.85659503  1
  Ta5+  Ta41  1  0.09583080  0.62953232  0.38504830  1
  Ta5+  Ta42  1  0.92768441  0.63157777  0.62550411  1
  Ta5+  Ta43  1  0.86378196  0.61681470  0.10350333  1
  Ta5+  Ta44  1  0.40812775  0.91844820  0.62471345  1
  Ta5+  Ta45  1  0.87639000  0.12441772  0.37508986  1
  Ta5+  Ta46  1  0.61539456  0.62465933  0.85592714  1
  Ta5+  Ta47  1  0.89854929  0.38828151  0.60445749  1
  Ta5+  Ta48  1  0.37886304  0.11213482  0.64102897  1
  Ta5+  Ta49  1  0.90595202  0.87409821  0.62419611  1
  Ta5+  Ta50  1  0.44734865  0.62696381  0.88631483  1
  Ta5+  Ta51  1  0.11690843  0.12504312  0.85876670  1
  Ta5+  Ta52  1  0.13974204  0.38792116  0.64072835  1
  Ta5+  Ta53  1  0.35136640  0.88519113  0.13539283  1
  Ta5+  Ta54  1  0.67156923  0.11126727  0.86569393  1
  Ta5+  Ta55  1  0.37860037  0.36679084  0.64532326  1
  Ta5+  Ta56  1  0.87789741  0.62905782  0.36775696  1
  Ta5+  Ta57  1  0.41083279  0.06084671  0.43811026  1
  Ta5+  Ta58  1  0.40906873  0.61960597  0.38073005  1
  Ta5+  Ta59  1  0.40930802  0.38034502  0.89380898  1
  Ta5+  Ta60  1  0.37096653  0.12215594  0.09972874  1
  Ta5+  Ta61  1  0.83672496  0.88365511  0.85806763  1
  Ta5+  Ta62  1  0.38422950  0.37365245  0.10532156  1
  Ta5+  Ta63  1  0.12919823  0.11292390  0.64050938  1
  Ta5+  Ta64  1  0.83988222  0.12429965  0.85165298  1
  Ta5+  Ta65  1  0.60573789  0.11396358  0.35904903  1
  Ta5+  Ta66  1  0.86819545  0.87829271  0.36042154  1
  Ta5+  Ta67  1  0.88450300  0.37323576  0.12607559  1
  Ta5+  Ta68  1  0.14687737  0.87653184  0.88780812  1
  Ta5+  Ta69  1  0.38862985  0.87087809  0.40049208  1
  Ta5+  Ta70  1  0.09109547  0.38365845  0.37626761  1
  Ta5+  Ta71  1  0.62084578  0.62542867  0.11043834  1
  Ta5+  Ta72  1  0.85883251  0.87910023  0.11001674  1
  Ta5+  Ta73  1  0.89348955  0.11625099  0.60312924  1
  Ta5+  Ta74  1  0.65506801  0.89118030  0.61715587  1
  W6+  W75  1  0.12509785  0.37251943  0.12613087  1
  W6+  W76  1  0.14003938  0.87932774  0.12388431  1
  W6+  W77  1  0.11388572  0.86211460  0.39107336  1
  W6+  W78  1  0.62246929  0.39283819  0.35197602  1
  W6+  W79  1  0.63480609  0.37429048  0.62602084  1
  W6+  W80  1  0.09295318  0.86387403  0.65031673  1
  W6+  W81  1  0.35484336  0.38440042  0.37389285  1
  W6+  W82  1  0.12286422  0.11401387  0.12746800  1
  O2-  O83  1  0.08530972  -0.00934482  0.12681854  1
  O2-  O84  1  0.07593749  -0.00799696  0.38997830  1
  O2-  O85  1  0.11085060  -0.00301393  0.64826780  1
  O2-  O86  1  0.13842478  -0.00176454  0.87904261  1
  O2-  O87  1  0.10227633  0.50408319  0.12666629  1
  O2-  O88  1  0.08884799  0.50568113  0.37705225  1
  O2-  O89  1  0.11733121  0.50510788  0.62412021  1
  O2-  O90  1  0.10199503  0.49329840  0.91047676  1
  O2-  O91  1  0.38968980  -0.00081569  0.12339875  1
  O2-  O92  1  0.33535503  -0.01924396  0.37541709  1
  O2-  O93  1  0.31580702  0.00065606  0.63829934  1
  O2-  O94  1  0.41611716  0.00275396  0.89436198  1
  O2-  O95  1  0.38476475  0.49697992  0.12348115  1
  O2-  O96  1  0.34868006  0.51908030  0.38576936  1
  O2-  O97  1  0.41942097  0.48892781  0.63826130  1
  O2-  O98  1  0.42595068  0.50480773  0.88885138  1
  O2-  O99  1  0.60727153  -0.01064840  0.11190670  1
  O2-  O100  1  0.53438432  0.00586937  0.36239801  1
  O2-  O101  1  0.63699757  0.00862906  0.57978295  1
  O2-  O102  1  0.64068960  -0.00528745  0.88701228  1
  O2-  O103  1  0.58443134  0.50832851  0.10822722  1
  O2-  O104  1  0.54834310  0.51028663  0.37871418  1
  O2-  O105  1  0.68035035  0.50127917  0.62408734  1
  O2-  O106  1  0.62649280  0.49692161  0.85545077  1
  O2-  O107  1  0.85109870  0.00238131  0.11439276  1
  O2-  O108  1  0.87788915  0.00106662  0.36775175  1
  O2-  O109  1  0.92091432  -0.00115899  0.59463046  1
  O2-  O110  1  0.86007432  0.00599722  0.87465436  1
  O2-  O111  1  0.87882996  0.49535436  0.11179512  1
  O2-  O112  1  0.88965667  0.50522394  0.36896874  1
  O2-  O113  1  0.91548778  0.50727563  0.60093884  1
  O2-  O114  1  0.84506047  0.49490622  0.86578912  1
  O2-  O115  1  0.17513105  0.24317509  0.12461431  1
  O2-  O116  1  0.11971778  0.24469135  0.38967332  1
  O2-  O117  1  0.15513067  0.25205664  0.61972682  1
  O2-  O118  1  0.06583684  0.23938124  0.84707074  1
  O2-  O119  1  0.17091722  0.74448990  0.11630638  1
  O2-  O120  1  0.17378908  0.73421398  0.38858541  1
  O2-  O121  1  0.14531992  0.74218103  0.65237237  1
  O2-  O122  1  0.16761431  0.73636100  0.90301345  1
  O2-  O123  1  0.35688998  0.25067385  0.08316005  1
  O2-  O124  1  0.32740442  0.25120689  0.37348669  1
  O2-  O125  1  0.35369580  0.23873080  0.62799579  1
  O2-  O126  1  0.37693091  0.25080675  0.90307072  1
  O2-  O127  1  0.34990641  0.74942372  0.14072949  1
  O2-  O128  1  0.35780029  0.74040150  0.37342845  1
  O2-  O129  1  0.52157977  0.85032029  0.60995098  1
  O2-  O130  1  0.43829197  0.76135506  0.87370688  1
  O2-  O131  1  0.63863238  0.25249582  0.10727377  1
  O2-  O132  1  0.59491529  0.25195839  0.32904624  1
  O2-  O133  1  0.59224892  0.23895391  0.61900305  1
  O2-  O134  1  0.65944449  0.24208789  0.87596771  1
  O2-  O135  1  0.57733636  0.74839268  0.12530761  1
  O2-  O136  1  0.51062943  0.83888494  0.39826744  1
  O2-  O137  1  0.66539394  0.75118103  0.62356550  1
  O2-  O138  1  0.63228192  0.75302793  0.84052264  1
  O2-  O139  1  0.82450658  0.25207057  0.12859124  1
  O2-  O140  1  0.82850632  0.25032714  0.38063474  1
  O2-  O141  1  0.88386249  0.25043064  0.58260203  1
  O2-  O142  1  0.87659696  0.24959886  0.85724950  1
  O2-  O143  1  0.90517907  0.74815741  0.09956848  1
  O2-  O144  1  0.91473832  0.75547547  0.34988823  1
  O2-  O145  1  0.87788794  0.74973714  0.62778720  1
  O2-  O146  1  0.84898088  0.74884076  0.86218458  1
  O2-  O147  1  0.11490726  0.14581160  -0.01199037  1
  O2-  O148  1  0.15033054  0.11271347  0.27385461  1
  O2-  O149  1  0.14134739  0.12554141  0.50669906  1
  O2-  O150  1  0.18512622  0.13270096  0.75272030  1
  O2-  O151  1  0.06631191  0.64383905  0.01691487  1
  O2-  O152  1  0.09420922  0.64414294  0.24779047  1
  O2-  O153  1  0.10037838  0.63920258  0.50944248  1
  O2-  O154  1  0.10074713  0.61851740  0.77860590  1
  O2-  O155  1  0.30203779  0.11032976  -0.00774288  1
  O2-  O156  1  0.33671621  0.14652272  0.21935313  1
  O2-  O157  1  0.47524565  0.13327283  0.54618892  1
  O2-  O158  1  0.37926516  0.12990567  0.76515238  1
  O2-  O159  1  0.41136968  0.64603259  0.01522224  1
  O2-  O160  1  0.42301370  0.62732146  0.24517894  1
  O2-  O161  1  0.41952298  0.63919657  0.51869403  1
  O2-  O162  1  0.40147677  0.64104682  0.75401235  1
  O2-  O163  1  0.68064691  0.12014413  0.00412505  1
  O2-  O164  1  0.64406060  0.12182113  0.23550507  1
  O2-  O165  1  0.63149805  0.15608869  0.47578761  1
  O2-  O166  1  0.62650966  0.10999303  0.74123728  1
  O2-  O167  1  0.60769222  0.63703688  -0.01328697  1
  O2-  O168  1  0.62565122  0.62779281  0.24752092  1
  O2-  O169  1  0.64746561  0.63216528  0.50302104  1
  O2-  O170  1  0.57279181  0.62990869  0.71614429  1
  O2-  O171  1  0.85858952  0.14424187  -0.00571188  1
  O2-  O172  1  0.82647984  0.13153214  0.25027857  1
  O2-  O173  1  0.81254470  0.11776189  0.49848286  1
  O2-  O174  1  0.84474376  0.11923697  0.71567512  1
  O2-  O175  1  0.88475712  0.62652976  -0.02240413  1
  O2-  O176  1  0.89080592  0.63038701  0.23012980  1
  O2-  O177  1  0.88996484  0.64461443  0.49301268  1
  O2-  O178  1  0.91220714  0.61951577  0.75341066  1
  O2-  O179  1  0.10236016  0.33618664  -0.00811910  1
  O2-  O180  1  0.15589665  0.37477221  0.26978453  1
  O2-  O181  1  0.14680538  0.36977637  0.49350311  1
  O2-  O182  1  0.13758222  0.38452252  0.76364011  1
  O2-  O183  1  0.07490621  0.85829136  -0.01148459  1
  O2-  O184  1  0.10217172  0.83759064  0.25054657  1
  O2-  O185  1  0.14725251  0.85693527  0.52461837  1
  O2-  O186  1  0.08240829  0.85153132  0.78952076  1
  O2-  O187  1  0.31625910  0.38847620  -0.01055745  1
  O2-  O188  1  0.33825286  0.35202806  0.22692392  1
  O2-  O189  1  0.39877854  0.35809923  0.51135673  1
  O2-  O190  1  0.36711571  0.37180375  0.77193799  1
  O2-  O191  1  0.40316522  0.85810259  0.01207424  1
  O2-  O192  1  0.40910014  0.86614159  0.25612972  1
  O2-  O193  1  0.35305162  0.83774462  0.52840724  1
  O2-  O194  1  0.41057720  0.87896488  0.74626659  1
  O2-  O195  1  0.66517326  0.38248848  -0.00883980  1
  O2-  O196  1  0.65879833  0.38890066  0.20963029  1
  O2-  O197  1  0.62689077  0.35486636  0.48849894  1
  O2-  O198  1  0.68823545  0.36177189  0.74830393  1
  O2-  O199  1  0.65222691  0.85006901  -0.00670540  1
  O2-  O200  1  0.60585458  0.86833864  0.25284062  1
  O2-  O201  1  0.65227716  0.84924672  0.48054180  1
  O2-  O202  1  0.62696988  0.89393355  0.73841948  1
  O2-  O203  1  0.87402643  0.35549495  -0.00530621  1
  O2-  O204  1  0.83659398  0.37235931  0.24981499  1
  O2-  O205  1  0.81638584  0.38375762  0.49573974  1
  O2-  O206  1  0.87317983  0.37940206  0.72482421  1
  O2-  O207  1  0.88291334  0.87155420  -0.01252983  1
  O2-  O208  1  0.90959641  0.87716917  0.23067954  1
  O2-  O209  1  0.87648668  0.85725478  0.48421688  1
  O2-  O210  1  0.89162628  0.88791887  0.74508028  1
  O2-  O211  1  -0.01495349  0.14701671  0.11782909  1
  O2-  O212  1  -0.01728748  0.14443064  0.31264215  1
  O2-  O213  1  -0.02925178  0.12980819  0.47094118  1
  O2-  O214  1  0.01184022  0.15100476  0.64568177  1
  O2-  O215  1  -0.00583334  0.33015690  0.12623565  1
  O2-  O216  1  -0.01381039  0.34854675  0.31627109  1
  O2-  O217  1  -0.02517308  0.37780186  0.47090947  1
  O2-  O218  1  0.01695754  0.35449398  0.63335103  1
  O2-  O219  1  0.24577475  -0.11837047  0.04452729  1
  O2-  O220  1  0.25156328  -0.10670531  0.20992895  1
  O2-  O221  1  0.32257962  0.11373893  0.50521853  1
  O2-  O222  1  0.27477903  -0.13197037  0.87088278  1
  O2-  O223  1  0.24586307  0.60678723  0.03657491  1
  O2-  O224  1  0.25345128  0.61052789  0.20426449  1
  O2-  O225  1  0.26369131  0.39501632  0.62273669  1
  O2-  O226  1  0.25983159  0.61887906  0.62004100  1
  O2-  O227  1  0.49427225  0.14858467  0.12742234  1
  O2-  O228  1  0.47655073  0.15225224  0.37735164  1
  O2-  O229  1  0.44872126  -0.03901431  0.49993096  1
  O2-  O230  1  0.48050047  0.02918352  0.66511474  1
  O2-  O231  1  0.48277195  0.37593032  0.01494966  1
  O2-  O232  1  0.49535930  0.34626174  0.17329807  1
  O2-  O233  1  0.52881344  0.67491624  0.37946010  1
  O2-  O234  1  0.51905830  0.34827350  0.84324930  1
  O2-  O235  1  0.74703618  -0.15483879  0.14500898  1
  O2-  O236  1  0.75106127  -0.13689142  0.34486990  1
  O2-  O237  1  0.69136910  0.01923989  0.37331787  1
  O2-  O238  1  0.77419700  -0.11050610  0.61558785  1
  O2-  O239  1  0.74283058  0.62855186  0.10803472  1
  O2-  O240  1  0.75932713  0.66743984  0.37456672  1
  O2-  O241  1  0.71282836  0.49602528  0.36316492  1
  O2-  O242  1  0.73627434  0.62459928  0.76285857  1
