# generated using pymatgen
data_Gd19Ta56(WO20)8
_symmetry_space_group_name_H-M   'P 1'
_cell_length_a   15.52805761
_cell_length_b   15.40214916
_cell_length_c   15.41397306
_cell_angle_alpha   90.02743049
_cell_angle_beta   89.82410524
_cell_angle_gamma   90.08455224
_symmetry_Int_Tables_number   1
_chemical_formula_structural   Gd19Ta56(WO20)8
_chemical_formula_sum   'Gd19 Ta56 W8 O160'
_cell_volume   3686.46815057
_cell_formula_units_Z   1
loop_
 _symmetry_equiv_pos_site_id
 _symmetry_equiv_pos_as_xyz
  1  'x, y, z'
loop_
 _atom_type_symbol
 _atom_type_oxidation_number
  Gd3+  3.0
  Ta5+  5.0
  W6+  6.0
  O2-  -2.0
loop_
 _atom_site_type_symbol
 _atom_site_label
 _atom_site_symmetry_multiplicity
 _atom_site_fract_x
 _atom_site_fract_y
 _atom_site_fract_z
 _atom_site_occupancy
  Gd3+  Gd0  1  -0.00545485  0.73777689  0.47544092  1
  Gd3+  Gd1  1  0.02024094  0.23082899  0.49664959  1
  Gd3+  Gd2  1  0.74218313  0.73600586  0.49272366  1
  Gd3+  Gd3  1  0.74752031  0.25924774  0.50210891  1
  Gd3+  Gd4  1  0.22553226  0.24498700  0.74513325  1
  Gd3+  Gd5  1  0.47785700  0.73001009  0.00983921  1
  Gd3+  Gd6  1  0.03219170  0.23608940  0.24548261  1
  Gd3+  Gd7  1  0.47269357  0.29247180  0.02776869  1
  Gd3+  Gd8  1  0.28781403  0.24582308  0.52150014  1
  Gd3+  Gd9  1  0.76950746  0.25278018  0.02880478  1
  Gd3+  Gd10  1  0.76169933  0.75045521  0.74872390  1
  Gd3+  Gd11  1  0.24162624  0.24584136  -0.02216700  1
  Gd3+  Gd12  1  0.72668077  0.76542251  -0.00868061  1
  Gd3+  Gd13  1  0.26792403  0.73812734  0.25952215  1
  Gd3+  Gd14  1  0.50675650  0.25973010  0.48633736  1
  Gd3+  Gd15  1  0.52210466  0.74903114  0.25742091  1
  Gd3+  Gd16  1  0.48833105  0.24324812  0.78037594  1
  Gd3+  Gd17  1  0.00113567  0.75161763  0.23378480  1
  Gd3+  Gd18  1  0.22455069  0.74133420  0.71115480  1
  Ta5+  Ta19  1  0.37853025  0.86073426  0.60949589  1
  Ta5+  Ta20  1  0.87592420  0.94276110  0.86532332  1
  Ta5+  Ta21  1  0.16527749  0.11016350  0.11916092  1
  Ta5+  Ta22  1  0.61562827  0.88733755  0.12121616  1
  Ta5+  Ta23  1  0.61410299  0.61720353  0.86307089  1
  Ta5+  Ta24  1  0.86839094  0.62357620  0.36135456  1
  Ta5+  Ta25  1  0.88061415  0.39610452  0.62366423  1
  Ta5+  Ta26  1  0.91355120  0.37917651  0.12479128  1
  Ta5+  Ta27  1  0.63405337  0.62351619  0.12675524  1
  Ta5+  Ta28  1  0.86658575  0.37959472  0.87305852  1
  Ta5+  Ta29  1  0.90224191  0.62613384  0.62362484  1
  Ta5+  Ta30  1  0.87851032  0.14344691  0.87307159  1
  Ta5+  Ta31  1  0.62996473  0.37524086  0.64232068  1
  Ta5+  Ta32  1  0.40933787  0.60644254  0.36151451  1
  Ta5+  Ta33  1  0.39617662  0.53472324  0.13272597  1
  Ta5+  Ta34  1  0.11909143  0.09148163  0.62852621  1
  Ta5+  Ta35  1  0.39546606  0.88295500  0.36315224  1
  Ta5+  Ta36  1  0.64314963  0.37802664  0.32514515  1
  Ta5+  Ta37  1  0.61866919  0.87999495  0.62947488  1
  Ta5+  Ta38  1  0.05348095  0.84948852  0.63281614  1
  Ta5+  Ta39  1  0.62890709  0.13190800  0.63462650  1
  Ta5+  Ta40  1  0.88286461  0.38285333  0.36922581  1
  Ta5+  Ta41  1  0.37736016  0.39321362  0.65993940  1
  Ta5+  Ta42  1  0.33566579  0.13000785  0.11285837  1
  Ta5+  Ta43  1  0.06988466  0.58939553  0.62471497  1
  Ta5+  Ta44  1  0.37700903  0.63298783  0.59047799  1
  Ta5+  Ta45  1  0.16130649  0.09569751  0.36287144  1
  Ta5+  Ta46  1  0.61020319  0.62260666  0.63962475  1
  Ta5+  Ta47  1  0.11505673  0.39030674  0.61682558  1
  Ta5+  Ta48  1  0.89551575  0.61701781  0.87249718  1
  Ta5+  Ta49  1  0.86849303  0.87792152  0.11232356  1
  Ta5+  Ta50  1  0.12791311  0.37116477  0.12324301  1
  Ta5+  Ta51  1  0.38690902  0.05041917  0.88758227  1
  Ta5+  Ta52  1  0.13774260  0.40525724  0.37314580  1
  Ta5+  Ta53  1  0.36808745  0.86334393  0.86349504  1
  Ta5+  Ta54  1  0.13285110  0.85592136  0.38311177  1
  Ta5+  Ta55  1  0.13546001  0.61661675  0.87081267  1
  Ta5+  Ta56  1  0.87298308  0.12911880  0.37168949  1
  Ta5+  Ta57  1  0.14495101  0.85733841  0.11599013  1
  Ta5+  Ta58  1  0.87557011  0.61969204  0.11302205  1
  Ta5+  Ta59  1  0.33876694  0.38144528  0.35266047  1
  Ta5+  Ta60  1  0.29760537  0.39902674  0.11107005  1
  Ta5+  Ta61  1  0.10632967  0.37783608  0.87127027  1
  Ta5+  Ta62  1  0.88257555  0.13310245  0.63160480  1
  Ta5+  Ta63  1  0.63590676  0.38915066  0.13544298  1
  Ta5+  Ta64  1  0.08633029  0.09893404  0.87973259  1
  Ta5+  Ta65  1  0.34413672  0.39747667  0.86003752  1
  Ta5+  Ta66  1  0.87767643  0.88247084  0.36970341  1
  Ta5+  Ta67  1  0.58591836  0.13138880  0.11838908  1
  Ta5+  Ta68  1  0.41492058  0.62199678  0.81796193  1
  Ta5+  Ta69  1  0.36058390  0.11893629  0.33911285  1
  Ta5+  Ta70  1  0.36366509  0.88469732  0.12177776  1
  Ta5+  Ta71  1  0.63086366  0.88371406  0.37922920  1
  Ta5+  Ta72  1  0.37141245  0.10589577  0.64758839  1
  Ta5+  Ta73  1  0.61617208  0.12271443  0.89349079  1
  Ta5+  Ta74  1  0.15381406  0.59824032  0.12222372  1
  W6+  W75  1  0.61481916  0.12833368  0.36842782  1
  W6+  W76  1  0.89314284  0.87780510  0.63056636  1
  W6+  W77  1  0.60871511  0.87767867  0.86325800  1
  W6+  W78  1  0.12832162  0.84972731  0.87544515  1
  W6+  W79  1  0.13159807  0.60195559  0.37293405  1
  W6+  W80  1  0.90041796  0.11997394  0.12237552  1
  W6+  W81  1  0.62901838  0.37818398  0.89267779  1
  W6+  W82  1  0.61003553  0.61339466  0.38620485  1
  O2-  O83  1  0.15860147  -0.02177581  0.11788104  1
  O2-  O84  1  0.11861175  -0.01708738  0.38566722  1
  O2-  O85  1  0.09251243  -0.02368849  0.63668238  1
  O2-  O86  1  0.11049508  -0.01752501  0.88203303  1
  O2-  O87  1  0.08697883  0.50011719  0.13609757  1
  O2-  O88  1  0.05182122  0.48858189  0.36784012  1
  O2-  O89  1  0.17380335  0.49331760  0.61351471  1
  O2-  O90  1  0.14937544  0.49230195  0.85198302  1
  O2-  O91  1  0.36410449  0.00483197  0.11618791  1
  O2-  O92  1  0.41712532  0.01311344  0.36337947  1
  O2-  O93  1  0.37370918  -0.01433692  0.62782551  1
  O2-  O94  1  0.29471776  -0.03354413  0.86151771  1
  O2-  O95  1  0.43797801  0.42131096  0.09138145  1
  O2-  O96  1  0.41523623  0.47429488  0.37367755  1
  O2-  O97  1  0.38159374  0.50941882  0.62733480  1
  O2-  O98  1  0.34609833  0.52692073  0.84712923  1
  O2-  O99  1  0.58750710  0.00414244  0.10341047  1
  O2-  O100  1  0.60440800  -0.00150198  0.39717246  1
  O2-  O101  1  0.60502666  0.01306511  0.62808324  1
  O2-  O102  1  0.63348009  0.00584735  0.89092021  1
  O2-  O103  1  0.61071579  0.50563520  0.10123509  1
  O2-  O104  1  0.62805154  0.47695498  0.38768325  1
  O2-  O105  1  0.59708897  0.49160900  0.63942069  1
  O2-  O106  1  0.66362748  0.50987191  0.87754425  1
  O2-  O107  1  0.92073777  -0.01510819  0.11138941  1
  O2-  O108  1  0.88125472  0.00637007  0.35982409  1
  O2-  O109  1  0.89133821  0.01556647  0.64403731  1
  O2-  O110  1  0.80055022  0.03706684  0.85089474  1
  O2-  O111  1  0.87640352  0.49829583  0.13941102  1
  O2-  O112  1  0.86371768  0.50136769  0.34215130  1
  O2-  O113  1  0.84538621  0.51456561  0.62990467  1
  O2-  O114  1  0.84918983  0.50330341  0.86029577  1
  O2-  O115  1  0.13624638  0.24007169  0.12150526  1
  O2-  O116  1  0.09474992  0.20584482  0.37276874  1
  O2-  O117  1  0.16727020  0.26687598  0.60591090  1
  O2-  O118  1  0.14752351  0.25622602  0.86786161  1
  O2-  O119  1  0.10139166  0.71687395  0.12989702  1
  O2-  O120  1  0.18234278  0.73848083  0.38257152  1
  O2-  O121  1  0.01314865  0.71484251  0.62919549  1
  O2-  O122  1  0.19856611  0.72325245  0.85780414  1
  O2-  O123  1  0.34186185  0.26520772  0.08588039  1
  O2-  O124  1  0.38955223  0.26155351  0.38257107  1
  O2-  O125  1  0.36073561  0.24406957  0.67657084  1
  O2-  O126  1  0.33847961  0.26699219  0.85686302  1
  O2-  O127  1  0.43668645  0.78168693  0.14362652  1
  O2-  O128  1  0.39575892  0.74388446  0.35036494  1
  O2-  O129  1  0.31647154  0.74883809  0.58609629  1
  O2-  O130  1  0.39964092  0.73358739  0.87243245  1
  O2-  O131  1  0.59091936  0.26841425  0.11675980  1
  O2-  O132  1  0.59982432  0.26880651  0.36514002  1
  O2-  O133  1  0.55731488  0.24439626  0.64183973  1
  O2-  O134  1  0.56742867  0.25663804  0.90887200  1
  O2-  O135  1  0.61293241  0.75350943  0.13350690  1
  O2-  O136  1  0.60794478  0.75684154  0.38686874  1
  O2-  O137  1  0.64648200  0.74981084  0.63696674  1
  O2-  O138  1  0.64666926  0.74439168  0.85282197  1
  O2-  O139  1  0.87510318  0.25820790  0.13082979  1
  O2-  O140  1  0.92206032  0.25480326  0.38481657  1
  O2-  O141  1  0.88263262  0.26621400  0.58343703  1
  O2-  O142  1  0.81465425  0.26060687  0.88329735  1
  O2-  O143  1  0.90942006  0.75799173  0.09826138  1
  O2-  O144  1  0.86247405  0.75399467  0.39148567  1
  O2-  O145  1  0.83307519  0.74348160  0.61135181  1
  O2-  O146  1  0.81394638  0.70626456  0.89274175  1
  O2-  O147  1  0.14223705  0.12420704  -0.01243357  1
  O2-  O148  1  0.12006355  0.11079874  0.24177596  1
  O2-  O149  1  0.11714504  0.11065240  0.50688963  1
  O2-  O150  1  0.12625328  0.12158824  0.76031640  1
  O2-  O151  1  0.14892252  0.60778203  -0.00739226  1
  O2-  O152  1  0.17875585  0.61980350  0.24566780  1
  O2-  O153  1  0.08695809  0.61566729  0.50544047  1
  O2-  O154  1  0.13171899  0.62391046  0.73226844  1
  O2-  O155  1  0.32933462  0.11523059  -0.02604499  1
  O2-  O156  1  0.38341664  0.16218614  0.22969539  1
  O2-  O157  1  0.41782590  0.14855016  0.54288419  1
  O2-  O158  1  0.41325011  0.10231139  0.76506179  1
  O2-  O159  1  0.39803619  0.62193744  0.05123871  1
  O2-  O160  1  0.37410356  0.60529119  0.24279783  1
  O2-  O161  1  0.35003787  0.61195012  0.47399554  1
  O2-  O162  1  0.34286694  0.65063391  0.71847699  1
  O2-  O163  1  0.66358383  0.14444018  0.01226300  1
  O2-  O164  1  0.61246599  0.12639962  0.23359097  1
  O2-  O165  1  0.62030515  0.15774458  0.50937068  1
  O2-  O166  1  0.62069718  0.14502783  0.76590002  1
  O2-  O167  1  0.63113079  0.65379920  -0.00845099  1
  O2-  O168  1  0.60335822  0.61974860  0.24641790  1
  O2-  O169  1  0.65713674  0.61884167  0.52546967  1
  O2-  O170  1  0.68802295  0.61854365  0.73992273  1
  O2-  O171  1  0.85246561  0.13100073  -0.00551534  1
  O2-  O172  1  0.92622136  0.13581959  0.25978438  1
  O2-  O173  1  0.90689146  0.12356697  0.49271927  1
  O2-  O174  1  0.87151459  0.16682845  0.74766752  1
  O2-  O175  1  0.91498413  0.60266668  -0.00164563  1
  O2-  O176  1  0.88386176  0.65404134  0.23738380  1
  O2-  O177  1  0.89121691  0.62276640  0.49205250  1
  O2-  O178  1  0.88344724  0.64969432  0.74937321  1
  O2-  O179  1  0.11988787  0.37369094  -0.00621068  1
  O2-  O180  1  0.12549241  0.35806542  0.26046360  1
  O2-  O181  1  0.08750682  0.36429567  0.49150145  1
  O2-  O182  1  0.10604123  0.35480102  0.73712640  1
  O2-  O183  1  0.10046023  0.84518107  0.00551579  1
  O2-  O184  1  0.13917106  0.84460672  0.24937790  1
  O2-  O185  1  0.09836668  0.84385158  0.51016240  1
  O2-  O186  1  0.10215083  0.82780140  0.74395685  1
  O2-  O187  1  0.30289109  0.39803242  -0.02526154  1
  O2-  O188  1  0.32702225  0.36657335  0.23658342  1
  O2-  O189  1  0.40022767  0.34674141  0.54640591  1
  O2-  O190  1  0.44590500  0.38574844  0.76506993  1
  O2-  O191  1  0.38044266  0.85547543  -0.00654381  1
  O2-  O192  1  0.33653135  0.88033616  0.25142208  1
  O2-  O193  1  0.38698591  0.87366960  0.48463010  1
  O2-  O194  1  0.34298288  0.84097276  0.73582569  1
  O2-  O195  1  0.68175303  0.37186867  0.01815753  1
  O2-  O196  1  0.72360401  0.38329148  0.22305824  1
  O2-  O197  1  0.62317047  0.34156049  0.52101553  1
  O2-  O198  1  0.61822930  0.34568751  0.76021157  1
  O2-  O199  1  0.59326462  0.85063136  -0.00194948  1
  O2-  O200  1  0.60943733  0.88233327  0.25083435  1
  O2-  O201  1  0.66446476  0.86976313  0.51400771  1
  O2-  O202  1  0.67362831  0.88513106  0.73884775  1
  O2-  O203  1  0.86861476  0.37812619  0.00165487  1
  O2-  O204  1  0.93690370  0.36508156  0.25459636  1
  O2-  O205  1  0.90113676  0.40164140  0.48963271  1
  O2-  O206  1  0.88126868  0.36816286  0.74267809  1
  O2-  O207  1  0.85369032  0.88728368  -0.02714089  1
  O2-  O208  1  0.88790895  0.85879365  0.23732795  1
  O2-  O209  1  0.89702828  0.88401247  0.49173137  1
  O2-  O210  1  0.86507246  0.86183123  0.77682683  1
  O2-  O211  1  -0.00813616  0.18764680  -0.11051734  1
  O2-  O212  1  0.00656433  -0.15409144  0.35857232  1
  O2-  O213  1  0.01136019  0.15674413  0.63316947  1
  O2-  O214  1  -0.03742607  0.03517190  0.85467763  1
  O2-  O215  1  -0.01263739  0.38170682  -0.12404036  1
  O2-  O216  1  0.00386952  0.66106558  0.35133698  1
  O2-  O217  1  0.00557576  0.45243778  0.62673555  1
  O2-  O218  1  0.01623713  0.64142489  0.86618727  1
  O2-  O219  1  0.25822392  -0.19602017  0.11772838  1
  O2-  O220  1  0.26219765  0.05227954  0.30105091  1
  O2-  O221  1  0.26403778  0.14080068  0.42907777  1
  O2-  O222  1  0.24643456  0.11451013  0.63569539  1
  O2-  O223  1  0.26554285  0.53667111  0.11535746  1
  O2-  O224  1  0.23308331  0.48202754  0.35734425  1
  O2-  O225  1  0.24047290  0.33357640  0.42127461  1
  O2-  O226  1  0.27850060  0.38816191  0.73739399  1
  O2-  O227  1  0.49711987  0.11017011  -0.09225053  1
  O2-  O228  1  0.47363877  0.15200993  0.08071055  1
  O2-  O229  1  0.49998879  -0.14578915  0.63009213  1
  O2-  O230  1  0.46456464  -0.06086672  0.85090249  1
  O2-  O231  1  0.50097430  0.60132208  -0.08732492  1
  O2-  O232  1  0.55738221  0.39338731  0.23934538  1
  O2-  O233  1  0.49468990  0.65519081  0.59575692  1
  O2-  O234  1  0.52679148  0.62240206  0.75564702  1
  O2-  O235  1  0.74437936  -0.12665522  0.11274440  1
  O2-  O236  1  0.75293277  -0.11837614  0.36389418  1
  O2-  O237  1  0.75764949  0.15716836  0.38790493  1
  O2-  O238  1  0.75069871  0.14790057  0.61649388  1
  O2-  O239  1  0.75838582  0.65622145  0.09950741  1
  O2-  O240  1  0.74919016  0.63549489  0.37556902  1
  O2-  O241  1  0.76565593  0.34742875  0.38225878  1
  O2-  O242  1  0.75090836  0.36863972  0.62136751  1
