# generated using pymatgen
data_Gd19Ta56(WO20)8
_symmetry_space_group_name_H-M   'P 1'
_cell_length_a   15.47840713
_cell_length_b   15.44453491
_cell_length_c   15.23351415
_cell_angle_alpha   89.74598347
_cell_angle_beta   90.14061378
_cell_angle_gamma   90.02197879
_symmetry_Int_Tables_number   1
_chemical_formula_structural   Gd19Ta56(WO20)8
_chemical_formula_sum   'Gd19 Ta56 W8 O160'
_cell_volume   3641.62812528
_cell_formula_units_Z   1
loop_
 _symmetry_equiv_pos_site_id
 _symmetry_equiv_pos_as_xyz
  1  'x, y, z'
loop_
 _atom_type_symbol
 _atom_type_oxidation_number
  Gd3+  3.0
  Ta5+  5.0
  W6+  6.0
  O2-  -2.0
loop_
 _atom_site_type_symbol
 _atom_site_label
 _atom_site_symmetry_multiplicity
 _atom_site_fract_x
 _atom_site_fract_y
 _atom_site_fract_z
 _atom_site_occupancy
  Gd3+  Gd0  1  0.00906897  0.72307229  0.72085899  1
  Gd3+  Gd1  1  -0.01468300  0.24857838  0.24488899  1
  Gd3+  Gd2  1  0.01727224  0.74321648  0.28364899  1
  Gd3+  Gd3  1  0.25131520  0.72979562  0.24883268  1
  Gd3+  Gd4  1  0.54175744  0.27478100  0.73450403  1
  Gd3+  Gd5  1  0.47780183  0.75651172  0.26476922  1
  Gd3+  Gd6  1  0.77276172  0.76653706  0.50053170  1
  Gd3+  Gd7  1  0.72748650  0.73663792  0.00785296  1
  Gd3+  Gd8  1  0.74907143  0.76493037  0.74723880  1
  Gd3+  Gd9  1  0.27952610  0.74300897  0.01639467  1
  Gd3+  Gd10  1  0.00145645  0.26455079  0.50473408  1
  Gd3+  Gd11  1  0.51505920  0.26315702  0.48634298  1
  Gd3+  Gd12  1  0.25268709  0.27043158  0.50239572  1
  Gd3+  Gd13  1  0.71167417  0.25488934  -0.00586560  1
  Gd3+  Gd14  1  0.28157260  0.23045381  0.00360904  1
  Gd3+  Gd15  1  0.73296545  0.26498525  0.23213181  1
  Gd3+  Gd16  1  -0.04624903  0.24728774  -0.00532980  1
  Gd3+  Gd17  1  0.52500227  0.73693293  0.49973239  1
  Gd3+  Gd18  1  0.22580453  0.73314437  0.54820419  1
  Ta5+  Ta19  1  0.40040695  0.91810428  0.45935014  1
  Ta5+  Ta20  1  0.84064297  0.11699653  0.12477312  1
  Ta5+  Ta21  1  0.43351292  0.13554606  0.12761350  1
  Ta5+  Ta22  1  0.65766738  0.88887266  0.35516381  1
  Ta5+  Ta23  1  0.17200788  0.36498309  0.68614422  1
  Ta5+  Ta24  1  0.88636332  0.12146280  0.38358502  1
  Ta5+  Ta25  1  0.64644903  0.12372799  0.37520768  1
  Ta5+  Ta26  1  0.64709597  0.12913970  0.61855440  1
  Ta5+  Ta27  1  0.87666599  0.62067824  0.38385577  1
  Ta5+  Ta28  1  0.14283104  0.61447035  0.11307225  1
  Ta5+  Ta29  1  0.10478997  0.60571683  0.86740698  1
  Ta5+  Ta30  1  0.10036492  0.11568245  0.10062984  1
  Ta5+  Ta31  1  0.14273278  0.12000192  0.35892647  1
  Ta5+  Ta32  1  0.86792174  0.61776049  0.88392828  1
  Ta5+  Ta33  1  0.55868182  0.62928667  0.10780982  1
  Ta5+  Ta34  1  0.90769946  0.87982622  0.63045678  1
  Ta5+  Ta35  1  0.13927397  0.10868354  0.89198483  1
  Ta5+  Ta36  1  0.89249932  0.13030879  0.63857324  1
  Ta5+  Ta37  1  0.60035157  0.87511964  0.87745029  1
  Ta5+  Ta38  1  0.61495178  0.88375894  0.61833960  1
  Ta5+  Ta39  1  0.61980489  0.41092951  0.12276480  1
  Ta5+  Ta40  1  0.90179168  0.88672344  0.38027941  1
  Ta5+  Ta41  1  0.15060433  0.87445150  0.38561543  1
  Ta5+  Ta42  1  0.11791786  0.86504671  0.86346989  1
  Ta5+  Ta43  1  0.10909834  0.86556024  0.11195162  1
  Ta5+  Ta44  1  0.59968057  0.13339652  0.12353284  1
  Ta5+  Ta45  1  0.39481411  0.91371905  0.11537530  1
  Ta5+  Ta46  1  0.38050493  0.14163404  0.35541427  1
  Ta5+  Ta47  1  0.41784697  0.12884530  0.87201570  1
  Ta5+  Ta48  1  0.86706979  0.39133064  0.12061484  1
  Ta5+  Ta49  1  0.59061545  0.63496763  0.85134708  1
  Ta5+  Ta50  1  0.59305732  0.89058763  0.12057841  1
  Ta5+  Ta51  1  0.84410974  0.37931011  0.38883336  1
  Ta5+  Ta52  1  0.88137173  0.87283550  0.88588428  1
  Ta5+  Ta53  1  0.13598228  0.12765092  0.63771686  1
  Ta5+  Ta54  1  0.89773654  0.63402270  0.12724191  1
  Ta5+  Ta55  1  0.39139792  0.58304730  0.40482087  1
  Ta5+  Ta56  1  0.67902836  0.61024939  0.61547730  1
  Ta5+  Ta57  1  0.07657991  0.88930390  0.61450308  1
  Ta5+  Ta58  1  0.83662969  0.11572125  0.86643984  1
  Ta5+  Ta59  1  0.84609502  0.38849604  0.61242428  1
  Ta5+  Ta60  1  0.39624235  0.37488722  0.12029507  1
  Ta5+  Ta61  1  0.38132438  0.38853307  0.36260668  1
  Ta5+  Ta62  1  0.63920725  0.63104203  0.35583764  1
  Ta5+  Ta63  1  0.67788428  0.39629177  0.60544898  1
  Ta5+  Ta64  1  0.82089882  0.38014142  0.85984823  1
  Ta5+  Ta65  1  0.65321893  0.39728317  0.86160420  1
  Ta5+  Ta66  1  0.38708271  0.12277336  0.61811636  1
  Ta5+  Ta67  1  0.67038111  0.38710421  0.38195391  1
  Ta5+  Ta68  1  0.84608531  0.60777389  0.62881671  1
  Ta5+  Ta69  1  0.44468011  0.88201763  0.64152740  1
  Ta5+  Ta70  1  0.58870660  0.12516017  0.87049617  1
  Ta5+  Ta71  1  0.87300966  0.86979525  0.13154049  1
  Ta5+  Ta72  1  0.14057317  0.36202118  0.88763934  1
  Ta5+  Ta73  1  0.36465219  0.38176384  0.86221303  1
  Ta5+  Ta74  1  0.11477687  0.36764925  0.09365610  1
  W6+  W75  1  0.41387351  0.39076297  0.62143893  1
  W6+  W76  1  0.35277369  0.63839920  0.85405918  1
  W6+  W77  1  0.41693786  0.63360727  0.66004258  1
  W6+  W78  1  0.04213684  0.54555293  0.55752617  1
  W6+  W79  1  0.40309421  0.56427573  0.09657715  1
  W6+  W80  1  0.37016635  0.89015072  0.87961753  1
  W6+  W81  1  0.13067665  0.60879182  0.38753493  1
  W6+  W82  1  0.14964860  0.39264115  0.34182331  1
  O2-  O83  1  0.10038831  -0.01070991  0.11666200  1
  O2-  O84  1  0.14877772  0.00032575  0.36241431  1
  O2-  O85  1  0.11538844  0.01341693  0.60810062  1
  O2-  O86  1  0.15511296  -0.01134789  0.87541272  1
  O2-  O87  1  0.11520418  0.49402254  0.10710129  1
  O2-  O88  1  0.07969221  0.48951872  0.34929206  1
  O2-  O89  1  0.11530807  0.45124711  0.63105219  1
  O2-  O90  1  0.13777633  0.48705750  0.87897141  1
  O2-  O91  1  0.35716612  0.02458824  0.14130803  1
  O2-  O92  1  0.37229012  0.01699412  0.39095289  1
  O2-  O93  1  0.41205406  0.00763354  0.57930300  1
  O2-  O94  1  0.37627625  0.01682671  0.89229737  1
  O2-  O95  1  0.31240962  0.45702833  0.12646785  1
  O2-  O96  1  0.30392835  0.49595972  0.37363644  1
  O2-  O97  1  0.43540135  0.51708038  0.62913829  1
  O2-  O98  1  0.36027661  0.50035398  0.86764284  1
  O2-  O99  1  0.62496175  0.00786293  0.12298721  1
  O2-  O100  1  0.60748241  -0.00028297  0.36139056  1
  O2-  O101  1  0.63267098  0.00468399  0.61385897  1
  O2-  O102  1  0.58912759  -0.00428444  0.87785473  1
  O2-  O103  1  0.63964447  0.53322194  0.11919038  1
  O2-  O104  1  0.65767289  0.51454190  0.37024395  1
  O2-  O105  1  0.62076323  0.50731095  0.58270207  1
  O2-  O106  1  0.62185570  0.52001848  0.86253203  1
  O2-  O107  1  0.85558956  -0.00984145  0.14397087  1
  O2-  O108  1  0.92841662  0.00730961  0.35686598  1
  O2-  O109  1  0.90580050  0.00867904  0.65045561  1
  O2-  O110  1  0.85761090  -0.00908428  0.86359234  1
  O2-  O111  1  0.89424458  0.51007724  0.13607236  1
  O2-  O112  1  0.85745199  0.50224950  0.35937401  1
  O2-  O113  1  0.91967769  0.50061276  0.61412661  1
  O2-  O114  1  0.81730028  0.51115760  0.86795029  1
  O2-  O115  1  0.12439591  0.23838552  0.07590303  1
  O2-  O116  1  0.02143745  0.15948319  0.36618418  1
  O2-  O117  1  0.14410168  0.26368532  0.61957001  1
  O2-  O118  1  0.17582359  0.23203375  0.89513016  1
  O2-  O119  1  0.16412645  0.75033775  0.12008044  1
  O2-  O120  1  0.19339650  0.75065362  0.39205333  1
  O2-  O121  1  0.09844176  0.76262322  0.61422816  1
  O2-  O122  1  0.10141255  0.73989162  0.84977583  1
  O2-  O123  1  0.36684628  0.25121156  0.13696926  1
  O2-  O124  1  0.43570950  0.25704343  0.35770678  1
  O2-  O125  1  0.44546405  0.23989179  0.61933890  1
  O2-  O126  1  0.36009467  0.24315831  0.86400449  1
  O2-  O127  1  0.26763548  0.62686220  0.13165517  1
  O2-  O128  1  0.41767530  0.82839919  0.37994468  1
  O2-  O129  1  0.46879593  0.75417376  0.64172184  1
  O2-  O130  1  0.31398393  0.76839956  0.87470183  1
  O2-  O131  1  0.62691535  0.26719249  0.12118275  1
  O2-  O132  1  0.66359529  0.25176632  0.38143158  1
  O2-  O133  1  0.63492827  0.26108826  0.60963160  1
  O2-  O134  1  0.62203269  0.26429586  0.86581113  1
  O2-  O135  1  0.55658241  0.75744329  0.11865350  1
  O2-  O136  1  0.59581413  0.77842669  0.36188128  1
  O2-  O137  1  0.66861002  0.75958989  0.61733683  1
  O2-  O138  1  0.65982590  0.74915149  0.86991294  1
  O2-  O139  1  0.82952232  0.24935172  0.10268907  1
  O2-  O140  1  0.88740502  0.25360690  0.39321314  1
  O2-  O141  1  0.88095543  0.26611928  0.60631780  1
  O2-  O142  1  0.83730288  0.24819205  0.89423792  1
  O2-  O143  1  0.82692734  0.74679526  0.13343560  1
  O2-  O144  1  0.89316196  0.75537532  0.39401051  1
  O2-  O145  1  0.87258622  0.74608948  0.61804703  1
  O2-  O146  1  0.82991969  0.74549784  0.88984878  1
  O2-  O147  1  0.03802806  0.12056935  -0.03900695  1
  O2-  O148  1  0.11759273  0.13573931  0.22397204  1
  O2-  O149  1  0.01726781  0.16246617  0.61971761  1
  O2-  O150  1  0.13106804  0.12468355  0.76134171  1
  O2-  O151  1  0.16002987  0.63539458  -0.01259940  1
  O2-  O152  1  0.12408952  0.64217956  0.24295649  1
  O2-  O153  1  0.15769615  0.61039363  0.52239601  1
  O2-  O154  1  0.08175163  0.60308720  0.74677387  1
  O2-  O155  1  0.40913368  0.14742427  0.00353705  1
  O2-  O156  1  0.45042919  0.11219250  0.25929526  1
  O2-  O157  1  0.36903538  0.16431358  0.48493327  1
  O2-  O158  1  0.40948309  0.11635218  0.73832121  1
  O2-  O159  1  0.38621217  0.64670074  -0.01138711  1
  O2-  O160  1  0.36283390  0.65827327  0.30837657  1
  O2-  O161  1  0.37053582  0.64771556  0.51129193  1
  O2-  O162  1  0.30982354  0.64757207  0.72307881  1
  O2-  O163  1  0.61620845  0.13949137  -0.00524856  1
  O2-  O164  1  0.64339452  0.14100172  0.25089685  1
  O2-  O165  1  0.59268440  0.13166575  0.49556704  1
  O2-  O166  1  0.59648531  0.13380938  0.73182223  1
  O2-  O167  1  0.59335449  0.64911969  -0.01526056  1
  O2-  O168  1  0.58663405  0.64292837  0.23958353  1
  O2-  O169  1  0.65248966  0.66148071  0.48668470  1
  O2-  O170  1  0.65416281  0.64185945  0.74009742  1
  O2-  O171  1  0.84922167  0.11144675  -0.00427499  1
  O2-  O172  1  0.86459935  0.15421425  0.25202344  1
  O2-  O173  1  0.90465287  0.11951190  0.50570087  1
  O2-  O174  1  0.90621321  0.14629887  0.76591841  1
  O2-  O175  1  0.83633120  0.62639741  0.01290110  1
  O2-  O176  1  0.91509050  0.64301215  0.25418349  1
  O2-  O177  1  0.82616756  0.61683429  0.49977306  1
  O2-  O178  1  0.87777331  0.64291935  0.75690999  1
  O2-  O179  1  0.04616231  0.35827965  -0.03100321  1
  O2-  O180  1  0.13217495  0.34244878  0.21567220  1
  O2-  O181  1  0.12331783  0.32629193  0.45094387  1
  O2-  O182  1  0.08639154  0.33375138  0.77779041  1
  O2-  O183  1  0.14903922  0.85515722  -0.00588304  1
  O2-  O184  1  0.13200726  0.84983892  0.24613100  1
  O2-  O185  1  0.16530410  0.87725652  0.50826355  1
  O2-  O186  1  0.08845700  0.88246675  0.74293567  1
  O2-  O187  1  0.38460307  0.35578635  -0.01515837  1
  O2-  O188  1  0.42091489  0.38669572  0.24601815  1
  O2-  O189  1  0.38818276  0.35334344  0.49001228  1
  O2-  O190  1  0.43801942  0.37480228  0.76291951  1
  O2-  O191  1  0.32695653  0.88233170  0.01276746  1
  O2-  O192  1  0.34900701  0.80524453  0.16948416  1
  O2-  O193  1  0.33995866  0.85078359  0.54983349  1
  O2-  O194  1  0.41087194  0.90185121  0.75340786  1
  O2-  O195  1  0.63904712  0.38934226  -0.00479278  1
  O2-  O196  1  0.63128524  0.38119517  0.25502992  1
  O2-  O197  1  0.60201034  0.37663799  0.48839539  1
  O2-  O198  1  0.63797293  0.38950849  0.72927954  1
  O2-  O199  1  0.64935936  0.86384287  0.00143737  1
  O2-  O200  1  0.66246838  0.86676005  0.22694455  1
  O2-  O201  1  0.67373726  0.87300823  0.48570491  1
  O2-  O202  1  0.63949069  0.87127634  0.75308726  1
  O2-  O203  1  0.86488799  0.38318928  -0.00619208  1
  O2-  O204  1  0.86815306  0.34908082  0.25200897  1
  O2-  O205  1  0.92453624  0.38736581  0.49277019  1
  O2-  O206  1  0.85306196  0.37555843  0.74137417  1
  O2-  O207  1  0.83447798  0.86688982  0.00642153  1
  O2-  O208  1  0.92201185  0.85312981  0.24993880  1
  O2-  O209  1  0.87752985  0.89336566  0.50322102  1
  O2-  O210  1  0.88900815  0.84299342  0.76030891  1
  O2-  O211  1  -0.00796491  -0.15829466  0.09529452  1
  O2-  O212  1  -0.02245539  0.15104408  0.12093728  1
  O2-  O213  1  0.03028421  -0.14420837  0.38975885  1
  O2-  O214  1  -0.00052458  -0.12071282  0.90531366  1
  O2-  O215  1  0.01337217  0.65175590  0.10072865  1
  O2-  O216  1  -0.01262391  0.33823743  0.12193224  1
  O2-  O217  1  -0.00707842  0.61772753  0.43518191  1
  O2-  O218  1  -0.01216493  0.60055222  0.90970033  1
  O2-  O219  1  0.19878477  0.10151660  0.01351000  1
  O2-  O220  1  0.26126896  0.14891316  0.32533479  1
  O2-  O221  1  0.15547173  0.14770841  0.48124784  1
  O2-  O222  1  0.26514542  0.13533964  0.62611292  1
  O2-  O223  1  0.20837002  0.36658407  0.00455703  1
  O2-  O224  1  0.26829813  0.32663870  0.36153109  1
  O2-  O225  1  0.28218086  0.35224174  0.62718723  1
  O2-  O226  1  0.24846852  0.37238766  0.80298732  1
  O2-  O227  1  0.49264525  -0.07849777  0.04142818  1
  O2-  O228  1  0.49122035  -0.10512720  0.20607693  1
  O2-  O229  1  0.51477764  -0.11245329  0.51552017  1
  O2-  O230  1  0.49250418  -0.17181125  0.88538781  1
  O2-  O231  1  0.49756512  0.44353920  0.09035974  1
  O2-  O232  1  0.46303894  0.48040952  0.39790835  1
  O2-  O233  1  0.50825874  0.64103407  0.39176551  1
  O2-  O234  1  0.48184557  0.63904481  0.79509008  1
  O2-  O235  1  0.72221197  0.11480434  -0.15460138  1
  O2-  O236  1  0.78016352  -0.10202094  0.35208859  1
  O2-  O237  1  0.76425706  0.09800703  0.39592037  1
  O2-  O238  1  0.76663261  0.12888420  0.63190502  1
  O2-  O239  1  0.74659012  0.39647667  0.13301764  1
  O2-  O240  1  0.75553791  0.66720298  0.34061195  1
  O2-  O241  1  0.76301224  0.39207561  0.49448056  1
  O2-  O242  1  0.76284643  0.50475441  0.65802152  1
