# generated using pymatgen
data_Gd19Ta56(WO20)8
_symmetry_space_group_name_H-M   'P 1'
_cell_length_a   15.56023484
_cell_length_b   15.43944448
_cell_length_c   15.33393492
_cell_angle_alpha   89.98401859
_cell_angle_beta   90.05754809
_cell_angle_gamma   90.15281394
_symmetry_Int_Tables_number   1
_chemical_formula_structural   Gd19Ta56(WO20)8
_chemical_formula_sum   'Gd19 Ta56 W8 O160'
_cell_volume   3683.83061549
_cell_formula_units_Z   1
loop_
 _symmetry_equiv_pos_site_id
 _symmetry_equiv_pos_as_xyz
  1  'x, y, z'
loop_
 _atom_type_symbol
 _atom_type_oxidation_number
  Gd3+  3.0
  Ta5+  5.0
  W6+  6.0
  O2-  -2.0
loop_
 _atom_site_type_symbol
 _atom_site_label
 _atom_site_symmetry_multiplicity
 _atom_site_fract_x
 _atom_site_fract_y
 _atom_site_fract_z
 _atom_site_occupancy
  Gd3+  Gd0  1  -0.00850653  0.24909857  0.52012500  1
  Gd3+  Gd1  1  -0.01727358  0.73112799  0.27619017  1
  Gd3+  Gd2  1  0.74143602  0.25169080  0.23188560  1
  Gd3+  Gd3  1  0.75767617  0.76467848  -0.00433923  1
  Gd3+  Gd4  1  0.24583135  0.25802362  0.25905785  1
  Gd3+  Gd5  1  0.22236727  0.74414273  -0.04791417  1
  Gd3+  Gd6  1  0.75824169  0.23194360  0.74347544  1
  Gd3+  Gd7  1  0.76092199  0.77159710  0.73044835  1
  Gd3+  Gd8  1  0.49184585  0.73017525  0.01035098  1
  Gd3+  Gd9  1  0.23808967  0.23392810  0.75022748  1
  Gd3+  Gd10  1  0.22029833  0.25172325  -0.02047487  1
  Gd3+  Gd11  1  0.74652512  0.76750954  0.26099545  1
  Gd3+  Gd12  1  -0.02254490  0.23499071  0.01331372  1
  Gd3+  Gd13  1  0.24446337  0.25103479  0.51519819  1
  Gd3+  Gd14  1  0.49706239  0.25929168  -0.01839704  1
  Gd3+  Gd15  1  0.29993584  0.77283329  0.21823791  1
  Gd3+  Gd16  1  0.49593146  0.25722013  0.24338426  1
  Gd3+  Gd17  1  0.48083492  0.72462727  0.74959940  1
  Gd3+  Gd18  1  0.52090227  0.24582390  0.74671599  1
  Ta5+  Ta19  1  0.58385720  0.87126331  0.62189880  1
  Ta5+  Ta20  1  0.61880486  0.87394280  0.37643974  1
  Ta5+  Ta21  1  0.89879539  0.12002383  0.37662305  1
  Ta5+  Ta22  1  0.10698150  0.10690281  0.87084566  1
  Ta5+  Ta23  1  0.87326939  0.37510083  0.13076884  1
  Ta5+  Ta24  1  0.36016949  0.39643809  0.85819360  1
  Ta5+  Ta25  1  0.33480985  0.38477682  0.10340187  1
  Ta5+  Ta26  1  0.64623621  0.62296370  0.12780567  1
  Ta5+  Ta27  1  0.59086985  0.86005353  0.87058200  1
  Ta5+  Ta28  1  0.16044691  0.64019001  0.37109806  1
  Ta5+  Ta29  1  0.90567205  0.86774796  0.87480631  1
  Ta5+  Ta30  1  0.09041499  0.64155893  0.60721510  1
  Ta5+  Ta31  1  0.36515586  0.11171358  0.87947885  1
  Ta5+  Ta32  1  0.32872282  0.63693396  0.38172043  1
  Ta5+  Ta33  1  0.13142252  0.10455269  0.36681236  1
  Ta5+  Ta34  1  0.84553226  0.37974722  0.88728757  1
  Ta5+  Ta35  1  0.59348188  0.06812228  0.12820409  1
  Ta5+  Ta36  1  0.07042684  0.86117037  0.85749287  1
  Ta5+  Ta37  1  0.45663803  0.91344581  0.12972364  1
  Ta5+  Ta38  1  0.91590858  0.63906334  0.63310928  1
  Ta5+  Ta39  1  0.38251281  0.12117246  0.37153754  1
  Ta5+  Ta40  1  0.62392323  0.12660968  0.37205737  1
  Ta5+  Ta41  1  0.63014706  0.63592313  0.86333498  1
  Ta5+  Ta42  1  0.37795082  0.38964114  0.39717847  1
  Ta5+  Ta43  1  0.12535699  0.40129953  0.37260963  1
  Ta5+  Ta44  1  0.62400670  0.88089241  0.11898652  1
  Ta5+  Ta45  1  0.62267719  0.37472061  0.37802654  1
  Ta5+  Ta46  1  0.33950248  0.62690792  0.62745961  1
  Ta5+  Ta47  1  0.83281878  0.62309962  0.39891159  1
  Ta5+  Ta48  1  0.12608124  0.39422742  0.62432193  1
  Ta5+  Ta49  1  0.11485494  0.63372573  0.11438384  1
  Ta5+  Ta50  1  0.61823590  0.10780847  0.88620259  1
  Ta5+  Ta51  1  0.12306836  0.38356717  0.12604940  1
  Ta5+  Ta52  1  0.13287382  0.12271969  0.13245799  1
  Ta5+  Ta53  1  0.64275945  0.39183658  0.87431244  1
  Ta5+  Ta54  1  0.66394841  0.62159848  0.38490343  1
  Ta5+  Ta55  1  0.37553417  0.59164130  0.88297952  1
  Ta5+  Ta56  1  0.10737255  0.85394958  0.60863458  1
  Ta5+  Ta57  1  0.89087230  0.62754612  0.87337810  1
  Ta5+  Ta58  1  0.41581674  0.86815987  0.61939691  1
  Ta5+  Ta59  1  0.37353181  0.11608849  0.62114924  1
  Ta5+  Ta60  1  0.86852987  0.10367047  0.63106427  1
  Ta5+  Ta61  1  0.86501036  0.11020122  0.88714361  1
  Ta5+  Ta62  1  0.87090619  0.62082916  0.13212717  1
  Ta5+  Ta63  1  0.13537008  0.87348042  0.11300994  1
  Ta5+  Ta64  1  0.90580686  0.87250906  0.13352062  1
  Ta5+  Ta65  1  0.64522103  0.38734879  0.62456646  1
  Ta5+  Ta66  1  0.41251567  0.86662748  0.88117082  1
  Ta5+  Ta67  1  0.40098250  0.60253810  0.14425785  1
  Ta5+  Ta68  1  0.41768034  0.86906922  0.37468031  1
  Ta5+  Ta69  1  0.94337068  0.87331138  0.63788245  1
  Ta5+  Ta70  1  0.62189146  0.11378546  0.62062520  1
  Ta5+  Ta71  1  0.88899988  0.38498666  0.38402280  1
  Ta5+  Ta72  1  0.34446820  0.11196605  0.12419751  1
  Ta5+  Ta73  1  0.86913027  0.88208109  0.39634430  1
  Ta5+  Ta74  1  0.88829320  0.39046419  0.64520840  1
  W6+  W75  1  0.62180329  0.39231190  0.10930564  1
  W6+  W76  1  0.05385256  0.63576078  0.85822244  1
  W6+  W77  1  0.35871258  0.38741160  0.64827885  1
  W6+  W78  1  0.09298344  0.38868946  0.87369136  1
  W6+  W79  1  0.12062296  0.10600010  0.61830843  1
  W6+  W80  1  0.87479904  0.11067414  0.14440439  1
  W6+  W81  1  0.63405169  0.63990272  0.60095720  1
  W6+  W82  1  0.16837759  0.85913243  0.36810940  1
  O2-  O83  1  0.12737045  -0.00311247  0.11324112  1
  O2-  O84  1  0.16349153  -0.00807149  0.36129589  1
  O2-  O85  1  0.12763511  -0.02681969  0.61940272  1
  O2-  O86  1  0.09165234  -0.01253660  0.87035003  1
  O2-  O87  1  0.12934925  0.51255394  0.12554620  1
  O2-  O88  1  0.15724833  0.51545128  0.35280379  1
  O2-  O89  1  0.10693604  0.51360295  0.60084977  1
  O2-  O90  1  0.06054177  0.50442977  0.88012284  1
  O2-  O91  1  0.35460735  -0.00431255  0.10907003  1
  O2-  O92  1  0.39538916  0.00277189  0.37353337  1
  O2-  O93  1  0.39526082  -0.00243634  0.62246176  1
  O2-  O94  1  0.38759117  -0.00616940  0.88485980  1
  O2-  O95  1  0.40766385  0.47353336  0.14587032  1
  O2-  O96  1  0.36088283  0.50882762  0.38121452  1
  O2-  O97  1  0.38677964  0.51916977  0.62497821  1
  O2-  O98  1  0.28887091  0.50411438  0.88652883  1
  O2-  O99  1  0.68823371  -0.00405940  0.13462663  1
  O2-  O100  1  0.63111663  0.00784714  0.35849222  1
  O2-  O101  1  0.59786120  -0.00356231  0.63941230  1
  O2-  O102  1  0.60120746  -0.01028409  0.87841349  1
  O2-  O103  1  0.68468177  0.51134704  0.11268442  1
  O2-  O104  1  0.66157143  0.48606250  0.37225432  1
  O2-  O105  1  0.64286959  0.50531227  0.61931701  1
  O2-  O106  1  0.64634163  0.51514224  0.85243718  1
  O2-  O107  1  0.86017710  -0.01996842  0.15054287  1
  O2-  O108  1  0.85207941  0.00653503  0.39116754  1
  O2-  O109  1  0.93601285  0.00353061  0.64328706  1
  O2-  O110  1  0.88007053  -0.01068756  0.88706110  1
  O2-  O111  1  0.86597467  0.49918867  0.13043649  1
  O2-  O112  1  0.83864876  0.49463194  0.39263242  1
  O2-  O113  1  0.89984762  0.50850858  0.64015340  1
  O2-  O114  1  0.86886538  0.50549975  0.88009318  1
  O2-  O115  1  0.16166982  0.25772015  0.12590119  1
  O2-  O116  1  0.24961240  0.35780830  0.38875366  1
  O2-  O117  1  0.14364563  0.25199216  0.62789474  1
  O2-  O118  1  0.13704082  0.26078429  0.85970782  1
  O2-  O119  1  0.19666480  0.74351056  0.10494158  1
  O2-  O120  1  0.23454114  0.74330555  0.35748815  1
  O2-  O121  1  0.15443398  0.73853328  0.64786099  1
  O2-  O122  1  0.12822224  0.75137196  0.84034125  1
  O2-  O123  1  0.35186251  0.26528703  0.13739409  1
  O2-  O124  1  0.25574060  0.15510512  0.38146761  1
  O2-  O125  1  0.34030478  0.24987861  0.63703597  1
  O2-  O126  1  0.33685267  0.25570931  0.87502773  1
  O2-  O127  1  0.40839877  0.72872324  0.13178547  1
  O2-  O128  1  0.39746490  0.74526968  0.35878726  1
  O2-  O129  1  0.40088853  0.73447039  0.62017734  1
  O2-  O130  1  0.36532827  0.73870586  0.89837615  1
  O2-  O131  1  0.54039667  0.28385530  0.11214686  1
  O2-  O132  1  0.68046363  0.24843061  0.37327118  1
  O2-  O133  1  0.64387358  0.24489253  0.64416875  1
  O2-  O134  1  0.61188856  0.26159801  0.87365089  1
  O2-  O135  1  0.67919790  0.75197316  0.12828777  1
  O2-  O136  1  0.63899032  0.74773277  0.38118841  1
  O2-  O137  1  0.66504505  0.76678762  0.60826710  1
  O2-  O138  1  0.68506640  0.75378144  0.86322891  1
  O2-  O139  1  0.88005625  0.24673248  0.13331998  1
  O2-  O140  1  0.92879459  0.24800698  0.38470701  1
  O2-  O141  1  0.88386268  0.23024990  0.64324773  1
  O2-  O142  1  0.85627146  0.24937646  0.88422331  1
  O2-  O143  1  0.85473014  0.75456514  0.15365906  1
  O2-  O144  1  0.86586628  0.74810772  0.37816689  1
  O2-  O145  1  0.88258389  0.76129556  0.63597833  1
  O2-  O146  1  0.85006996  0.75261546  0.87549258  1
  O2-  O147  1  0.10054115  0.15076744  -0.00501911  1
  O2-  O148  1  0.11636647  0.17233713  0.26579420  1
  O2-  O149  1  0.10840420  0.15150572  0.48050247  1
  O2-  O150  1  0.13698662  0.11895546  0.75189169  1
  O2-  O151  1  0.11418928  0.64783470  -0.01016580  1
  O2-  O152  1  0.11786891  0.66300311  0.24411844  1
  O2-  O153  1  0.11270263  0.65100139  0.48244693  1
  O2-  O154  1  0.02034872  0.64453737  0.71818019  1
  O2-  O155  1  0.39641565  0.14476588  0.00667664  1
  O2-  O156  1  0.39836191  0.13929893  0.23957111  1
  O2-  O157  1  0.38832587  0.14833853  0.49315257  1
  O2-  O158  1  0.35697899  0.12415439  0.75144506  1
  O2-  O159  1  0.38658300  0.60321520  0.01428169  1
  O2-  O160  1  0.32341359  0.62037077  0.24017819  1
  O2-  O161  1  0.30838566  0.63762845  0.50555319  1
  O2-  O162  1  0.35716452  0.63251133  0.75985405  1
  O2-  O163  1  0.59179979  0.13345455  0.01261860  1
  O2-  O164  1  0.62079335  0.15219346  0.23256800  1
  O2-  O165  1  0.62079169  0.12517077  0.49667135  1
  O2-  O166  1  0.49932218  0.14776644  0.63679632  1
  O2-  O167  1  0.63618110  0.64772105  -0.00392769  1
  O2-  O168  1  0.67317815  0.63194923  0.25349881  1
  O2-  O169  1  0.59402564  0.60938425  0.48654940  1
  O2-  O170  1  0.61786250  0.65689885  0.73631812  1
  O2-  O171  1  0.88832412  0.11620896  0.00914676  1
  O2-  O172  1  0.82903676  0.13923071  0.27573534  1
  O2-  O173  1  0.90261083  0.12595034  0.50637704  1
  O2-  O174  1  0.84303458  0.11068509  0.75776987  1
  O2-  O175  1  0.85369642  0.64413252  0.00462761  1
  O2-  O176  1  0.87810520  0.62365561  0.26512052  1
  O2-  O177  1  0.87756493  0.63182039  0.51484443  1
  O2-  O178  1  0.84597783  0.64257271  0.75318583  1
  O2-  O179  1  0.08291430  0.34611379  0.00513301  1
  O2-  O180  1  0.11637455  0.34669924  0.26475135  1
  O2-  O181  1  0.10842355  0.33873446  0.48144144  1
  O2-  O182  1  0.11604114  0.39916996  0.74275244  1
  O2-  O183  1  0.12490143  0.85380414  -0.01298131  1
  O2-  O184  1  0.18937120  0.86866574  0.22788682  1
  O2-  O185  1  0.12147337  0.84192401  0.48907758  1
  O2-  O186  1  0.03637027  0.85341016  0.72949852  1
  O2-  O187  1  0.38889146  0.36819047  -0.01475310  1
  O2-  O188  1  0.37746361  0.27315591  0.33641593  1
  O2-  O189  1  0.40012645  0.36837872  0.51086412  1
  O2-  O190  1  0.43576155  0.35716780  0.76496059  1
  O2-  O191  1  0.42040454  0.86059810  0.01519020  1
  O2-  O192  1  0.40104450  0.87869778  0.24239759  1
  O2-  O193  1  0.39145454  0.86454152  0.49371490  1
  O2-  O194  1  0.40217775  0.85574976  0.75212455  1
  O2-  O195  1  0.57297964  0.39423537  -0.02175947  1
  O2-  O196  1  0.62796888  0.34967715  0.24975654  1
  O2-  O197  1  0.61297731  0.35963672  0.50441613  1
  O2-  O198  1  0.59813673  0.37801134  0.74131331  1
  O2-  O199  1  0.61677729  0.83020784  -0.00402807  1
  O2-  O200  1  0.62709581  0.85898585  0.24657910  1
  O2-  O201  1  0.59065480  0.88791664  0.49480067  1
  O2-  O202  1  0.61358520  0.85190587  0.74696431  1
  O2-  O203  1  0.89944300  0.36777372  0.00478543  1
  O2-  O204  1  0.84689503  0.35938787  0.26702655  1
  O2-  O205  1  0.87899642  0.35785404  0.50644737  1
  O2-  O206  1  0.90464949  0.37320331  0.76558476  1
  O2-  O207  1  0.89715877  0.85446993  0.01064719  1
  O2-  O208  1  0.91884363  0.86918834  0.27699042  1
  O2-  O209  1  0.91905150  0.87815889  0.50667872  1
  O2-  O210  1  0.86381929  0.87618727  0.75196837  1
  O2-  O211  1  0.02761659  -0.17324152  0.14834738  1
  O2-  O212  1  0.01201481  0.13986917  0.13591003  1
  O2-  O213  1  0.00759746  0.07936412  0.35153303  1
  O2-  O214  1  -0.01135118  0.13998433  0.86379698  1
  O2-  O215  1  -0.00514218  0.64619236  0.12646111  1
  O2-  O216  1  0.00182440  0.37913920  0.14947301  1
  O2-  O217  1  0.00174427  0.42490902  0.37322530  1
  O2-  O218  1  0.00422181  0.36103189  0.61242463  1
  O2-  O219  1  0.24101926  0.12833850  0.05486085  1
  O2-  O220  1  0.24321435  0.10939135  0.20783949  1
  O2-  O221  1  0.25324444  0.11333860  0.59231643  1
  O2-  O222  1  0.24093174  0.11417706  0.88614938  1
  O2-  O223  1  0.23162783  0.39504126  0.03424854  1
  O2-  O224  1  0.24955402  0.39670783  0.19544737  1
  O2-  O225  1  0.24119483  0.39036012  0.57753287  1
  O2-  O226  1  0.27874146  0.37954430  0.76454606  1
  O2-  O227  1  0.54471673  -0.02561777  0.05095335  1
  O2-  O228  1  0.50994768  0.01536216  0.20209080  1
  O2-  O229  1  0.50680415  0.15974498  0.36487043  1
  O2-  O230  1  0.49157075  0.14892727  0.86120077  1
  O2-  O231  1  0.50510301  0.64533948  -0.12099846  1
  O2-  O232  1  0.52610500  0.60955793  0.14241219  1
  O2-  O233  1  0.50148766  0.38337454  0.35791730  1
  O2-  O234  1  0.44533329  0.49151985  0.86277069  1
  O2-  O235  1  0.73856214  0.11646058  -0.09646696  1
  O2-  O236  1  0.74812103  -0.12698214  0.38394380  1
  O2-  O237  1  0.74986390  0.09473634  0.61070296  1
  O2-  O238  1  0.63918550  0.12924467  0.75912984  1
  O2-  O239  1  0.73973733  0.39857334  -0.04706348  1
  O2-  O240  1  0.74999025  0.35035446  0.12298125  1
  O2-  O241  1  0.76451524  0.36680715  0.63350540  1
  O2-  O242  1  0.74779254  0.36035027  0.80288320  1
