# generated using pymatgen
data_Gd19Ta56(WO20)8
_symmetry_space_group_name_H-M   'P 1'
_cell_length_a   15.51280987
_cell_length_b   15.48366494
_cell_length_c   15.18347149
_cell_angle_alpha   90.10978428
_cell_angle_beta   90.01697177
_cell_angle_gamma   89.89288551
_symmetry_Int_Tables_number   1
_chemical_formula_structural   Gd19Ta56(WO20)8
_chemical_formula_sum   'Gd19 Ta56 W8 O160'
_cell_volume   3646.98299455
_cell_formula_units_Z   1
loop_
 _symmetry_equiv_pos_site_id
 _symmetry_equiv_pos_as_xyz
  1  'x, y, z'
loop_
 _atom_type_symbol
 _atom_type_oxidation_number
  Gd3+  3.0
  Ta5+  5.0
  W6+  6.0
  O2-  -2.0
loop_
 _atom_site_type_symbol
 _atom_site_label
 _atom_site_symmetry_multiplicity
 _atom_site_fract_x
 _atom_site_fract_y
 _atom_site_fract_z
 _atom_site_occupancy
  Gd3+  Gd0  1  -0.02535749  0.74435814  -0.01718059  1
  Gd3+  Gd1  1  0.52143323  0.75050225  0.76290886  1
  Gd3+  Gd2  1  0.52144596  0.76642475  0.51293294  1
  Gd3+  Gd3  1  0.77987541  0.24558875  0.48908031  1
  Gd3+  Gd4  1  0.25562056  0.25657929  -0.02923119  1
  Gd3+  Gd5  1  -0.01633630  0.74984404  0.72668846  1
  Gd3+  Gd6  1  0.74041662  0.25370465  0.00114253  1
  Gd3+  Gd7  1  0.49197699  0.24556369  0.25434082  1
  Gd3+  Gd8  1  0.22321461  0.23902877  0.25734124  1
  Gd3+  Gd9  1  0.52156850  0.76709777  0.24346185  1
  Gd3+  Gd10  1  0.03391702  0.23598167  0.47974690  1
  Gd3+  Gd11  1  0.48790238  0.24508812  0.50036608  1
  Gd3+  Gd12  1  0.23138709  0.75768074  0.00596222  1
  Gd3+  Gd13  1  -0.03838166  0.25860507  0.02386463  1
  Gd3+  Gd14  1  -0.02884330  0.24678174  0.25685231  1
  Gd3+  Gd15  1  0.73869661  0.24900143  0.24400039  1
  Gd3+  Gd16  1  0.51254966  0.25085423  -0.00233387  1
  Gd3+  Gd17  1  0.76054970  0.25326481  0.74626695  1
  Gd3+  Gd18  1  0.26496334  0.74289788  0.74306775  1
  Ta5+  Ta19  1  0.33496918  0.61970792  0.88393495  1
  Ta5+  Ta20  1  0.89231832  0.38381575  0.61863090  1
  Ta5+  Ta21  1  0.84182799  0.87190029  0.85822745  1
  Ta5+  Ta22  1  0.13600442  0.38099007  0.61987332  1
  Ta5+  Ta23  1  0.36402794  0.88026665  0.62491725  1
  Ta5+  Ta24  1  0.83390861  0.84599397  0.12117141  1
  Ta5+  Ta25  1  0.36625864  0.62572173  0.12382906  1
  Ta5+  Ta26  1  0.63876589  0.63597987  0.37735746  1
  Ta5+  Ta27  1  0.36417759  0.12017335  0.11867692  1
  Ta5+  Ta28  1  0.89783441  0.39205942  0.86454803  1
  Ta5+  Ta29  1  0.38443430  0.87333214  0.11776964  1
  Ta5+  Ta30  1  0.13468812  0.13572817  0.62603790  1
  Ta5+  Ta31  1  0.36362350  0.37846591  0.12340499  1
  Ta5+  Ta32  1  0.38862512  0.36974739  0.63329022  1
  Ta5+  Ta33  1  0.83120020  0.85573423  0.37753576  1
  Ta5+  Ta34  1  0.11695987  0.63758205  0.13456105  1
  Ta5+  Ta35  1  0.10813511  0.39141426  0.13063585  1
  Ta5+  Ta36  1  0.81186622  0.64916140  0.37454848  1
  Ta5+  Ta37  1  0.82649984  0.62516735  0.63088475  1
  Ta5+  Ta38  1  0.14389390  0.62560095  0.61735580  1
  Ta5+  Ta39  1  0.39215710  0.61936664  0.62336573  1
  Ta5+  Ta40  1  0.65274935  0.64192290  0.11510985  1
  Ta5+  Ta41  1  0.90151930  0.10417084  0.86879675  1
  Ta5+  Ta42  1  0.66795853  0.87496707  0.63884073  1
  Ta5+  Ta43  1  0.85974550  0.40703856  0.13726212  1
  Ta5+  Ta44  1  0.38085774  0.87282745  0.88377228  1
  Ta5+  Ta45  1  0.16188569  0.61962435  0.87272703  1
  Ta5+  Ta46  1  0.12812924  0.88060651  0.86414071  1
  Ta5+  Ta47  1  0.67043049  0.62641498  0.86162811  1
  Ta5+  Ta48  1  0.39731832  0.38714460  0.86165192  1
  Ta5+  Ta49  1  0.85112802  0.40727271  0.38028916  1
  Ta5+  Ta50  1  0.86486885  0.09576489  0.12632536  1
  Ta5+  Ta51  1  0.66373907  0.86169457  0.11219738  1
  Ta5+  Ta52  1  0.83971698  0.62678401  0.85483482  1
  Ta5+  Ta53  1  0.35259877  0.40744729  0.37716116  1
  Ta5+  Ta54  1  0.38625585  0.11741093  0.63513935  1
  Ta5+  Ta55  1  0.15304854  0.88893776  0.62797803  1
  Ta5+  Ta56  1  0.65559672  0.62565900  0.63402939  1
  Ta5+  Ta57  1  0.62756948  0.37811688  0.61189085  1
  Ta5+  Ta58  1  0.39303638  0.11346097  0.86280328  1
  Ta5+  Ta59  1  0.10361643  0.38949269  0.85713295  1
  Ta5+  Ta60  1  0.37868667  0.88852973  0.37664329  1
  Ta5+  Ta61  1  0.15314927  0.42495919  0.37848047  1
  Ta5+  Ta62  1  0.62902787  0.11981971  0.61356745  1
  Ta5+  Ta63  1  0.66376320  0.86877311  0.37668008  1
  Ta5+  Ta64  1  0.14064719  0.89605976  0.39092865  1
  Ta5+  Ta65  1  0.13707296  0.88626405  0.13510834  1
  Ta5+  Ta66  1  0.67292561  0.87559558  0.86048450  1
  Ta5+  Ta67  1  0.59938082  0.11299723  0.85883431  1
  Ta5+  Ta68  1  0.10933113  0.11498502  0.11069036  1
  Ta5+  Ta69  1  0.43569346  0.63047566  0.37076570  1
  Ta5+  Ta70  1  0.10549558  0.11745354  0.86173543  1
  Ta5+  Ta71  1  0.64832030  0.10841912  0.37688911  1
  Ta5+  Ta72  1  0.61464984  0.39317728  0.12451333  1
  Ta5+  Ta73  1  0.60109607  0.39026059  0.85826398  1
  Ta5+  Ta74  1  0.61831591  0.10914650  0.12203686  1
  W6+  W75  1  0.85565376  0.09704064  0.37514971  1
  W6+  W76  1  0.88918442  0.11680801  0.61955482  1
  W6+  W77  1  0.07594259  0.65115375  0.38616163  1
  W6+  W78  1  0.15392481  0.08448856  0.36525565  1
  W6+  W79  1  0.81717680  0.65825846  0.11598390  1
  W6+  W80  1  0.35112638  0.09204009  0.38052826  1
  W6+  W81  1  0.64327924  0.38737595  0.38000145  1
  W6+  W82  1  0.83106193  0.87551722  0.63263247  1
  O2-  O83  1  0.08577180  -0.00581276  0.10157849  1
  O2-  O84  1  0.06182192  -0.01747477  0.36527164  1
  O2-  O85  1  0.15320329  0.01446940  0.64007402  1
  O2-  O86  1  0.15327466  0.00452379  0.87936813  1
  O2-  O87  1  0.11052060  0.51008481  0.12083166  1
  O2-  O88  1  0.07445193  0.51394311  0.37599502  1
  O2-  O89  1  0.16211107  0.49853755  0.59485808  1
  O2-  O90  1  0.15087262  0.49175761  0.89906205  1
  O2-  O91  1  0.37392513  0.00368628  0.12552374  1
  O2-  O92  1  0.43921559  -0.01147461  0.35511396  1
  O2-  O93  1  0.39809316  -0.00537555  0.65377286  1
  O2-  O94  1  0.35710416  -0.00206497  0.87121890  1
  O2-  O95  1  0.35017584  0.49518146  0.14529267  1
  O2-  O96  1  0.42174475  0.50519601  0.35361130  1
  O2-  O97  1  0.38741821  0.49498407  0.63178433  1
  O2-  O98  1  0.34250260  0.49275294  0.86201613  1
  O2-  O99  1  0.63192688  -0.00865298  0.12164545  1
  O2-  O100  1  0.63047665  -0.01104687  0.37322046  1
  O2-  O101  1  0.65188013  0.00366110  0.62611736  1
  O2-  O102  1  0.65580824  0.00850251  0.86327055  1
  O2-  O103  1  0.61867147  0.51253198  0.12325415  1
  O2-  O104  1  0.63426541  0.51557749  0.37445427  1
  O2-  O105  1  0.64711111  0.49528586  0.62026891  1
  O2-  O106  1  0.65690488  0.49444716  0.86420148  1
  O2-  O107  1  0.85157858  -0.02030244  0.11219129  1
  O2-  O108  1  0.86576918  -0.02801300  0.37101794  1
  O2-  O109  1  0.84757171  0.00248163  0.62345494  1
  O2-  O110  1  0.85527650  -0.00399102  0.88736731  1
  O2-  O111  1  0.84969116  0.52141821  0.12610273  1
  O2-  O112  1  0.85757696  0.52414700  0.38539514  1
  O2-  O113  1  0.85787931  0.49681658  0.61028135  1
  O2-  O114  1  0.84602580  0.49800548  0.87918680  1
  O2-  O115  1  0.09486692  0.24453672  0.14805089  1
  O2-  O116  1  0.08480275  0.21208180  0.34275905  1
  O2-  O117  1  0.17287855  0.26125890  0.60951023  1
  O2-  O118  1  0.14558975  0.27234405  0.87466019  1
  O2-  O119  1  0.10906410  0.76622607  0.12663696  1
  O2-  O120  1  0.11656583  0.77902975  0.38149072  1
  O2-  O121  1  0.14224328  0.75609210  0.64630919  1
  O2-  O122  1  0.16520516  0.75737312  0.85473035  1
  O2-  O123  1  0.30599287  0.25671159  0.12079776  1
  O2-  O124  1  0.43414550  0.20408282  0.37787359  1
  O2-  O125  1  0.37113739  0.24719141  0.60163818  1
  O2-  O126  1  0.39222473  0.25038855  0.88782007  1
  O2-  O127  1  0.36105093  0.75131072  0.09862068  1
  O2-  O128  1  0.42042454  0.76195426  0.38182573  1
  O2-  O129  1  0.40915850  0.75635099  0.62300337  1
  O2-  O130  1  0.34055412  0.75433693  0.89722694  1
  O2-  O131  1  0.62370836  0.25035878  0.11843550  1
  O2-  O132  1  0.65994514  0.24545981  0.37719077  1
  O2-  O133  1  0.67045538  0.24857419  0.59954459  1
  O2-  O134  1  0.61504079  0.25138110  0.88029460  1
  O2-  O135  1  0.59400763  0.75242720  0.10484948  1
  O2-  O136  1  0.59401652  0.76237902  0.37940455  1
  O2-  O137  1  0.61756326  0.75212115  0.64642609  1
  O2-  O138  1  0.64573877  0.75007754  0.85095838  1
  O2-  O139  1  0.86561263  0.25141622  0.14652541  1
  O2-  O140  1  0.85180644  0.24461463  0.35027450  1
  O2-  O141  1  0.85103971  0.25859490  0.62097148  1
  O2-  O142  1  0.83660646  0.27736740  0.87692847  1
  O2-  O143  1  0.91934736  0.74831447  0.11729714  1
  O2-  O144  1  0.89072887  0.74291659  0.38318173  1
  O2-  O145  1  0.86210390  0.74591482  0.64398422  1
  O2-  O146  1  0.89253541  0.74767841  0.84562674  1
  O2-  O147  1  0.15182010  0.13986735  -0.00507976  1
  O2-  O148  1  0.17159435  0.10126759  0.21706706  1
  O2-  O149  1  0.13467577  0.12676399  0.49981814  1
  O2-  O150  1  0.15561187  0.14920488  0.75547304  1
  O2-  O151  1  0.11108615  0.65346405  -0.00459242  1
  O2-  O152  1  0.08403846  0.64130316  0.25078600  1
  O2-  O153  1  0.06961667  0.64296170  0.52317019  1
  O2-  O154  1  0.12852339  0.61379006  0.74431452  1
  O2-  O155  1  0.33447251  0.13023967  -0.00661324  1
  O2-  O156  1  0.34642557  0.14539146  0.24202181  1
  O2-  O157  1  0.34642614  0.09653596  0.52097214  1
  O2-  O158  1  0.33599593  0.14007499  0.75033002  1
  O2-  O159  1  0.38392154  0.60471070  0.00263905  1
  O2-  O160  1  0.42360999  0.64522538  0.23597777  1
  O2-  O161  1  0.42746914  0.62430206  0.50281129  1
  O2-  O162  1  0.38455705  0.64503538  0.75632099  1
  O2-  O163  1  0.64463066  0.13474532  -0.00572699  1
  O2-  O164  1  0.59201842  0.13217068  0.25205279  1
  O2-  O165  1  0.58192482  0.12755782  0.48856431  1
  O2-  O166  1  0.65063943  0.14769261  0.74245658  1
  O2-  O167  1  0.65456279  0.63087801  -0.01473297  1
  O2-  O168  1  0.62152469  0.65407265  0.24353138  1
  O2-  O169  1  0.62228841  0.64537598  0.51268174  1
  O2-  O170  1  0.58542917  0.61603146  0.75001202  1
  O2-  O171  1  0.85438309  0.14360910  -0.00747517  1
  O2-  O172  1  0.91565055  0.10855639  0.24255346  1
  O2-  O173  1  0.91838534  0.14617082  0.48443188  1
  O2-  O174  1  0.84971631  0.13541271  0.76234956  1
  O2-  O175  1  0.86020612  0.64782843  -0.02196603  1
  O2-  O176  1  0.80996720  0.64679355  0.25270603  1
  O2-  O177  1  0.80829805  0.63827332  0.51041573  1
  O2-  O178  1  0.91545950  0.61530358  0.74328712  1
  O2-  O179  1  0.16748390  0.35914107  0.03095594  1
  O2-  O180  1  0.14169504  0.37968406  0.25457312  1
  O2-  O181  1  0.11292515  0.36534946  0.47962048  1
  O2-  O182  1  0.15815935  0.38925838  0.74089798  1
  O2-  O183  1  0.10159667  0.85471539  -0.01373304  1
  O2-  O184  1  0.15797268  0.89540987  0.25244233  1
  O2-  O185  1  0.10047338  0.89488755  0.51529794  1
  O2-  O186  1  0.08597588  0.87980970  0.74384329  1
  O2-  O187  1  0.34499753  0.37570960  -0.00351050  1
  O2-  O188  1  0.37918794  0.35279487  0.25758834  1
  O2-  O189  1  0.38868648  0.37646159  0.49159665  1
  O2-  O190  1  0.34506239  0.35160874  0.74804642  1
  O2-  O191  1  0.43103307  0.88349926  -0.00193820  1
  O2-  O192  1  0.37809020  0.86107537  0.24705659  1
  O2-  O193  1  0.42006408  0.88521855  0.50525644  1
  O2-  O194  1  0.40596151  0.84858382  0.75968334  1
  O2-  O195  1  0.64651419  0.36971065  -0.00285084  1
  O2-  O196  1  0.58710315  0.36370182  0.24899642  1
  O2-  O197  1  0.57617128  0.36503570  0.49306396  1
  O2-  O198  1  0.65215516  0.35566253  0.74304937  1
  O2-  O199  1  0.66299128  0.86947778  -0.01473290  1
  O2-  O200  1  0.64322001  0.85612069  0.24638518  1
  O2-  O201  1  0.63793488  0.86171354  0.51286357  1
  O2-  O202  1  0.59020963  0.88333786  0.74940751  1
  O2-  O203  1  0.85254472  0.36784338  0.01281903  1
  O2-  O204  1  0.91191623  0.38865163  0.26371285  1
  O2-  O205  1  0.91495913  0.35417548  0.48229440  1
  O2-  O206  1  0.85141910  0.37440654  0.74156983  1
  O2-  O207  1  0.86662827  0.84743977  -0.01719946  1
  O2-  O208  1  0.83421259  0.84933846  0.24360225  1
  O2-  O209  1  0.82159852  0.85769381  0.50763386  1
  O2-  O210  1  0.91077327  0.87910783  0.74513443  1
  O2-  O211  1  0.00166977  0.17966702  -0.09075269  1
  O2-  O212  1  -0.01315523  0.12591778  0.09292389  1
  O2-  O213  1  0.01861103  0.16800591  0.62943320  1
  O2-  O214  1  0.00601878  0.05873989  0.81170650  1
  O2-  O215  1  0.00333114  0.36766623  -0.06072622  1
  O2-  O216  1  -0.01212780  0.37890536  0.11836655  1
  O2-  O217  1  0.01410321  0.37392069  0.62520570  1
  O2-  O218  1  -0.00105488  0.42275026  0.79353145  1
  O2-  O219  1  0.25208593  -0.11621487  0.09116315  1
  O2-  O220  1  0.26315973  -0.05851188  0.38690109  1
  O2-  O221  1  0.26064822  -0.13193286  0.55503403  1
  O2-  O222  1  0.25810035  -0.11526006  0.71314779  1
  O2-  O223  1  0.23984210  0.63781671  0.12956355  1
  O2-  O224  1  0.25206669  0.32562912  0.37273666  1
  O2-  O225  1  0.25543401  0.48796266  0.40169202  1
  O2-  O226  1  0.26963822  0.64204453  0.61508319  1
  O2-  O227  1  0.49592661  0.11589457  -0.05706964  1
  O2-  O228  1  0.48516562  0.15339535  0.11975035  1
  O2-  O229  1  0.50561896  0.14805411  0.62900818  1
  O2-  O230  1  0.49542733  0.09058034  0.78863928  1
  O2-  O231  1  0.49937021  0.38458923  -0.05889320  1
  O2-  O232  1  0.48551103  0.35351164  0.11415382  1
  O2-  O233  1  0.50721255  0.34757045  0.63950234  1
  O2-  O234  1  0.49782730  0.42002532  0.78988873  1
  O2-  O235  1  0.74466988  0.13408430  0.13125182  1
  O2-  O236  1  0.74984276  0.10725933  0.29805946  1
  O2-  O237  1  0.74510694  0.10458353  0.46684198  1
  O2-  O238  1  0.75231221  -0.15270120  0.74952135  1
  O2-  O239  1  0.73891474  0.37154284  0.14215120  1
  O2-  O240  1  0.75207969  0.38737082  0.30492754  1
  O2-  O241  1  0.75130867  0.38952874  0.47362707  1
  O2-  O242  1  0.74845531  0.63260477  0.74355801  1
