# generated using pymatgen
data_Gd19Ta56(WO20)8
_symmetry_space_group_name_H-M   'P 1'
_cell_length_a   15.61334584
_cell_length_b   15.58525169
_cell_length_c   15.19767136
_cell_angle_alpha   89.89055138
_cell_angle_beta   90.19440547
_cell_angle_gamma   89.86372904
_symmetry_Int_Tables_number   1
_chemical_formula_structural   Gd19Ta56(WO20)8
_chemical_formula_sum   'Gd19 Ta56 W8 O160'
_cell_volume   3698.13125597
_cell_formula_units_Z   1
loop_
 _symmetry_equiv_pos_site_id
 _symmetry_equiv_pos_as_xyz
  1  'x, y, z'
loop_
 _atom_type_symbol
 _atom_type_oxidation_number
  Gd3+  3.0
  Ta5+  5.0
  W6+  6.0
  O2-  -2.0
loop_
 _atom_site_type_symbol
 _atom_site_label
 _atom_site_symmetry_multiplicity
 _atom_site_fract_x
 _atom_site_fract_y
 _atom_site_fract_z
 _atom_site_occupancy
  Gd3+  Gd0  1  0.52681812  0.24142638  0.47995361  1
  Gd3+  Gd1  1  0.03771472  0.75315924  0.26096141  1
  Gd3+  Gd2  1  0.78259822  0.24822644  -0.01649370  1
  Gd3+  Gd3  1  0.00662104  0.25044512  0.01801241  1
  Gd3+  Gd4  1  0.01975126  0.25203758  0.50859711  1
  Gd3+  Gd5  1  0.74061550  0.74423645  0.49316886  1
  Gd3+  Gd6  1  0.30537950  0.28652379  0.51635088  1
  Gd3+  Gd7  1  0.48837134  0.24128353  -0.01308413  1
  Gd3+  Gd8  1  0.52565996  0.74326570  0.77225198  1
  Gd3+  Gd9  1  0.25474866  0.75753178  0.00098598  1
  Gd3+  Gd10  1  0.23863033  0.75852755  0.50510689  1
  Gd3+  Gd11  1  0.47962462  0.74786582  0.21857013  1
  Gd3+  Gd12  1  -0.00946618  0.75575099  0.49585307  1
  Gd3+  Gd13  1  0.00274722  0.25452837  0.77105460  1
  Gd3+  Gd14  1  0.48949721  0.23601049  0.24329702  1
  Gd3+  Gd15  1  0.73204994  0.75144088  0.19043924  1
  Gd3+  Gd16  1  0.75312442  0.74493866  0.76599649  1
  Gd3+  Gd17  1  0.24246539  0.76503123  0.74546427  1
  Gd3+  Gd18  1  0.26181523  0.75121672  0.27730364  1
  Ta5+  Ta19  1  0.13701504  0.38765317  0.12462200  1
  Ta5+  Ta20  1  0.88953959  0.61783972  0.36302885  1
  Ta5+  Ta21  1  0.59199820  0.61495008  0.09855694  1
  Ta5+  Ta22  1  0.63637518  0.37211177  0.61689349  1
  Ta5+  Ta23  1  0.89390771  0.85654773  0.89006152  1
  Ta5+  Ta24  1  0.61434595  0.61765859  0.90620141  1
  Ta5+  Ta25  1  0.15099086  0.13349312  0.37752441  1
  Ta5+  Ta26  1  0.12270393  0.94118247  0.39099434  1
  Ta5+  Ta27  1  0.36790456  0.37487888  0.85839136  1
  Ta5+  Ta28  1  0.87826282  0.36948778  0.62622909  1
  Ta5+  Ta29  1  0.13465729  0.38641497  0.88453783  1
  Ta5+  Ta30  1  0.33844180  0.61816367  0.13317773  1
  Ta5+  Ta31  1  0.88285574  0.37072971  0.37774894  1
  Ta5+  Ta32  1  0.38440933  0.42360798  0.35688279  1
  Ta5+  Ta33  1  0.11614767  0.60389832  0.39336379  1
  Ta5+  Ta34  1  0.63190296  0.87491115  0.34183932  1
  Ta5+  Ta35  1  0.90100053  0.87521181  0.14280951  1
  Ta5+  Ta36  1  0.65338155  0.11627873  0.35145199  1
  Ta5+  Ta37  1  0.62648371  0.37302322  0.87333674  1
  Ta5+  Ta38  1  0.63078729  0.37183958  0.12495387  1
  Ta5+  Ta39  1  0.34679908  0.10237998  0.35309457  1
  Ta5+  Ta40  1  0.33905824  0.89281064  0.13628046  1
  Ta5+  Ta41  1  0.88326230  0.62267443  0.90011891  1
  Ta5+  Ta42  1  0.12412720  0.63005976  0.88677855  1
  Ta5+  Ta43  1  0.65251120  0.11123186  0.87473932  1
  Ta5+  Ta44  1  0.15589313  0.13053790  0.89688423  1
  Ta5+  Ta45  1  0.38560600  0.61292858  0.39872243  1
  Ta5+  Ta46  1  0.65202584  0.37338283  0.34781494  1
  Ta5+  Ta47  1  0.57867164  0.86591033  0.58401344  1
  Ta5+  Ta48  1  0.37878510  0.89208725  0.62076337  1
  Ta5+  Ta49  1  0.89148099  0.88133404  0.35676603  1
  Ta5+  Ta50  1  0.88731353  0.12412650  0.37990855  1
  Ta5+  Ta51  1  0.86829272  0.61850460  0.62979944  1
  Ta5+  Ta52  1  0.58586648  0.87871549  0.08963059  1
  Ta5+  Ta53  1  0.84167310  0.11695283  0.14715766  1
  Ta5+  Ta54  1  0.16961010  0.62276886  0.14074363  1
  Ta5+  Ta55  1  0.16775486  0.88939351  0.14303135  1
  Ta5+  Ta56  1  0.90278565  0.61846203  0.15216598  1
  Ta5+  Ta57  1  0.84002634  0.37788633  0.14644976  1
  Ta5+  Ta58  1  0.32493125  0.13017512  0.89169830  1
  Ta5+  Ta59  1  0.93235011  0.10414393  0.63214475  1
  Ta5+  Ta60  1  0.90002319  0.10208787  0.89015576  1
  Ta5+  Ta61  1  0.37015899  0.61689292  0.62601824  1
  Ta5+  Ta62  1  0.15197823  0.36889271  0.37642383  1
  Ta5+  Ta63  1  0.10843429  0.61847284  0.63263466  1
  Ta5+  Ta64  1  0.09002650  0.89309789  0.63111244  1
  Ta5+  Ta65  1  0.37047339  0.38082651  0.11080212  1
  Ta5+  Ta66  1  0.63561463  0.11615770  0.12322268  1
  Ta5+  Ta67  1  0.14357345  0.37961488  0.64583870  1
  Ta5+  Ta68  1  0.34562934  0.12970609  0.65391175  1
  Ta5+  Ta69  1  0.63109762  0.86553982  0.91024319  1
  Ta5+  Ta70  1  0.57427946  0.61317063  0.57913170  1
  Ta5+  Ta71  1  0.36583468  0.61986247  0.87415805  1
  Ta5+  Ta72  1  0.39750384  0.87711606  0.39828590  1
  Ta5+  Ta73  1  0.32766661  0.12955206  0.10368722  1
  Ta5+  Ta74  1  0.12370653  0.12625138  0.64361643  1
  W6+  W75  1  0.16405679  0.13810734  0.12071788  1
  W6+  W76  1  0.12022221  0.88807076  0.88884539  1
  W6+  W77  1  0.88621561  0.38393913  0.88926830  1
  W6+  W78  1  0.30218782  0.38335629  0.68777148  1
  W6+  W79  1  0.64997163  0.62356697  0.34358945  1
  W6+  W80  1  0.61748742  0.11043099  0.62117389  1
  W6+  W81  1  0.84151091  0.87679270  0.62653716  1
  W6+  W82  1  0.36254417  0.88902410  0.87661629  1
  O2-  O83  1  0.15648857  0.00661680  0.13623177  1
  O2-  O84  1  0.05916259  0.04508314  0.36744357  1
  O2-  O85  1  0.05186764  0.01864142  0.63525422  1
  O2-  O86  1  0.14648204  0.01166711  0.89216078  1
  O2-  O87  1  0.12338171  0.50752111  0.13757023  1
  O2-  O88  1  0.10565978  0.47903783  0.39611976  1
  O2-  O89  1  0.10526032  0.49745290  0.63133043  1
  O2-  O90  1  0.14823591  0.51202100  0.87787590  1
  O2-  O91  1  0.35119829  0.01467664  0.13621594  1
  O2-  O92  1  0.41007272  0.00271347  0.38617609  1
  O2-  O93  1  0.39256125  0.01189730  0.61926471  1
  O2-  O94  1  0.32979182  0.01111189  0.88937824  1
  O2-  O95  1  0.36367889  0.49686532  0.14378005  1
  O2-  O96  1  0.46558957  0.51527066  0.36839929  1
  O2-  O97  1  0.34768545  0.50363304  0.63547930  1
  O2-  O98  1  0.34775725  0.50178333  0.86740927  1
  O2-  O99  1  0.60045326  0.00440533  0.10097919  1
  O2-  O100  1  0.66783704  -0.00918049  0.35134153  1
  O2-  O101  1  0.61427116  -0.02832861  0.61803324  1
  O2-  O102  1  0.64108427  -0.00774405  0.88975763  1
  O2-  O103  1  0.60207486  0.48691109  0.11150889  1
  O2-  O104  1  0.65488517  0.48980740  0.34718125  1
  O2-  O105  1  0.59585669  0.49434286  0.60253364  1
  O2-  O106  1  0.63137180  0.49246578  0.88756573  1
  O2-  O107  1  0.86968045  -0.00190917  0.14138342  1
  O2-  O108  1  0.87254476  0.00009642  0.37002352  1
  O2-  O109  1  0.86800337  0.00728769  0.62748187  1
  O2-  O110  1  0.90495999  -0.01698641  0.89413847  1
  O2-  O111  1  0.85973454  0.49762502  0.15156313  1
  O2-  O112  1  0.87686532  0.49447664  0.37369316  1
  O2-  O113  1  0.87005998  0.49942413  0.62355889  1
  O2-  O114  1  0.84504705  0.51279492  0.89506594  1
  O2-  O115  1  0.10139208  0.26726971  0.12510267  1
  O2-  O116  1  0.09893928  0.25554551  0.37951430  1
  O2-  O117  1  0.09511945  0.25371883  0.64542593  1
  O2-  O118  1  0.09522731  0.25938563  0.89473700  1
  O2-  O119  1  0.15313596  0.75354221  0.16346664  1
  O2-  O120  1  0.11496268  0.73787658  0.40154419  1
  O2-  O121  1  0.13440917  0.76288301  0.61400081  1
  O2-  O122  1  0.16506890  0.75346415  0.87784057  1
  O2-  O123  1  0.40479259  0.25148453  0.11330266  1
  O2-  O124  1  0.44013465  0.17801270  0.37427545  1
  O2-  O125  1  0.28684820  0.24205477  0.66189960  1
  O2-  O126  1  0.38093296  0.25127613  0.88724610  1
  O2-  O127  1  0.34566705  0.75369308  0.14446434  1
  O2-  O128  1  0.36571991  0.75010995  0.40437301  1
  O2-  O129  1  0.33561406  0.75827896  0.61901132  1
  O2-  O130  1  0.34948349  0.75409147  0.86714223  1
  O2-  O131  1  0.59929929  0.24024556  0.12945083  1
  O2-  O132  1  0.61550437  0.24044278  0.34702901  1
  O2-  O133  1  0.59812331  0.25700918  0.61027589  1
  O2-  O134  1  0.67603688  0.25470178  0.88035632  1
  O2-  O135  1  0.59500572  0.74949516  0.11319102  1
  O2-  O136  1  0.69083484  0.76253960  0.34035918  1
  O2-  O137  1  0.61152423  0.74043642  0.60945050  1
  O2-  O138  1  0.58564673  0.74763399  0.91885770  1
  O2-  O139  1  0.83796828  0.24408071  0.13451750  1
  O2-  O140  1  0.91926986  0.24792010  0.39354421  1
  O2-  O141  1  0.91110989  0.23872136  0.62539568  1
  O2-  O142  1  0.90531120  0.23950148  0.88992878  1
  O2-  O143  1  0.92593591  0.74694891  0.15796859  1
  O2-  O144  1  0.91916761  0.74922413  0.36090524  1
  O2-  O145  1  0.80779159  0.73895613  0.62753398  1
  O2-  O146  1  0.82950140  0.73891767  0.89627949  1
  O2-  O147  1  0.08746559  0.13001394  0.00725327  1
  O2-  O148  1  0.16597804  0.14740449  0.25824966  1
  O2-  O149  1  0.12268542  0.13974787  0.51151528  1
  O2-  O150  1  0.12247713  0.14281207  0.77114400  1
  O2-  O151  1  0.14485217  0.64043424  0.01062987  1
  O2-  O152  1  0.16684161  0.62413883  0.28028734  1
  O2-  O153  1  0.15710191  0.61875227  0.51549693  1
  O2-  O154  1  0.13863580  0.64328481  0.75074418  1
  O2-  O155  1  0.40457836  0.12186710  0.00102731  1
  O2-  O156  1  0.34805960  0.14581331  0.23713304  1
  O2-  O157  1  0.41129634  0.18669701  0.56215607  1
  O2-  O158  1  0.37970714  0.12879903  0.76930251  1
  O2-  O159  1  0.34236859  0.62851321  -0.00089811  1
  O2-  O160  1  0.37206601  0.64577893  0.27204165  1
  O2-  O161  1  0.31644867  0.63039941  0.50850988  1
  O2-  O162  1  0.32415849  0.63802124  0.74458638  1
  O2-  O163  1  0.59321571  0.13883472  -0.01458747  1
  O2-  O164  1  0.57434740  0.11100181  0.24636104  1
  O2-  O165  1  0.60561378  0.11465170  0.46597383  1
  O2-  O166  1  0.61334758  0.12183100  0.76223821  1
  O2-  O167  1  0.68491627  0.62293929  0.00879975  1
  O2-  O168  1  0.65551342  0.62564859  0.20572006  1
  O2-  O169  1  0.65462779  0.62535708  0.48607966  1
  O2-  O170  1  0.64312440  0.64912838  0.78501673  1
  O2-  O171  1  0.90189891  0.13087176  0.02096804  1
  O2-  O172  1  0.90928850  0.13281646  0.25542066  1
  O2-  O173  1  0.94024626  0.11590440  0.49702570  1
  O2-  O174  1  0.93446828  0.11302326  0.76617086  1
  O2-  O175  1  0.89523030  0.62731408  0.02749865  1
  O2-  O176  1  0.82056881  0.64539101  0.25583158  1
  O2-  O177  1  0.85135760  0.64134612  0.49431568  1
  O2-  O178  1  0.85921379  0.63268528  0.75647172  1
  O2-  O179  1  0.08499170  0.39290592  0.00367298  1
  O2-  O180  1  0.14769711  0.37759825  0.25376126  1
  O2-  O181  1  0.15509067  0.34853242  0.51494990  1
  O2-  O182  1  0.08804988  0.38010145  0.76558973  1
  O2-  O183  1  0.14589850  0.86147424  0.01958060  1
  O2-  O184  1  0.15348713  0.88088706  0.28607834  1
  O2-  O185  1  0.14632097  0.91158761  0.51480232  1
  O2-  O186  1  0.13534452  0.88541867  0.74407400  1
  O2-  O187  1  0.41043503  0.38741720  -0.00597235  1
  O2-  O188  1  0.39181483  0.36053643  0.24879675  1
  O2-  O189  1  0.42493139  0.35288329  0.45084568  1
  O2-  O190  1  0.42745870  0.37140928  0.75364390  1
  O2-  O191  1  0.34740567  0.87223864  0.00984928  1
  O2-  O192  1  0.34994144  0.87256841  0.27785574  1
  O2-  O193  1  0.31743742  0.88721914  0.50180316  1
  O2-  O194  1  0.32623521  0.88830351  0.73436284  1
  O2-  O195  1  0.58725586  0.35287435  -0.00272854  1
  O2-  O196  1  0.56812384  0.36460744  0.24508740  1
  O2-  O197  1  0.61443259  0.36450766  0.47190113  1
  O2-  O198  1  0.63176013  0.37594116  0.74106949  1
  O2-  O199  1  0.69418056  0.86338427  0.01958629  1
  O2-  O200  1  0.64020317  0.87311312  0.21605589  1
  O2-  O201  1  0.64376007  0.85762336  0.47382560  1
  O2-  O202  1  0.64025879  0.83682572  0.78271130  1
  O2-  O203  1  0.90252353  0.36326176  0.03595723  1
  O2-  O204  1  0.90786648  0.35969069  0.25494633  1
  O2-  O205  1  0.92984339  0.37562848  0.50463014  1
  O2-  O206  1  0.89957113  0.36735613  0.74702579  1
  O2-  O207  1  0.89382098  0.85893307  0.01981934  1
  O2-  O208  1  0.81719209  0.85908730  0.25382331  1
  O2-  O209  1  0.84471253  0.85227739  0.47606389  1
  O2-  O210  1  0.84237247  0.86269355  0.77128083  1
  O2-  O211  1  0.00208413  -0.17955990  -0.13268903  1
  O2-  O212  1  -0.02420354  -0.11274085  0.25214293  1
  O2-  O213  1  0.01095668  -0.11528541  0.41717817  1
  O2-  O214  1  -0.01875351  -0.15397737  0.61818548  1
  O2-  O215  1  0.00214048  0.62956397  -0.12007653  1
  O2-  O216  1  -0.02057329  0.61053644  0.26231922  1
  O2-  O217  1  -0.00084059  0.61454690  0.43496466  1
  O2-  O218  1  -0.01230341  0.65152790  0.62214452  1
  O2-  O219  1  0.24720624  0.17610726  -0.00273147  1
  O2-  O220  1  0.22632541  0.02455481  0.38121933  1
  O2-  O221  1  0.26956632  0.17872080  0.41829995  1
  O2-  O222  1  0.23499209  0.07293492  0.63952761  1
  O2-  O223  1  0.25232866  0.36369300  0.09469598  1
  O2-  O224  1  0.27200475  0.35834901  0.38495166  1
  O2-  O225  1  0.30487467  0.51917924  0.37281083  1
  O2-  O226  1  0.24708270  0.35626836  0.89738890  1
  O2-  O227  1  0.47340651  -0.12666767  0.14231507  1
  O2-  O228  1  0.51255939  -0.15346802  0.34172430  1
  O2-  O229  1  0.47647357  -0.12409407  0.51317733  1
  O2-  O230  1  0.48546211  -0.15199101  0.67469763  1
  O2-  O231  1  0.48661948  0.61988763  -0.12755721  1
  O2-  O232  1  0.47494650  0.62990673  0.12430077  1
  O2-  O233  1  0.47333718  0.62267594  0.50991603  1
  O2-  O234  1  0.48690717  0.63611431  0.67529866  1
  O2-  O235  1  0.74118023  0.12366237  0.05566083  1
  O2-  O236  1  0.73187972  0.11125053  0.21672471  1
  O2-  O237  1  0.76943365  0.14585425  0.38771229  1
  O2-  O238  1  0.77627539  0.11482248  0.87674379  1
  O2-  O239  1  0.73883100  0.36859378  0.05877639  1
  O2-  O240  1  0.72686448  0.36993192  0.21982896  1
  O2-  O241  1  0.76820914  0.34517713  0.38930431  1
  O2-  O242  1  0.75662652  0.36254519  0.60465622  1
