# generated using pymatgen
data_Gd19Ta56(WO20)8
_symmetry_space_group_name_H-M   'P 1'
_cell_length_a   15.52568051
_cell_length_b   15.45205918
_cell_length_c   15.26134596
_cell_angle_alpha   90.08229101
_cell_angle_beta   89.83936005
_cell_angle_gamma   89.94973102
_symmetry_Int_Tables_number   1
_chemical_formula_structural   Gd19Ta56(WO20)8
_chemical_formula_sum   'Gd19 Ta56 W8 O160'
_cell_volume   3661.23429551
_cell_formula_units_Z   1
loop_
 _symmetry_equiv_pos_site_id
 _symmetry_equiv_pos_as_xyz
  1  'x, y, z'
loop_
 _atom_type_symbol
 _atom_type_oxidation_number
  Gd3+  3.0
  Ta5+  5.0
  W6+  6.0
  O2-  -2.0
loop_
 _atom_site_type_symbol
 _atom_site_label
 _atom_site_symmetry_multiplicity
 _atom_site_fract_x
 _atom_site_fract_y
 _atom_site_fract_z
 _atom_site_occupancy
  Gd3+  Gd0  1  0.02348537  0.25546000  0.51641755  1
  Gd3+  Gd1  1  0.74347146  0.72127861  0.52319142  1
  Gd3+  Gd2  1  0.56805761  0.77649705  0.72089505  1
  Gd3+  Gd3  1  0.25290056  0.73650746  0.77945283  1
  Gd3+  Gd4  1  0.22785001  0.24173623  0.23368066  1
  Gd3+  Gd5  1  0.72697861  0.78121281  0.18493920  1
  Gd3+  Gd6  1  -0.00697278  0.26179282  0.75806781  1
  Gd3+  Gd7  1  0.31758338  0.22541067  -0.00081883  1
  Gd3+  Gd8  1  0.73317886  0.24787944  0.24678823  1
  Gd3+  Gd9  1  0.79792005  0.74451599  0.75212082  1
  Gd3+  Gd10  1  0.52882720  0.25940045  0.03214030  1
  Gd3+  Gd11  1  -0.01791928  0.25379312  -0.01625976  1
  Gd3+  Gd12  1  0.75686926  0.23563257  0.80688411  1
  Gd3+  Gd13  1  0.51992376  0.23827757  0.49655703  1
  Gd3+  Gd14  1  0.25970290  0.26511971  0.48877330  1
  Gd3+  Gd15  1  0.00092910  0.75734577  0.24838597  1
  Gd3+  Gd16  1  0.23330653  0.22088124  0.72762479  1
  Gd3+  Gd17  1  -0.00436589  0.75787392  0.49809684  1
  Gd3+  Gd18  1  0.51973338  0.73477557  0.48135051  1
  Ta5+  Ta19  1  0.08908641  0.63141774  0.87846078  1
  Ta5+  Ta20  1  0.94437735  0.91761251  0.63905687  1
  Ta5+  Ta21  1  0.13619078  0.38581430  0.87400792  1
  Ta5+  Ta22  1  0.09019414  0.06218088  0.61708003  1
  Ta5+  Ta23  1  0.12077657  0.63497832  0.11027759  1
  Ta5+  Ta24  1  0.13727863  0.62512432  0.62365059  1
  Ta5+  Ta25  1  0.88015862  0.12764635  0.39467254  1
  Ta5+  Ta26  1  0.37750215  0.62793914  0.35454459  1
  Ta5+  Ta27  1  0.38817556  0.87857171  0.12077544  1
  Ta5+  Ta28  1  0.10244862  0.41932882  0.61898156  1
  Ta5+  Ta29  1  0.87734006  0.38151152  0.14015188  1
  Ta5+  Ta30  1  0.11249441  0.87017148  0.63864040  1
  Ta5+  Ta31  1  0.41038488  0.12935739  0.82452292  1
  Ta5+  Ta32  1  0.61950215  0.10186987  0.60824600  1
  Ta5+  Ta33  1  0.60531878  0.10551805  0.15016510  1
  Ta5+  Ta34  1  0.15802506  0.11657315  0.91736423  1
  Ta5+  Ta35  1  0.38979842  0.65262718  0.10321540  1
  Ta5+  Ta36  1  0.87836064  0.40011613  0.88185538  1
  Ta5+  Ta37  1  0.92206099  0.61089556  0.63124984  1
  Ta5+  Ta38  1  0.88961324  0.13175363  0.14630703  1
  Ta5+  Ta39  1  0.59639437  0.40859640  0.15660266  1
  Ta5+  Ta40  1  0.43325321  0.08687582  0.16747578  1
  Ta5+  Ta41  1  0.60134090  0.62403499  0.87374762  1
  Ta5+  Ta42  1  0.64237991  0.87493971  0.36009568  1
  Ta5+  Ta43  1  0.82094632  0.10623140  0.63597058  1
  Ta5+  Ta44  1  0.68420986  0.91024041  0.60153200  1
  Ta5+  Ta45  1  0.14810407  0.87222258  0.37478905  1
  Ta5+  Ta46  1  0.63696062  0.35082104  0.63559397  1
  Ta5+  Ta47  1  0.13475092  0.62561120  0.36582389  1
  Ta5+  Ta48  1  0.05867048  0.12493404  0.13572445  1
  Ta5+  Ta49  1  0.34765128  0.38730605  0.86207642  1
  Ta5+  Ta50  1  0.59879484  0.11505932  0.89613139  1
  Ta5+  Ta51  1  0.55533195  0.87811708  0.11760405  1
  Ta5+  Ta52  1  0.59366369  0.11079280  0.35387644  1
  Ta5+  Ta53  1  0.40614459  0.87943076  0.85900153  1
  Ta5+  Ta54  1  0.40576894  0.39004952  0.33151443  1
  Ta5+  Ta55  1  0.63310893  0.56338625  0.64293969  1
  Ta5+  Ta56  1  0.13234837  0.87580023  0.89038494  1
  Ta5+  Ta57  1  0.89025546  0.87895504  0.88372962  1
  Ta5+  Ta58  1  0.88557454  0.37069526  0.38531598  1
  Ta5+  Ta59  1  0.66414724  0.62050578  0.33432870  1
  Ta5+  Ta60  1  0.37172705  0.64321627  0.61719198  1
  Ta5+  Ta61  1  0.11944927  0.38351601  0.12406411  1
  Ta5+  Ta62  1  0.84634325  0.39017241  0.62960511  1
  Ta5+  Ta63  1  0.61026078  0.38371008  0.37763598  1
  Ta5+  Ta64  1  0.08369973  0.89002702  0.12180161  1
  Ta5+  Ta65  1  0.87430436  0.61639708  0.37694664  1
  Ta5+  Ta66  1  0.38664642  0.12237899  0.35233272  1
  Ta5+  Ta67  1  0.86153784  0.62741463  0.14890869  1
  Ta5+  Ta68  1  0.11692562  0.11226650  0.37569870  1
  Ta5+  Ta69  1  0.85309886  0.88496025  0.39200413  1
  Ta5+  Ta70  1  0.55777653  0.65094146  0.11953957  1
  Ta5+  Ta71  1  0.35906687  0.41151047  0.09733771  1
  Ta5+  Ta72  1  0.38580811  0.86453732  0.60414758  1
  Ta5+  Ta73  1  0.42808216  0.40670904  0.62874087  1
  Ta5+  Ta74  1  0.91254990  0.89958659  0.13780982  1
  W6+  W75  1  0.92737243  0.64351451  0.89986941  1
  W6+  W76  1  0.62581115  0.38230918  0.89382417  1
  W6+  W77  1  0.64917176  0.87924002  0.88468979  1
  W6+  W78  1  0.38379053  0.87557954  0.37930041  1
  W6+  W79  1  0.81520354  0.03494480  0.96409024  1
  W6+  W80  1  0.09697712  0.38239636  0.36750546  1
  W6+  W81  1  0.36827093  0.09575184  0.58502586  1
  W6+  W82  1  0.43733694  0.63246424  0.86126449  1
  O2-  O83  1  0.10226471  0.01036035  0.13232396  1
  O2-  O84  1  0.15906649  -0.00410628  0.38304892  1
  O2-  O85  1  0.18106231  -0.01812585  0.61125970  1
  O2-  O86  1  0.13473924  0.00418282  0.87714922  1
  O2-  O87  1  0.14141262  0.50395571  0.11622661  1
  O2-  O88  1  0.09072936  0.51776406  0.35727897  1
  O2-  O89  1  0.19016961  0.50230732  0.61643842  1
  O2-  O90  1  0.12518328  0.50517189  0.87564988  1
  O2-  O91  1  0.37707781  0.00625466  0.09544197  1
  O2-  O92  1  0.36836009  0.01172666  0.39031753  1
  O2-  O93  1  0.38313908  -0.01942127  0.63645230  1
  O2-  O94  1  0.40173762  0.00513047  0.83623395  1
  O2-  O95  1  0.34406606  0.52718401  0.07677469  1
  O2-  O96  1  0.38409479  0.50125614  0.38094777  1
  O2-  O97  1  0.38325076  0.52370681  0.62060937  1
  O2-  O98  1  0.38759460  0.50042480  0.86759950  1
  O2-  O99  1  0.53911216  -0.00040627  0.17414514  1
  O2-  O100  1  0.58840675  -0.01776416  0.36173413  1
  O2-  O101  1  0.58777973  -0.02438546  0.63538482  1
  O2-  O102  1  0.59828605  -0.00070468  0.86140015  1
  O2-  O103  1  0.58966709  0.52571274  0.14531246  1
  O2-  O104  1  0.61433182  0.51429779  0.36617222  1
  O2-  O105  1  0.54745432  0.46694676  0.63196401  1
  O2-  O106  1  0.63682928  0.51093098  0.86034528  1
  O2-  O107  1  0.86659446  0.01211066  0.16398460  1
  O2-  O108  1  0.84132185  0.01082160  0.39711993  1
  O2-  O109  1  0.86269885  0.00731555  0.68744073  1
  O2-  O110  1  0.77349920  -0.06994970  0.87631349  1
  O2-  O111  1  0.83960526  0.49803584  0.15187010  1
  O2-  O112  1  0.88540226  0.49401057  0.36896844  1
  O2-  O113  1  0.85577401  0.51515465  0.60763293  1
  O2-  O114  1  0.89643183  0.51621837  0.89777372  1
  O2-  O115  1  0.10348841  0.24653207  0.13497803  1
  O2-  O116  1  0.14335328  0.24344817  0.38709625  1
  O2-  O117  1  0.15867873  0.31050225  0.59453657  1
  O2-  O118  1  0.11610873  0.23117394  0.86585654  1
  O2-  O119  1  0.07807185  0.75450948  0.11420401  1
  O2-  O120  1  0.08168227  0.74664327  0.37402982  1
  O2-  O121  1  0.08051892  0.74223049  0.62684163  1
  O2-  O122  1  0.14342123  0.74229681  0.89364162  1
  O2-  O123  1  0.26046831  0.32937142  0.10432153  1
  O2-  O124  1  0.34021846  0.28209963  0.34442668  1
  O2-  O125  1  0.25828431  0.16271138  0.59063850  1
  O2-  O126  1  0.36706448  0.25444397  0.85811481  1
  O2-  O127  1  0.34054782  0.76109667  0.12421601  1
  O2-  O128  1  0.42709895  0.74195956  0.36189967  1
  O2-  O129  1  0.45436921  0.74503495  0.62249526  1
  O2-  O130  1  0.47777101  0.77460901  0.84107164  1
  O2-  O131  1  0.61010836  0.24068803  0.15739011  1
  O2-  O132  1  0.61265276  0.25265321  0.36277444  1
  O2-  O133  1  0.64079511  0.22714960  0.58867247  1
  O2-  O134  1  0.61563900  0.24719539  0.90942830  1
  O2-  O135  1  0.61144735  0.76090750  0.09513860  1
  O2-  O136  1  0.64715987  0.73914267  0.39402155  1
  O2-  O137  1  0.72618697  0.64889716  0.65952723  1
  O2-  O138  1  0.66304493  0.73603043  0.83905494  1
  O2-  O139  1  0.83155403  0.26019408  0.13254680  1
  O2-  O140  1  0.93654580  0.25436612  0.39948589  1
  O2-  O141  1  0.95914270  0.33029091  0.62683282  1
  O2-  O142  1  0.88911956  0.25973817  0.86811046  1
  O2-  O143  1  0.87394610  0.76636598  0.15843149  1
  O2-  O144  1  0.86964180  0.75103110  0.39899383  1
  O2-  O145  1  0.87362642  0.72249229  0.60077702  1
  O2-  O146  1  0.85584349  0.76153044  0.89092952  1
  O2-  O147  1  0.05880748  0.12918834  0.00372992  1
  O2-  O148  1  0.12931311  0.12967112  0.25230682  1
  O2-  O149  1  0.10650429  0.13131737  0.50881499  1
  O2-  O150  1  0.09188023  0.16089208  0.69438593  1
  O2-  O151  1  0.06418642  0.61497820  0.00279163  1
  O2-  O152  1  0.12063457  0.64647386  0.23971075  1
  O2-  O153  1  0.12587785  0.63475769  0.49583497  1
  O2-  O154  1  0.14014055  0.63570029  0.75236460  1
  O2-  O155  1  0.41026715  0.19851464  0.10654052  1
  O2-  O156  1  0.32320081  0.12779263  0.24351427  1
  O2-  O157  1  0.38448844  0.17910171  0.47296239  1
  O2-  O158  1  0.36889907  0.16109649  0.71010543  1
  O2-  O159  1  0.40815647  0.66729223  -0.01839245  1
  O2-  O160  1  0.39588808  0.61492529  0.23482004  1
  O2-  O161  1  0.40154087  0.64115175  0.49155176  1
  O2-  O162  1  0.37093570  0.65126821  0.74358158  1
  O2-  O163  1  0.60694211  0.10758990  0.02656002  1
  O2-  O164  1  0.67930984  0.10384657  0.26140271  1
  O2-  O165  1  0.61531225  0.10772056  0.47520270  1
  O2-  O166  1  0.71198411  0.12528284  0.70100003  1
  O2-  O167  1  0.58867688  0.63087773  -0.00660909  1
  O2-  O168  1  0.59177710  0.66475991  0.24582738  1
  O2-  O169  1  0.60462121  0.61889888  0.53871001  1
  O2-  O170  1  0.56678173  0.62580326  0.73375219  1
  O2-  O171  1  0.88318388  0.13917595  0.01937126  1
  O2-  O172  1  0.85206640  0.15642405  0.27632016  1
  O2-  O173  1  0.85807864  0.15291447  0.52243314  1
  O2-  O174  1  0.87556153  0.18484766  0.71184119  1
  O2-  O175  1  0.89316485  0.63709316  0.03559986  1
  O2-  O176  1  0.93540186  0.62618969  0.26311455  1
  O2-  O177  1  0.94021232  0.61718410  0.48527284  1
  O2-  O178  1  0.91096762  0.63744117  0.75106059  1
  O2-  O179  1  0.10166707  0.35457089  0.00122622  1
  O2-  O180  1  0.15932387  0.37038405  0.24392213  1
  O2-  O181  1  0.05249834  0.40174338  0.50216863  1
  O2-  O182  1  0.08477243  0.38605182  0.73778278  1
  O2-  O183  1  0.15016305  0.88024842  0.01096389  1
  O2-  O184  1  0.10468104  0.87161776  0.25602901  1
  O2-  O185  1  0.10732751  0.86060996  0.49780484  1
  O2-  O186  1  0.16139257  0.85205821  0.75978406  1
  O2-  O187  1  0.40209373  0.35572251  -0.01595132  1
  O2-  O188  1  0.34856797  0.41562787  0.22355041  1
  O2-  O189  1  0.35032485  0.35575013  0.55150016  1
  O2-  O190  1  0.39365607  0.37833673  0.73953934  1
  O2-  O191  1  0.38585792  0.87160867  -0.02402726  1
  O2-  O192  1  0.39207759  0.88567800  0.24367055  1
  O2-  O193  1  0.46502926  0.87133736  0.50119806  1
  O2-  O194  1  0.35318617  0.84167675  0.73692891  1
  O2-  O195  1  0.63388282  0.37879480  0.04171257  1
  O2-  O196  1  0.67587859  0.38625041  0.25579451  1
  O2-  O197  1  0.64504352  0.37634414  0.49598205  1
  O2-  O198  1  0.62727901  0.34326792  0.75763750  1
  O2-  O199  1  0.59781023  0.90292315  0.00459214  1
  O2-  O200  1  0.60333055  0.85249417  0.24196856  1
  O2-  O201  1  0.62463648  0.79766509  0.57822182  1
  O2-  O202  1  0.69990190  0.86163906  0.71921801  1
  O2-  O203  1  0.88979522  0.37450266  0.01408746  1
  O2-  O204  1  0.85084065  0.35082228  0.26731528  1
  O2-  O205  1  0.84005699  0.37056712  0.50310648  1
  O2-  O206  1  0.76166840  0.30696018  0.66000605  1
  O2-  O207  1  0.88597722  0.91073398  0.01235895  1
  O2-  O208  1  0.92367670  0.88526363  0.28696788  1
  O2-  O209  1  0.91199285  0.88129647  0.51258411  1
  O2-  O210  1  0.89829121  0.85633813  0.74783395  1
  O2-  O211  1  0.01229105  -0.12621043  -0.11423735  1
  O2-  O212  1  -0.00280961  0.09454257  0.37509713  1
  O2-  O213  1  -0.01640824  0.02863992  0.56754582  1
  O2-  O214  1  0.04547583  -0.03108408  0.70679187  1
  O2-  O215  1  0.00552926  0.36497312  -0.12404018  1
  O2-  O216  1  -0.00153868  0.39129737  0.15464449  1
  O2-  O217  1  0.03099257  0.54513810  0.63312669  1
  O2-  O218  1  -0.12192884  0.40549529  0.75288833  1
  O2-  O219  1  0.22685418  0.11902443  0.01715025  1
  O2-  O220  1  0.25610626  -0.16596412  0.35342815  1
  O2-  O221  1  0.30106933  -0.15663222  0.52714311  1
  O2-  O222  1  0.26185687  0.13006766  0.84411706  1
  O2-  O223  1  0.24808638  0.38819609  -0.05662375  1
  O2-  O224  1  0.25639366  0.63389954  0.36301771  1
  O2-  O225  1  0.25450685  0.67779420  0.61868150  1
  O2-  O226  1  0.23613895  0.35847850  0.78991791  1
  O2-  O227  1  0.46828832  0.14561027  -0.05862727  1
  O2-  O228  1  0.49102908  0.15726612  0.27995301  1
  O2-  O229  1  0.49920730  0.12254068  0.59660551  1
  O2-  O230  1  0.52829946  0.14009692  0.78711719  1
  O2-  O231  1  0.47890693  0.37871675  0.12047738  1
  O2-  O232  1  0.51681353  0.39221323  0.27467369  1
  O2-  O233  1  0.49037744  0.36793655  0.43044654  1
  O2-  O234  1  0.51227160  0.31274023  0.61978558  1
  O2-  O235  1  0.72607093  0.11941346  -0.10757412  1
  O2-  O236  1  0.75845657  -0.13931174  0.30627469  1
  O2-  O237  1  0.73233971  -0.12664611  0.47272207  1
  O2-  O238  1  0.72998168  0.02804521  0.56963637  1
  O2-  O239  1  0.75952203  0.37025578  -0.11594677  1
  O2-  O240  1  0.77224093  0.64680809  0.26602448  1
  O2-  O241  1  0.76000332  0.60812650  0.43179555  1
  O2-  O242  1  0.70982760  0.46147152  0.64012025  1
