# generated using pymatgen
data_Gd19Ta56(WO20)8
_symmetry_space_group_name_H-M   'P 1'
_cell_length_a   15.46878866
_cell_length_b   15.53094813
_cell_length_c   15.45627827
_cell_angle_alpha   89.90659673
_cell_angle_beta   90.17241755
_cell_angle_gamma   89.94171211
_symmetry_Int_Tables_number   1
_chemical_formula_structural   Gd19Ta56(WO20)8
_chemical_formula_sum   'Gd19 Ta56 W8 O160'
_cell_volume   3713.26918057
_cell_formula_units_Z   1
loop_
 _symmetry_equiv_pos_site_id
 _symmetry_equiv_pos_as_xyz
  1  'x, y, z'
loop_
 _atom_type_symbol
 _atom_type_oxidation_number
  Gd3+  3.0
  Ta5+  5.0
  W6+  6.0
  O2-  -2.0
loop_
 _atom_site_type_symbol
 _atom_site_label
 _atom_site_symmetry_multiplicity
 _atom_site_fract_x
 _atom_site_fract_y
 _atom_site_fract_z
 _atom_site_occupancy
  Gd3+  Gd0  1  0.27697750  0.25589361  0.00299668  1
  Gd3+  Gd1  1  0.74261878  0.25386578  0.48676329  1
  Gd3+  Gd2  1  -0.01738217  0.75767667  0.48165459  1
  Gd3+  Gd3  1  0.78411836  0.73226802  0.23734709  1
  Gd3+  Gd4  1  0.50073050  0.24952592  0.75253241  1
  Gd3+  Gd5  1  0.23546413  0.74927260  0.77513742  1
  Gd3+  Gd6  1  0.00852681  0.25532974  0.49629370  1
  Gd3+  Gd7  1  0.25109098  0.24681601  0.49320340  1
  Gd3+  Gd8  1  -0.01353721  0.73478604  0.78773334  1
  Gd3+  Gd9  1  0.51119219  0.25343275  0.00652848  1
  Gd3+  Gd10  1  0.72652202  0.77258577  0.76001147  1
  Gd3+  Gd11  1  0.24384785  0.75151026  0.23429849  1
  Gd3+  Gd12  1  0.74268948  0.23840448  0.76911482  1
  Gd3+  Gd13  1  0.72958330  0.73891912  0.48305917  1
  Gd3+  Gd14  1  0.49477132  0.26164311  0.49405421  1
  Gd3+  Gd15  1  -0.00450779  0.26275898  0.74899133  1
  Gd3+  Gd16  1  0.48881000  0.72975080  0.74649006  1
  Gd3+  Gd17  1  0.48898817  0.73902280  0.48254573  1
  Gd3+  Gd18  1  0.72187410  0.25198420  0.19843305  1
  Ta5+  Ta19  1  0.63258665  0.64474434  0.10871614  1
  Ta5+  Ta20  1  0.61502570  0.38733309  0.89829889  1
  Ta5+  Ta21  1  0.35456449  0.62384398  0.36874922  1
  Ta5+  Ta22  1  0.14096085  0.37705492  0.12496371  1
  Ta5+  Ta23  1  0.39405653  0.87341636  0.87695466  1
  Ta5+  Ta24  1  0.80363988  0.63501008  0.89306105  1
  Ta5+  Ta25  1  0.86687285  0.37428641  0.34264680  1
  Ta5+  Ta26  1  0.10728940  0.89132699  0.87943134  1
  Ta5+  Ta27  1  0.85873771  0.88865608  0.88763540  1
  Ta5+  Ta28  1  0.56371362  0.87592835  0.87427647  1
  Ta5+  Ta29  1  0.63358585  0.63202434  0.87713419  1
  Ta5+  Ta30  1  0.86924949  0.13355642  0.10020859  1
  Ta5+  Ta31  1  0.11146285  0.63151069  0.63619175  1
  Ta5+  Ta32  1  0.87463396  0.11286619  0.34393399  1
  Ta5+  Ta33  1  0.62420837  0.10908271  0.37017171  1
  Ta5+  Ta34  1  0.12647918  0.38637584  0.62619493  1
  Ta5+  Ta35  1  0.11484130  0.62485325  0.11721593  1
  Ta5+  Ta36  1  0.17182099  0.13105319  0.13044137  1
  Ta5+  Ta37  1  0.37304391  0.12481338  0.36509429  1
  Ta5+  Ta38  1  0.37251522  0.11926198  0.62419138  1
  Ta5+  Ta39  1  0.88825120  0.88243051  0.12481412  1
  Ta5+  Ta40  1  0.35441270  0.62647890  0.61864357  1
  Ta5+  Ta41  1  0.39710347  0.63565596  0.12367561  1
  Ta5+  Ta42  1  0.87976971  0.11322244  0.65664830  1
  Ta5+  Ta43  1  0.87558380  0.91872115  0.37132740  1
  Ta5+  Ta44  1  0.61892220  0.10759140  0.88659326  1
  Ta5+  Ta45  1  0.57073304  0.10629070  0.12454538  1
  Ta5+  Ta46  1  0.55207679  0.43591572  0.14783156  1
  Ta5+  Ta47  1  0.37891983  0.38390580  0.62280010  1
  Ta5+  Ta48  1  0.39851846  0.87968571  0.12410710  1
  Ta5+  Ta49  1  0.13478202  0.37800632  0.87790536  1
  Ta5+  Ta50  1  0.38020599  0.39045259  0.87361468  1
  Ta5+  Ta51  1  0.12615009  0.13703134  0.88239318  1
  Ta5+  Ta52  1  0.36918032  0.11692341  0.87286899  1
  Ta5+  Ta53  1  0.13225439  0.88674781  0.11749440  1
  Ta5+  Ta54  1  0.61671322  0.39413090  0.34529300  1
  Ta5+  Ta55  1  0.86062840  0.39296078  0.64314264  1
  Ta5+  Ta56  1  0.62780933  0.11666279  0.62368962  1
  Ta5+  Ta57  1  0.39474882  0.38613897  0.12612602  1
  Ta5+  Ta58  1  0.90592727  0.36655117  0.09788593  1
  Ta5+  Ta59  1  0.38168949  0.87700609  0.61881436  1
  Ta5+  Ta60  1  0.84910239  0.39244017  0.86882470  1
  Ta5+  Ta61  1  0.11908166  0.12747478  0.36182864  1
  Ta5+  Ta62  1  0.40026130  0.12031967  0.12545476  1
  Ta5+  Ta63  1  0.39109963  0.87849979  0.36286868  1
  Ta5+  Ta64  1  0.37140981  0.37910523  0.36198901  1
  Ta5+  Ta65  1  0.11886908  0.63255700  0.37370410  1
  Ta5+  Ta66  1  0.87304884  0.13202324  0.90551753  1
  Ta5+  Ta67  1  0.63715827  0.86603552  0.35257183  1
  Ta5+  Ta68  1  0.59891319  0.87024941  0.61492661  1
  Ta5+  Ta69  1  0.64462785  0.38103418  0.64827291  1
  Ta5+  Ta70  1  0.12329671  0.12353967  0.63000449  1
  Ta5+  Ta71  1  0.13355434  0.87964751  0.62787770  1
  Ta5+  Ta72  1  0.86526466  0.63903388  0.64098025  1
  Ta5+  Ta73  1  0.12499823  0.38885688  0.37005587  1
  Ta5+  Ta74  1  0.85184870  0.88098622  0.63210535  1
  W6+  W75  1  0.61493633  0.62486603  0.61257244  1
  W6+  W76  1  0.95160393  0.55158181  0.32822283  1
  W6+  W77  1  0.64605398  0.88630135  0.10718783  1
  W6+  W78  1  0.10502938  0.62273897  0.90209639  1
  W6+  W79  1  0.36735886  0.63084221  0.88725459  1
  W6+  W80  1  0.91783224  0.62265670  0.11543107  1
  W6+  W81  1  0.12864036  0.87679199  0.37445934  1
  W6+  W82  1  0.61829626  0.60454923  0.33887150  1
  O2-  O83  1  0.16345278  0.00620406  0.12163595  1
  O2-  O84  1  0.10814508  0.01115498  0.37890952  1
  O2-  O85  1  0.10098270  0.00041940  0.62977755  1
  O2-  O86  1  0.09811374  0.01924087  0.88479687  1
  O2-  O87  1  0.13407422  0.49813714  0.10942945  1
  O2-  O88  1  0.13467958  0.51133794  0.39326744  1
  O2-  O89  1  0.11505813  0.50824824  0.62489566  1
  O2-  O90  1  0.09314448  0.48531596  0.89799550  1
  O2-  O91  1  0.37282378  -0.00134092  0.13918474  1
  O2-  O92  1  0.38220498  0.00334465  0.35970977  1
  O2-  O93  1  0.39406422  0.00057196  0.63763943  1
  O2-  O94  1  0.37505361  -0.00102406  0.85603948  1
  O2-  O95  1  0.43312624  0.51042680  0.14016286  1
  O2-  O96  1  0.36853802  0.49925690  0.36129898  1
  O2-  O97  1  0.37580716  0.50512633  0.64009636  1
  O2-  O98  1  0.40941106  0.50300546  0.86328423  1
  O2-  O99  1  0.64630617  0.01016706  0.11178624  1
  O2-  O100  1  0.62979738  -0.00763384  0.38353398  1
  O2-  O101  1  0.61358037  -0.00234241  0.61546380  1
  O2-  O102  1  0.59451669  -0.00184900  0.84654102  1
  O2-  O103  1  0.59881900  0.53011509  0.08271951  1
  O2-  O104  1  0.65316834  0.49200042  0.40372933  1
  O2-  O105  1  0.64035945  0.49327970  0.61695960  1
  O2-  O106  1  0.62120663  0.50585040  0.88624016  1
  O2-  O107  1  0.87184111  0.01444792  0.10974967  1
  O2-  O108  1  0.84688908  0.02620045  0.43418900  1
  O2-  O109  1  0.90172371  -0.00627129  0.63843658  1
  O2-  O110  1  0.87970179  0.00932631  0.90233757  1
  O2-  O111  1  0.90352990  0.48349222  0.11096919  1
  O2-  O112  1  0.83822129  0.48547480  0.36890332  1
  O2-  O113  1  0.86244354  0.51182867  0.62718365  1
  O2-  O114  1  0.82285129  0.50889532  0.86855571  1
  O2-  O115  1  0.20034171  0.25815587  0.13599381  1
  O2-  O116  1  0.10420961  0.26140789  0.37738340  1
  O2-  O117  1  0.11533503  0.25461846  0.63046676  1
  O2-  O118  1  0.07468434  0.25961104  0.87630247  1
  O2-  O119  1  0.14668998  0.75124555  0.11496603  1
  O2-  O120  1  0.17198437  0.74670463  0.37065411  1
  O2-  O121  1  0.09203633  0.76784518  0.66835345  1
  O2-  O122  1  0.11416425  0.76235327  0.87129869  1
  O2-  O123  1  0.39177937  0.25555751  0.10022172  1
  O2-  O124  1  0.37079563  0.25119570  0.40516570  1
  O2-  O125  1  0.36342032  0.25274380  0.60111940  1
  O2-  O126  1  0.40443154  0.25207982  0.89061839  1
  O2-  O127  1  0.34920288  0.75704006  0.12327598  1
  O2-  O128  1  0.37151802  0.74902403  0.37595365  1
  O2-  O129  1  0.39102501  0.74826621  0.60249786  1
  O2-  O130  1  0.32480010  0.76274945  0.88718529  1
  O2-  O131  1  0.62259768  0.21736573  0.09768071  1
  O2-  O132  1  0.74815384  0.15301715  0.36738165  1
  O2-  O133  1  0.66495808  0.25196611  0.62967429  1
  O2-  O134  1  0.59425792  0.24348494  0.88127211  1
  O2-  O135  1  0.68675412  0.76217926  0.12966993  1
  O2-  O136  1  0.66675723  0.73883189  0.34332651  1
  O2-  O137  1  0.55846294  0.74835704  0.61589141  1
  O2-  O138  1  0.57162255  0.74617589  0.87603969  1
  O2-  O139  1  0.82341530  0.26400124  0.08612392  1
  O2-  O140  1  0.87815061  0.27912298  0.42707430  1
  O2-  O141  1  0.85820776  0.24658471  0.66423138  1
  O2-  O142  1  0.87220800  0.25446391  0.84851991  1
  O2-  O143  1  0.89157357  0.75938321  0.12962025  1
  O2-  O144  1  0.76454570  0.86328118  0.39337329  1
  O2-  O145  1  0.89936738  0.77110769  0.66853174  1
  O2-  O146  1  0.85422684  0.75677385  0.86566021  1
  O2-  O147  1  0.15245639  0.15117812  0.00516292  1
  O2-  O148  1  0.10954870  0.13698374  0.23951712  1
  O2-  O149  1  0.13115760  0.14958505  0.50124602  1
  O2-  O150  1  0.09395208  0.13927184  0.75194432  1
  O2-  O151  1  0.03411723  0.63204152  0.02534636  1
  O2-  O152  1  0.13858468  0.62771593  0.24365695  1
  O2-  O153  1  0.08874527  0.65338822  0.51251605  1
  O2-  O154  1  0.14449182  0.63063618  0.76155754  1
  O2-  O155  1  0.36368776  0.11850766  -0.00267169  1
  O2-  O156  1  0.39060356  0.15277176  0.24956692  1
  O2-  O157  1  0.35625955  0.11836176  0.50050604  1
  O2-  O158  1  0.39324336  0.14809920  0.74807396  1
  O2-  O159  1  0.34815053  0.60946927  0.01923096  1
  O2-  O160  1  0.34523824  0.63137719  0.24054759  1
  O2-  O161  1  0.38529322  0.61803766  0.49604519  1
  O2-  O162  1  0.35818150  0.65486504  0.74606401  1
  O2-  O163  1  0.55432411  0.10213545  -0.00986331  1
  O2-  O164  1  0.61718030  0.13740813  0.25055641  1
  O2-  O165  1  0.64051933  0.14230046  0.49815150  1
  O2-  O166  1  0.62184542  0.14129454  0.74903473  1
  O2-  O167  1  0.67955983  0.65848894  -0.00642330  1
  O2-  O168  1  0.68681348  0.61519456  0.21631413  1
  O2-  O169  1  0.60301243  0.64637198  0.47309395  1
  O2-  O170  1  0.62177471  0.64593062  0.74983110  1
  O2-  O171  1  0.94533439  0.15806789  0.00187745  1
  O2-  O172  1  0.85302197  0.16271865  0.22807550  1
  O2-  O173  1  0.98715791  0.14588146  0.60047769  1
  O2-  O174  1  0.91045634  0.11569536  0.77326084  1
  O2-  O175  1  0.84796886  0.63062225  0.00331828  1
  O2-  O176  1  0.87840401  0.62523838  0.24116232  1
  O2-  O177  1  0.85941929  0.67680943  0.52094493  1
  O2-  O178  1  0.80960375  0.64250064  0.75123823  1
  O2-  O179  1  0.16313180  0.35380048  -0.00040649  1
  O2-  O180  1  0.14282235  0.38924487  0.25007072  1
  O2-  O181  1  0.10982024  0.36776931  0.50291662  1
  O2-  O182  1  0.10129852  0.37354319  0.75069076  1
  O2-  O183  1  0.15653543  0.88490833  -0.00894980  1
  O2-  O184  1  0.15378357  0.87214238  0.23942246  1
  O2-  O185  1  0.09696059  0.85738653  0.51270959  1
  O2-  O186  1  0.16382457  0.88985486  0.76672955  1
  O2-  O187  1  0.36061066  0.38867817  -0.00077153  1
  O2-  O188  1  0.35300767  0.36102382  0.24374361  1
  O2-  O189  1  0.39708144  0.38577287  0.50032734  1
  O2-  O190  1  0.39802307  0.35583940  0.74663858  1
  O2-  O191  1  0.38913215  0.88554346  0.00231837  1
  O2-  O192  1  0.34278006  0.86552081  0.24849564  1
  O2-  O193  1  0.40170346  0.88010887  0.49123555  1
  O2-  O194  1  0.37781887  0.84738683  0.74442338  1
  O2-  O195  1  0.58116444  0.38274592  0.01832907  1
  O2-  O196  1  0.61594338  0.34908710  0.22205135  1
  O2-  O197  1  0.62116317  0.31968970  0.45388810  1
  O2-  O198  1  0.59986097  0.36842393  0.76630919  1
  O2-  O199  1  0.61024400  0.87604045  -0.01415570  1
  O2-  O200  1  0.66684332  0.89019254  0.23999520  1
  O2-  O201  1  0.61240897  0.84081897  0.48503845  1
  O2-  O202  1  0.60175663  0.85627881  0.74286999  1
  O2-  O203  1  0.91508530  0.37681281  -0.03046555  1
  O2-  O204  1  0.87262446  0.34787551  0.22422184  1
  O2-  O205  1  0.97863660  0.35928826  0.60978290  1
  O2-  O206  1  0.92036437  0.39281788  0.76522668  1
  O2-  O207  1  0.83832844  0.87346179  0.00757007  1
  O2-  O208  1  0.84955837  0.87393332  0.24561042  1
  O2-  O209  1  0.88257089  0.86810299  0.51084765  1
  O2-  O210  1  0.81337364  0.89470313  0.76355569  1
  O2-  O211  1  0.01058498  -0.10662486  0.11872227  1
  O2-  O212  1  -0.01682201  -0.13971821  0.37307235  1
  O2-  O213  1  -0.01637964  0.14760698  0.38871973  1
  O2-  O214  1  -0.01612944  -0.12493068  0.84414125  1
  O2-  O215  1  0.02359720  0.33720779  0.11599618  1
  O2-  O216  1  -0.00800455  0.40528353  0.36169227  1
  O2-  O217  1  0.00266048  0.67463996  0.35974719  1
  O2-  O218  1  -0.01259954  0.62780571  0.67341647  1
  O2-  O219  1  0.24493026  0.15183171  -0.14240453  1
  O2-  O220  1  0.24417709  0.14249101  0.36678868  1
  O2-  O221  1  0.25258643  -0.12707819  0.61459848  1
  O2-  O222  1  0.24520994  0.12013601  0.64046415  1
  O2-  O223  1  0.25355746  0.35998078  -0.14533578  1
  O2-  O224  1  0.24759743  0.36383222  0.40035225  1
  O2-  O225  1  0.23530111  0.65509498  0.61451413  1
  O2-  O226  1  0.24936856  0.37872260  0.62071783  1
  O2-  O227  1  0.51416100  -0.13059580  0.14127322  1
  O2-  O228  1  0.51092363  -0.14236871  0.34313519  1
  O2-  O229  1  0.50511906  0.14195571  0.39443274  1
  O2-  O230  1  0.50508825  0.15580918  0.61312625  1
  O2-  O231  1  0.51351142  0.67637948  0.13016916  1
  O2-  O232  1  0.56317334  0.49105873  0.27091276  1
  O2-  O233  1  0.49567360  0.35678433  0.36148125  1
  O2-  O234  1  0.51904041  0.34890585  0.62070012  1
  O2-  O235  1  0.74575022  0.13196215  -0.12362366  1
  O2-  O236  1  0.91577812  0.01265185  0.29090585  1
  O2-  O237  1  0.73273756  -0.16580874  0.61221990  1
  O2-  O238  1  0.75867499  0.10643676  0.63022286  1
  O2-  O239  1  0.73572030  0.34460694  -0.10369889  1
  O2-  O240  1  0.73901101  0.33590677  0.33696281  1
  O2-  O241  1  0.76467696  0.37516947  0.56338094  1
  O2-  O242  1  0.75930833  0.38092867  0.72662257  1
