# generated using pymatgen
data_Gd19Ta56(WO20)8
_symmetry_space_group_name_H-M   'P 1'
_cell_length_a   15.45905554
_cell_length_b   15.45715832
_cell_length_c   15.32690863
_cell_angle_alpha   89.96639975
_cell_angle_beta   89.91024903
_cell_angle_gamma   90.26896648
_symmetry_Int_Tables_number   1
_chemical_formula_structural   Gd19Ta56(WO20)8
_chemical_formula_sum   'Gd19 Ta56 W8 O160'
_cell_volume   3662.36635900
_cell_formula_units_Z   1
loop_
 _symmetry_equiv_pos_site_id
 _symmetry_equiv_pos_as_xyz
  1  'x, y, z'
loop_
 _atom_type_symbol
 _atom_type_oxidation_number
  Gd3+  3.0
  Ta5+  5.0
  W6+  6.0
  O2-  -2.0
loop_
 _atom_site_type_symbol
 _atom_site_label
 _atom_site_symmetry_multiplicity
 _atom_site_fract_x
 _atom_site_fract_y
 _atom_site_fract_z
 _atom_site_occupancy
  Gd3+  Gd0  1  0.48221199  0.27534842  0.52538296  1
  Gd3+  Gd1  1  -0.00226627  0.73854894  0.75025620  1
  Gd3+  Gd2  1  0.47825486  0.76312530  0.51035516  1
  Gd3+  Gd3  1  0.02183756  0.75838707  -0.00106963  1
  Gd3+  Gd4  1  0.47756979  0.75118249  0.75881711  1
  Gd3+  Gd5  1  0.76026809  0.76563705  0.51363126  1
  Gd3+  Gd6  1  0.00143266  0.75676322  0.50896449  1
  Gd3+  Gd7  1  0.52940658  0.27283899  0.25869517  1
  Gd3+  Gd8  1  0.22474572  0.76391834  0.24238658  1
  Gd3+  Gd9  1  0.48509123  0.74811389  -0.00730907  1
  Gd3+  Gd10  1  0.23909780  0.74200666  0.74909184  1
  Gd3+  Gd11  1  0.48022393  0.75996715  0.25003899  1
  Gd3+  Gd12  1  0.73201706  0.24810829  0.46058989  1
  Gd3+  Gd13  1  -0.02018070  0.23918488  0.78781602  1
  Gd3+  Gd14  1  0.75188999  0.74239087  0.75525569  1
  Gd3+  Gd15  1  0.49314248  0.25585066  -0.01704540  1
  Gd3+  Gd16  1  0.76477589  0.23142382  0.22032596  1
  Gd3+  Gd17  1  0.24880707  0.26134221  0.26369087  1
  Gd3+  Gd18  1  -0.04019173  0.25195093  0.53009957  1
  Ta5+  Ta19  1  0.92370110  0.37208886  0.13292773  1
  Ta5+  Ta20  1  0.66677150  0.36953962  0.62283219  1
  Ta5+  Ta21  1  0.15677192  0.36154955  0.59859666  1
  Ta5+  Ta22  1  0.18957165  0.88830633  0.08013775  1
  Ta5+  Ta23  1  0.89146100  0.86979783  0.14212879  1
  Ta5+  Ta24  1  0.91767870  0.62449133  0.13950586  1
  Ta5+  Ta25  1  0.35294945  0.88042196  0.11831928  1
  Ta5+  Ta26  1  0.35346825  0.89241167  0.37704681  1
  Ta5+  Ta27  1  0.10855103  0.12747131  0.35982861  1
  Ta5+  Ta28  1  0.61930719  0.88672965  0.63442432  1
  Ta5+  Ta29  1  0.82301161  0.12465348  0.89939511  1
  Ta5+  Ta30  1  0.35798024  0.89040662  0.88243260  1
  Ta5+  Ta31  1  0.64271318  0.87920289  0.35371547  1
  Ta5+  Ta32  1  0.31644663  0.36285014  0.89020361  1
  Ta5+  Ta33  1  0.81489128  0.13749624  0.66301428  1
  Ta5+  Ta34  1  0.32162394  0.13875053  0.88484082  1
  Ta5+  Ta35  1  0.58118090  0.60654390  0.13361926  1
  Ta5+  Ta36  1  0.65253052  0.40339319  0.10601809  1
  Ta5+  Ta37  1  0.87258763  0.62453263  0.88865269  1
  Ta5+  Ta38  1  0.38980672  0.14041503  0.37524929  1
  Ta5+  Ta39  1  0.16864430  0.14087623  0.60497124  1
  Ta5+  Ta40  1  0.36190050  0.61403196  0.62317070  1
  Ta5+  Ta41  1  0.90479528  0.12121439  0.33965840  1
  Ta5+  Ta42  1  0.87609337  0.89692583  0.63113342  1
  Ta5+  Ta43  1  0.64474025  0.85913706  0.12146241  1
  Ta5+  Ta44  1  0.10829614  0.88139296  0.35958001  1
  Ta5+  Ta45  1  0.15684662  0.35393731  0.84750699  1
  Ta5+  Ta46  1  0.82826675  0.62442101  0.36760111  1
  Ta5+  Ta47  1  0.17118298  0.13195771  0.10302679  1
  Ta5+  Ta48  1  0.64656582  0.43469117  0.36923198  1
  Ta5+  Ta49  1  0.40747785  0.42914755  0.12235094  1
  Ta5+  Ta50  1  0.09197823  0.38186189  0.35331207  1
  Ta5+  Ta51  1  0.84690536  0.37730573  0.89563355  1
  Ta5+  Ta52  1  0.10514169  0.62962366  0.36009919  1
  Ta5+  Ta53  1  0.84277339  0.88859487  0.36741478  1
  Ta5+  Ta54  1  0.62511852  0.09248346  0.35005748  1
  Ta5+  Ta55  1  0.62674780  0.88753875  0.88023777  1
  Ta5+  Ta56  1  0.88238084  0.38764269  0.34001279  1
  Ta5+  Ta57  1  0.11916798  0.60014156  0.87063441  1
  Ta5+  Ta58  1  0.33950145  0.63080894  0.37857578  1
  Ta5+  Ta59  1  0.61460756  0.62506831  0.38000901  1
  Ta5+  Ta60  1  0.83129813  0.37574701  0.68306789  1
  Ta5+  Ta61  1  0.61319276  0.61068998  0.62498015  1
  Ta5+  Ta62  1  0.15966502  0.14267236  0.85233165  1
  Ta5+  Ta63  1  0.36008164  0.61030670  0.88050822  1
  Ta5+  Ta64  1  0.12060963  0.89492440  0.62109183  1
  Ta5+  Ta65  1  0.36343222  0.89971886  0.63337107  1
  Ta5+  Ta66  1  0.66562510  0.37887324  0.85774917  1
  Ta5+  Ta67  1  0.40558948  0.11436645  0.12779919  1
  Ta5+  Ta68  1  0.93000339  0.11682452  0.12806951  1
  Ta5+  Ta69  1  0.57084449  0.09174353  0.11192535  1
  Ta5+  Ta70  1  0.33532603  0.62827703  0.12404497  1
  Ta5+  Ta71  1  0.32118502  0.36844852  0.63541037  1
  Ta5+  Ta72  1  0.15549230  0.37889674  0.09974117  1
  Ta5+  Ta73  1  0.13843644  0.89532211  0.86838693  1
  Ta5+  Ta74  1  0.12186098  0.60920232  0.61390602  1
  W6+  W75  1  0.32962603  0.15046253  0.62935348  1
  W6+  W76  1  0.86907695  0.61695046  0.61950199  1
  W6+  W77  1  0.37609104  0.38763616  0.37638167  1
  W6+  W78  1  0.61942444  0.61556705  0.88032871  1
  W6+  W79  1  0.66116530  0.14075314  0.87656330  1
  W6+  W80  1  0.16826471  0.62799485  0.10635442  1
  W6+  W81  1  0.65904197  0.13133049  0.61362024  1
  W6+  W82  1  0.87595949  0.88329611  0.88977387  1
  O2-  O83  1  0.18069135  0.01087451  0.10585326  1
  O2-  O84  1  0.08247681  -0.00048558  0.36476598  1
  O2-  O85  1  0.14893590  0.01359652  0.61410456  1
  O2-  O86  1  0.14045579  0.01799139  0.86025120  1
  O2-  O87  1  0.14319102  0.49537378  0.10271429  1
  O2-  O88  1  0.07797976  0.51221101  0.35382615  1
  O2-  O89  1  0.14316142  0.49138206  0.61064983  1
  O2-  O90  1  0.13555138  0.48228374  0.85993270  1
  O2-  O91  1  0.37105139  -0.00149210  0.14987517  1
  O2-  O92  1  0.36428086  0.01186035  0.36717613  1
  O2-  O93  1  0.34489677  0.01493804  0.62524469  1
  O2-  O94  1  0.35353886  0.01254971  0.88867597  1
  O2-  O95  1  0.31149085  0.50187883  0.14401925  1
  O2-  O96  1  0.32636556  0.51504776  0.36918180  1
  O2-  O97  1  0.33854785  0.49726057  0.63109253  1
  O2-  O98  1  0.34757104  0.49116212  0.89048620  1
  O2-  O99  1  0.60733674  -0.03026192  0.09299513  1
  O2-  O100  1  0.57494104  -0.02601559  0.38338875  1
  O2-  O101  1  0.64604936  -0.00048479  0.63123049  1
  O2-  O102  1  0.63388227  0.00320963  0.87104283  1
  O2-  O103  1  0.67281582  0.52572079  0.14255378  1
  O2-  O104  1  0.55439337  0.51790043  0.39839310  1
  O2-  O105  1  0.63656596  0.49540545  0.61466694  1
  O2-  O106  1  0.60763492  0.48428809  0.85904304  1
  O2-  O107  1  0.92743340  -0.01199561  0.13624566  1
  O2-  O108  1  0.86918503  0.01276913  0.38501550  1
  O2-  O109  1  0.84119310  0.01410130  0.63761291  1
  O2-  O110  1  0.82506388  0.00508102  0.89713905  1
  O2-  O111  1  0.93050952  0.50260910  0.13876899  1
  O2-  O112  1  0.87837216  0.50708629  0.35775251  1
  O2-  O113  1  0.85476610  0.48624933  0.64403666  1
  O2-  O114  1  0.86313617  0.50621692  0.90608697  1
  O2-  O115  1  0.20772314  0.25686674  0.12490860  1
  O2-  O116  1  0.11248621  0.25483356  0.34436320  1
  O2-  O117  1  0.09795011  0.24702210  0.57859402  1
  O2-  O118  1  0.09367444  0.25043790  0.89101248  1
  O2-  O119  1  0.15627658  0.76543444  0.09603095  1
  O2-  O120  1  0.05757231  0.75896150  0.36618937  1
  O2-  O121  1  0.09438352  0.75892282  0.63025132  1
  O2-  O122  1  0.11053932  0.75996021  0.86066861  1
  O2-  O123  1  0.50219384  0.21149400  0.13147078  1
  O2-  O124  1  0.44572192  0.26711155  0.37981881  1
  O2-  O125  1  0.39572208  0.26650607  0.64551225  1
  O2-  O126  1  0.38398432  0.25678525  0.88206044  1
  O2-  O127  1  0.40593217  0.75173331  0.11971701  1
  O2-  O128  1  0.40428833  0.76221146  0.38201832  1
  O2-  O129  1  0.39125622  0.75484034  0.63344635  1
  O2-  O130  1  0.36345009  0.75779865  0.86489625  1
  O2-  O131  1  0.66740673  0.28617029  0.13356432  1
  O2-  O132  1  0.65705069  0.22420607  0.32865163  1
  O2-  O133  1  0.62101212  0.25670460  0.58576053  1
  O2-  O134  1  0.61633763  0.27125901  0.89690829  1
  O2-  O135  1  0.59304429  0.73707667  0.13505522  1
  O2-  O136  1  0.59983377  0.75936152  0.36940783  1
  O2-  O137  1  0.73164653  0.66026180  0.61805692  1
  O2-  O138  1  0.48443897  0.64036608  0.86107119  1
  O2-  O139  1  0.90581501  0.24229482  0.15207138  1
  O2-  O140  1  0.85281301  0.23842330  0.35395434  1
  O2-  O141  1  0.88920142  0.25537112  0.66873520  1
  O2-  O142  1  0.86924650  0.25148620  0.89392393  1
  O2-  O143  1  0.95179376  0.75441938  0.14366107  1
  O2-  O144  1  0.81549291  0.75931209  0.36534891  1
  O2-  O145  1  0.89416463  0.75805280  0.61816539  1
  O2-  O146  1  0.92245794  0.75363420  0.88321010  1
  O2-  O147  1  0.21254095  0.14407420  -0.01623160  1
  O2-  O148  1  0.17628907  0.13050810  0.24648859  1
  O2-  O149  1  0.16736109  0.12801554  0.46698297  1
  O2-  O150  1  0.13656793  0.15531339  0.72847458  1
  O2-  O151  1  0.09619674  0.62732191  -0.01003886  1
  O2-  O152  1  0.13396687  0.64583924  0.23951926  1
  O2-  O153  1  0.09628494  0.63730352  0.49162513  1
  O2-  O154  1  -0.00175902  0.61151697  0.84454562  1
  O2-  O155  1  0.39032591  0.14652368  0.00863238  1
  O2-  O156  1  0.36597248  0.16503095  0.24796215  1
  O2-  O157  1  0.37446022  0.15842427  0.49530190  1
  O2-  O158  1  0.32195167  0.14148036  0.76425077  1
  O2-  O159  1  0.38058710  0.63313319  0.00257490  1
  O2-  O160  1  0.35540203  0.65653237  0.25342357  1
  O2-  O161  1  0.39043198  0.63408745  0.49673692  1
  O2-  O162  1  0.34647543  0.63409723  0.74976053  1
  O2-  O163  1  0.59140927  0.13492615  -0.00122073  1
  O2-  O164  1  0.64259504  0.08908763  0.22333841  1
  O2-  O165  1  0.66094923  0.11429883  0.46839300  1
  O2-  O166  1  0.71186953  0.15732893  0.74031653  1
  O2-  O167  1  0.58076268  0.62156398  0.01216017  1
  O2-  O168  1  0.56062833  0.63263161  0.26420834  1
  O2-  O169  1  0.72603463  0.64098492  0.44354245  1
  O2-  O170  1  0.62308070  0.66338671  0.74327555  1
  O2-  O171  1  0.86424292  0.12500574  0.02626335  1
  O2-  O172  1  0.83822297  0.10578469  0.22750674  1
  O2-  O173  1  0.83540230  0.16830728  0.53887913  1
  O2-  O174  1  0.88253985  0.12624708  0.78194045  1
  O2-  O175  1  0.89958068  0.64279132  0.01648826  1
  O2-  O176  1  0.84879253  0.63799726  0.24274233  1
  O2-  O177  1  0.89673979  0.64490450  0.47106274  1
  O2-  O178  1  0.86032109  0.64587663  0.75770219  1
  O2-  O179  1  0.20615199  0.36921204  -0.01584557  1
  O2-  O180  1  0.16316904  0.38208625  0.24181568  1
  O2-  O181  1  0.14681344  0.38145819  0.46287757  1
  O2-  O182  1  0.13385823  0.34543698  0.72621571  1
  O2-  O183  1  0.08482146  0.89106010  -0.01604526  1
  O2-  O184  1  0.12818533  0.87289878  0.23627533  1
  O2-  O185  1  0.10655023  0.86778913  0.49441278  1
  O2-  O186  1  0.08874392  0.88474807  0.74814425  1
  O2-  O187  1  0.37917650  0.36022370  0.02517654  1
  O2-  O188  1  0.39906575  0.36248467  0.22619637  1
  O2-  O189  1  0.37695719  0.37399323  0.51361289  1
  O2-  O190  1  0.31139020  0.36827232  0.76344560  1
  O2-  O191  1  0.40679786  0.87757341  0.00131572  1
  O2-  O192  1  0.35450930  0.85480934  0.25117824  1
  O2-  O193  1  0.37118761  0.87910796  0.50107758  1
  O2-  O194  1  0.40119632  0.88786812  0.75382590  1
  O2-  O195  1  0.69031784  0.40433623  -0.00830657  1
  O2-  O196  1  0.61142464  0.39843923  0.25679869  1
  O2-  O197  1  0.61653781  0.37101384  0.47403727  1
  O2-  O198  1  0.62476850  0.35129995  0.73532420  1
  O2-  O199  1  0.62180837  0.83090385  -0.00212639  1
  O2-  O200  1  0.58360471  0.86962846  0.23339423  1
  O2-  O201  1  0.61796370  0.80829828  0.53757156  1
  O2-  O202  1  0.74058250  0.84348593  0.86349032  1
  O2-  O203  1  0.86676792  0.37169093  0.02564975  1
  O2-  O204  1  0.82251828  0.37289441  0.22076852  1
  O2-  O205  1  0.78237545  0.34578500  0.56224771  1
  O2-  O206  1  0.92443212  0.37537910  0.78977222  1
  O2-  O207  1  0.90651202  0.86036726  0.01962922  1
  O2-  O208  1  0.91962700  0.87509909  0.27093083  1
  O2-  O209  1  0.88527066  0.86364167  0.48932925  1
  O2-  O210  1  0.88625568  0.86639236  0.74972986  1
  O2-  O211  1  0.04804348  0.13762137  0.09160545  1
  O2-  O212  1  -0.00042518  0.11852052  0.26198531  1
  O2-  O213  1  -0.00589464  0.15030912  0.42732006  1
  O2-  O214  1  -0.00583648  -0.08373005  0.61047892  1
  O2-  O215  1  0.03880628  0.34684314  0.08804360  1
  O2-  O216  1  -0.01676886  0.37401696  0.26183064  1
  O2-  O217  1  -0.02721763  0.35807452  0.42546528  1
  O2-  O218  1  0.00242587  0.61437479  0.64212165  1
  O2-  O219  1  0.24380802  -0.11687360  -0.03899935  1
  O2-  O220  1  0.23171206  -0.13232307  0.37594247  1
  O2-  O221  1  0.24407964  -0.14365292  0.63533026  1
  O2-  O222  1  0.24971113  -0.12309493  0.80734369  1
  O2-  O223  1  0.23954476  0.64168892  -0.11693354  1
  O2-  O224  1  0.22701276  0.68031687  0.38277304  1
  O2-  O225  1  0.24394769  0.65626681  0.60692532  1
  O2-  O226  1  0.14078958  0.63056685  0.74313427  1
  O2-  O227  1  0.50458828  -0.15183660  -0.12344631  1
  O2-  O228  1  0.50862642  0.12395053  0.33934951  1
  O2-  O229  1  0.49570022  -0.11023986  0.61503276  1
  O2-  O230  1  0.60995120  -0.15740769  0.75239508  1
  O2-  O231  1  0.46894525  0.55078758  0.13559982  1
  O2-  O232  1  0.53210957  0.39387449  0.09159350  1
  O2-  O233  1  0.57603339  0.64553770  0.50816755  1
  O2-  O234  1  0.48943153  0.61621432  0.65129904  1
  O2-  O235  1  0.76743264  -0.14281663  0.12979608  1
  O2-  O236  1  0.74295437  -0.08885077  0.28493461  1
  O2-  O237  1  0.72772506  -0.10472177  0.44490166  1
  O2-  O238  1  0.74779014  -0.14987458  0.64003578  1
  O2-  O239  1  0.75256498  0.65467987  -0.11117913  1
  O2-  O240  1  0.70608434  0.54471066  0.32677589  1
  O2-  O241  1  0.75986645  0.37799510  0.38169282  1
  O2-  O242  1  0.77094955  0.41748703  0.79502458  1
