# generated using pymatgen
data_Gd19Ta56(WO20)8
_symmetry_space_group_name_H-M   'P 1'
_cell_length_a   15.59203185
_cell_length_b   15.54284757
_cell_length_c   15.24032619
_cell_angle_alpha   89.94797820
_cell_angle_beta   89.72664872
_cell_angle_gamma   90.21785627
_symmetry_Int_Tables_number   1
_chemical_formula_structural   Gd19Ta56(WO20)8
_chemical_formula_sum   'Gd19 Ta56 W8 O160'
_cell_volume   3693.34004719
_cell_formula_units_Z   1
loop_
 _symmetry_equiv_pos_site_id
 _symmetry_equiv_pos_as_xyz
  1  'x, y, z'
loop_
 _atom_type_symbol
 _atom_type_oxidation_number
  Gd3+  3.0
  Ta5+  5.0
  W6+  6.0
  O2-  -2.0
loop_
 _atom_site_type_symbol
 _atom_site_label
 _atom_site_symmetry_multiplicity
 _atom_site_fract_x
 _atom_site_fract_y
 _atom_site_fract_z
 _atom_site_occupancy
  Gd3+  Gd0  1  -0.00690565  0.24747272  0.49146861  1
  Gd3+  Gd1  1  0.75551786  0.27234391  0.49531430  1
  Gd3+  Gd2  1  0.53998908  0.25224081  0.27350782  1
  Gd3+  Gd3  1  0.24531677  0.24536338  0.75259870  1
  Gd3+  Gd4  1  0.47949446  0.76882813  0.23448222  1
  Gd3+  Gd5  1  0.26056835  0.74850686  0.25380163  1
  Gd3+  Gd6  1  0.70359854  0.73920043  0.24793981  1
  Gd3+  Gd7  1  -0.00220133  0.25359253  -0.01089114  1
  Gd3+  Gd8  1  0.26349445  0.24069846  0.25848178  1
  Gd3+  Gd9  1  0.00594698  0.74997795  0.76261266  1
  Gd3+  Gd10  1  0.02224307  0.72737013  0.23502345  1
  Gd3+  Gd11  1  0.74356515  0.25861171  0.74912992  1
  Gd3+  Gd12  1  0.00286206  0.22557917  0.73519924  1
  Gd3+  Gd13  1  0.26560108  0.24028322  0.00245984  1
  Gd3+  Gd14  1  0.52206073  0.25829820  0.50944646  1
  Gd3+  Gd15  1  0.75997729  0.25824187  -0.00465836  1
  Gd3+  Gd16  1  0.78137457  0.25564280  0.24776547  1
  Gd3+  Gd17  1  0.48812422  0.27466561  0.74350639  1
  Gd3+  Gd18  1  -0.01514468  0.69376102  0.48951791  1
  Ta5+  Ta19  1  0.61565022  0.39140745  0.88087907  1
  Ta5+  Ta20  1  0.84943444  0.62138819  0.13879821  1
  Ta5+  Ta21  1  0.38202021  0.63884663  0.86375186  1
  Ta5+  Ta22  1  0.37178055  0.63067296  0.11553066  1
  Ta5+  Ta23  1  0.14189642  0.40042833  0.60347976  1
  Ta5+  Ta24  1  0.56451870  0.88099376  0.63407581  1
  Ta5+  Ta25  1  0.63498533  0.87279094  0.39054170  1
  Ta5+  Ta26  1  0.17666615  0.86580684  0.85689398  1
  Ta5+  Ta27  1  0.43297358  0.12038003  0.09174699  1
  Ta5+  Ta28  1  0.12855880  0.10579783  0.87973663  1
  Ta5+  Ta29  1  0.63765900  0.10054661  0.63800576  1
  Ta5+  Ta30  1  0.54884256  0.64748638  0.39982575  1
  Ta5+  Ta31  1  0.52636374  0.64368460  0.65294384  1
  Ta5+  Ta32  1  0.38448903  0.64146793  0.38697064  1
  Ta5+  Ta33  1  0.87296932  0.40774132  0.62596245  1
  Ta5+  Ta34  1  0.15319644  0.09383784  0.56040139  1
  Ta5+  Ta35  1  0.16061595  0.43658034  0.39884772  1
  Ta5+  Ta36  1  0.29649116  0.86328517  0.64172104  1
  Ta5+  Ta37  1  0.91102664  0.11607073  0.13656215  1
  Ta5+  Ta38  1  0.36485761  0.39274737  0.87217972  1
  Ta5+  Ta39  1  0.65729330  0.43985534  0.63138917  1
  Ta5+  Ta40  1  0.84478365  0.07958677  0.62299318  1
  Ta5+  Ta41  1  0.11556484  0.07447395  0.11736319  1
  Ta5+  Ta42  1  0.84581793  0.63361920  0.88910273  1
  Ta5+  Ta43  1  0.18624281  0.86188736  0.10457945  1
  Ta5+  Ta44  1  0.34761034  0.09475113  0.61072761  1
  Ta5+  Ta45  1  0.87686361  0.09820000  0.37925246  1
  Ta5+  Ta46  1  0.09680287  0.10492013  0.32722360  1
  Ta5+  Ta47  1  0.38104390  0.11586600  0.85473202  1
  Ta5+  Ta48  1  0.84902239  0.60870776  0.63549603  1
  Ta5+  Ta49  1  0.62759337  0.41929963  0.37842336  1
  Ta5+  Ta50  1  0.15327746  0.63140021  0.62600470  1
  Ta5+  Ta51  1  0.34568539  0.87883200  0.87650052  1
  Ta5+  Ta52  1  0.87938531  0.39307784  0.87852558  1
  Ta5+  Ta53  1  0.64349686  0.11106208  0.38204311  1
  Ta5+  Ta54  1  0.13234332  0.86308178  0.61571929  1
  Ta5+  Ta55  1  0.37364705  0.85996458  0.40212500  1
  Ta5+  Ta56  1  0.12414774  0.38732415  0.17113126  1
  Ta5+  Ta57  1  0.39954122  0.10576006  0.40117428  1
  Ta5+  Ta58  1  0.41711245  0.39630078  0.37296602  1
  Ta5+  Ta59  1  0.59671252  0.88301741  0.11702812  1
  Ta5+  Ta60  1  0.20071811  0.61545230  0.10991629  1
  Ta5+  Ta61  1  0.34608326  0.39328015  0.60042569  1
  Ta5+  Ta62  1  0.11901944  0.38587838  0.85853656  1
  Ta5+  Ta63  1  0.32112546  0.63931989  0.62427865  1
  Ta5+  Ta64  1  0.61217979  0.11757105  0.88989534  1
  Ta5+  Ta65  1  0.12878749  0.86888805  0.36694101  1
  Ta5+  Ta66  1  0.63177908  0.38787032  0.13540807  1
  Ta5+  Ta67  1  0.92390055  0.38909049  0.13954301  1
  Ta5+  Ta68  1  0.87381001  0.86661552  0.13004652  1
  Ta5+  Ta69  1  0.14588855  0.62370244  0.87093602  1
  Ta5+  Ta70  1  0.35294934  0.88898993  0.12480098  1
  Ta5+  Ta71  1  0.39738249  0.37974770  0.12825399  1
  Ta5+  Ta72  1  0.61432528  0.63471286  0.87497979  1
  Ta5+  Ta73  1  0.87937396  0.84467144  0.36642054  1
  Ta5+  Ta74  1  0.85457536  0.86701030  0.88080801  1
  W6+  W75  1  0.87300965  0.41579985  0.36236350  1
  W6+  W76  1  0.63597748  0.12639153  0.11748254  1
  W6+  W77  1  0.59675989  0.86821075  0.86769403  1
  W6+  W78  1  0.90747307  0.85231278  0.62109183  1
  W6+  W79  1  0.58051707  0.62961997  0.11981678  1
  W6+  W80  1  0.14703079  0.62160211  0.37191677  1
  W6+  W81  1  0.86616322  0.11646064  0.87976099  1
  W6+  W82  1  0.80569607  0.60519366  0.37578764  1
  O2-  O83  1  0.09740209  -0.04152194  0.11748710  1
  O2-  O84  1  0.12973532  -0.01491086  0.32244220  1
  O2-  O85  1  0.12902902  -0.00248742  0.62546508  1
  O2-  O86  1  0.12179664  -0.00932750  0.86001235  1
  O2-  O87  1  0.17852946  0.48809000  0.14293598  1
  O2-  O88  1  0.06678173  0.50375029  0.38598349  1
  O2-  O89  1  0.12153879  0.50707591  0.65275322  1
  O2-  O90  1  0.09117905  0.50157621  0.86666995  1
  O2-  O91  1  0.38359232  0.01939275  0.13170878  1
  O2-  O92  1  0.39238705  -0.01498581  0.40731805  1
  O2-  O93  1  0.35865077  -0.01672881  0.64379364  1
  O2-  O94  1  0.39816037  -0.00075653  0.84514231  1
  O2-  O95  1  0.39615164  0.49704902  0.12956785  1
  O2-  O96  1  0.40163882  0.51489261  0.38047589  1
  O2-  O97  1  0.35222496  0.51076780  0.61465049  1
  O2-  O98  1  0.39690220  0.50759251  0.86456279  1
  O2-  O99  1  0.64088807  -0.00707095  0.12998534  1
  O2-  O100  1  0.66417706  -0.00383973  0.36578348  1
  O2-  O101  1  0.55456207  0.01207762  0.64705989  1
  O2-  O102  1  0.60501418  0.00355687  0.87536129  1
  O2-  O103  1  0.61327000  0.50202790  0.14722146  1
  O2-  O104  1  0.59494794  0.53527983  0.39002100  1
  O2-  O105  1  0.56341606  0.51138210  0.63833677  1
  O2-  O106  1  0.64195955  0.50403258  0.84874636  1
  O2-  O107  1  0.89119631  -0.00415257  0.12961496  1
  O2-  O108  1  0.88565255  -0.01933744  0.37802035  1
  O2-  O109  1  0.91613360  -0.01260499  0.61707504  1
  O2-  O110  1  0.87878304  -0.01706960  0.88811372  1
  O2-  O111  1  0.91087370  0.50947800  0.12624126  1
  O2-  O112  1  0.90601820  0.53500733  0.33926705  1
  O2-  O113  1  0.93124658  0.51661226  0.64520695  1
  O2-  O114  1  0.88313494  0.51352321  0.89592929  1
  O2-  O115  1  0.19751973  0.29552308  0.12974508  1
  O2-  O116  1  0.16345102  0.19893053  0.35814458  1
  O2-  O117  1  0.07149791  0.18188655  0.59614709  1
  O2-  O118  1  0.13825326  0.26694746  0.92004154  1
  O2-  O119  1  0.19122592  0.73965301  0.09165511  1
  O2-  O120  1  0.07291364  0.74824087  0.37468615  1
  O2-  O121  1  0.09040460  0.74352348  0.60919239  1
  O2-  O122  1  0.12839193  0.74710091  0.88041485  1
  O2-  O123  1  0.36648562  0.22757613  0.12240689  1
  O2-  O124  1  0.43686221  0.25262125  0.37948733  1
  O2-  O125  1  0.45460226  0.33842823  0.61395670  1
  O2-  O126  1  0.34657382  0.25769497  0.86908919  1
  O2-  O127  1  0.37635770  0.76119889  0.11968794  1
  O2-  O128  1  0.45449579  0.76029381  0.39217025  1
  O2-  O129  1  0.31469918  0.75076532  0.68167296  1
  O2-  O130  1  0.37281636  0.76276236  0.85491148  1
  O2-  O131  1  0.68733785  0.26429462  0.12167346  1
  O2-  O132  1  0.63300836  0.26350317  0.40412258  1
  O2-  O133  1  0.57606944  0.21008005  0.64754929  1
  O2-  O134  1  0.65638191  0.26815491  0.87753284  1
  O2-  O135  1  0.63282546  0.75936074  0.11960480  1
  O2-  O136  1  0.63021170  0.75002829  0.39721150  1
  O2-  O137  1  0.51404572  0.77160068  0.64264184  1
  O2-  O138  1  0.55899048  0.74055521  0.87249771  1
  O2-  O139  1  0.90951415  0.25150129  0.14983284  1
  O2-  O140  1  0.76426581  0.13901968  0.41169343  1
  O2-  O141  1  0.94187502  0.30516582  0.62627080  1
  O2-  O142  1  0.84270839  0.25781543  0.86555172  1
  O2-  O143  1  0.82769140  0.74999050  0.15558780  1
  O2-  O144  1  0.89184500  0.71901177  0.35120463  1
  O2-  O145  1  0.92410004  0.71087406  0.63531655  1
  O2-  O146  1  0.91138231  0.73748098  0.88281791  1
  O2-  O147  1  0.17227638  0.11656703  0.00688152  1
  O2-  O148  1  0.18377723  0.11913300  0.20896163  1
  O2-  O149  1  0.09220901  0.07675161  0.45550026  1
  O2-  O150  1  0.12365529  0.16332423  0.76860990  1
  O2-  O151  1  0.16114285  0.59833904  -0.00607438  1
  O2-  O152  1  0.14913841  0.64419369  0.23078306  1
  O2-  O153  1  0.11670410  0.61944921  0.50768032  1
  O2-  O154  1  0.10179885  0.63883057  0.74955488  1
  O2-  O155  1  0.36450990  0.12917810  -0.02003694  1
  O2-  O156  1  0.33692759  0.12688533  0.30292296  1
  O2-  O157  1  0.42973926  0.14474927  0.52732357  1
  O2-  O158  1  0.38575884  0.16053947  0.72092160  1
  O2-  O159  1  0.38475076  0.63597845  -0.01362109  1
  O2-  O160  1  0.37779767  0.64802181  0.25334762  1
  O2-  O161  1  0.33643312  0.65711252  0.50236446  1
  O2-  O162  1  0.42500973  0.62910413  0.72920643  1
  O2-  O163  1  0.69618400  0.12816407  -0.01880278  1
  O2-  O164  1  0.66335587  0.15805549  0.26334028  1
  O2-  O165  1  0.62226433  0.12084678  0.51042680  1
  O2-  O166  1  0.66619868  0.13008223  0.76954698  1
  O2-  O167  1  0.57735626  0.60083102  -0.01491764  1
  O2-  O168  1  0.57560972  0.66150408  0.26158360  1
  O2-  O169  1  0.54595276  0.64722198  0.52808855  1
  O2-  O170  1  0.61157990  0.64233832  0.73857089  1
  O2-  O171  1  0.86375636  0.14985894  0.02125052  1
  O2-  O172  1  0.85148066  0.12129820  0.25570426  1
  O2-  O173  1  0.89256558  0.13212896  0.51420441  1
  O2-  O174  1  0.88522476  0.13135031  0.73021207  1
  O2-  O175  1  0.84650950  0.63617531  0.01834012  1
  O2-  O176  1  0.77109986  0.60861072  0.23940495  1
  O2-  O177  1  0.84981422  0.62169401  0.50856864  1
  O2-  O178  1  0.83288779  0.62683227  0.76015238  1
  O2-  O179  1  0.24007098  0.40152340  -0.12252840  1
  O2-  O180  1  0.16968089  0.36196343  0.29281263  1
  O2-  O181  1  0.08447123  0.35886348  0.49755885  1
  O2-  O182  1  0.12262381  0.34416994  0.73536568  1
  O2-  O183  1  0.18722270  0.88391291  -0.01993217  1
  O2-  O184  1  0.13322470  0.82916011  0.23329215  1
  O2-  O185  1  0.10922525  0.88068101  0.48830732  1
  O2-  O186  1  0.10092437  0.85675248  0.74390827  1
  O2-  O187  1  0.36071005  0.36507745  0.00632397  1
  O2-  O188  1  0.36056051  0.36077159  0.25162950  1
  O2-  O189  1  0.35201208  0.36490313  0.47782769  1
  O2-  O190  1  0.35643606  0.36818567  0.74407704  1
  O2-  O191  1  0.36502965  0.89480321  -0.00379997  1
  O2-  O192  1  0.37048803  0.86784710  0.26248938  1
  O2-  O193  1  0.34944596  0.85008351  0.52316002  1
  O2-  O194  1  0.26650884  0.90899118  0.77099780  1
  O2-  O195  1  0.64223451  0.39053742  0.00247280  1
  O2-  O196  1  0.66503409  0.35786344  0.25949945  1
  O2-  O197  1  0.66014975  0.39681127  0.51271842  1
  O2-  O198  1  0.62699682  0.36693394  0.73593711  1
  O2-  O199  1  0.57094023  0.88008496  0.00010640  1
  O2-  O200  1  0.59640782  0.86333876  0.25997177  1
  O2-  O201  1  0.60793927  0.88977327  0.51136438  1
  O2-  O202  1  0.63032459  0.87078129  0.73296429  1
  O2-  O203  1  0.88034717  0.35859018  0.01018611  1
  O2-  O204  1  0.83652631  0.38886054  0.22726144  1
  O2-  O205  1  0.85221411  0.27993547  0.38176331  1
  O2-  O206  1  0.84678930  0.39519183  0.75862419  1
  O2-  O207  1  0.87772453  0.85010460  0.01046381  1
  O2-  O208  1  0.93824997  0.85503936  0.24872496  1
  O2-  O209  1  0.92328433  0.83017132  0.48131320  1
  O2-  O210  1  0.89618486  0.85360202  0.76143954  1
  O2-  O211  1  0.01863985  0.13130520  0.06278663  1
  O2-  O212  1  0.02248809  0.09503925  0.21674458  1
  O2-  O213  1  -0.01563103  0.15979494  0.36662759  1
  O2-  O214  1  0.00784698  0.14495962  0.88365267  1
  O2-  O215  1  0.04451743  0.36695299  0.07057621  1
  O2-  O216  1  0.01244095  0.38987594  0.23048990  1
  O2-  O217  1  -0.13183758  0.40438418  0.50197938  1
  O2-  O218  1  -0.00500298  0.33826637  0.85622560  1
  O2-  O219  1  0.25582907  0.11900990  -0.15129036  1
  O2-  O220  1  0.24914759  -0.14482107  0.37880400  1
  O2-  O221  1  0.27514218  0.09018863  0.50058132  1
  O2-  O222  1  0.23972398  0.14299015  0.64847415  1
  O2-  O223  1  0.26217904  0.61975366  -0.15709624  1
  O2-  O224  1  0.23319098  0.51748518  0.34871354  1
  O2-  O225  1  0.21858097  0.44763743  0.51613761  1
  O2-  O226  1  0.24349156  0.32028115  0.62042250  1
  O2-  O227  1  0.53330990  0.11827649  0.01267207  1
  O2-  O228  1  0.51121422  0.14551635  0.18384806  1
  O2-  O229  1  0.51834582  0.10786375  0.36508584  1
  O2-  O230  1  0.50087783  0.16486074  0.84760968  1
  O2-  O231  1  0.51418121  0.33896950  0.12749519  1
  O2-  O232  1  0.52139087  0.40073533  0.29405237  1
  O2-  O233  1  0.51717013  0.39313499  0.45181787  1
  O2-  O234  1  0.49654661  0.36361036  0.86911272  1
  O2-  O235  1  0.73907052  -0.14305404  -0.12156309  1
  O2-  O236  1  0.75922081  -0.14822315  0.35118119  1
  O2-  O237  1  0.75149178  0.18035990  0.61697921  1
  O2-  O238  1  0.73782443  0.01911174  0.62987389  1
  O2-  O239  1  0.72941380  0.66632966  -0.10279231  1
  O2-  O240  1  0.74499897  0.46827449  0.37657179  1
  O2-  O241  1  0.75590525  0.51348949  0.63406972  1
  O2-  O242  1  0.76006803  0.34520627  0.62921640  1
