# generated using pymatgen
data_Gd19Ta56(WO20)8
_symmetry_space_group_name_H-M   'P 1'
_cell_length_a   15.57006401
_cell_length_b   15.50594913
_cell_length_c   15.32081182
_cell_angle_alpha   89.94629275
_cell_angle_beta   89.77930504
_cell_angle_gamma   89.96599622
_symmetry_Int_Tables_number   1
_chemical_formula_structural   Gd19Ta56(WO20)8
_chemical_formula_sum   'Gd19 Ta56 W8 O160'
_cell_volume   3698.85275488
_cell_formula_units_Z   1
loop_
 _symmetry_equiv_pos_site_id
 _symmetry_equiv_pos_as_xyz
  1  'x, y, z'
loop_
 _atom_type_symbol
 _atom_type_oxidation_number
  Gd3+  3.0
  Ta5+  5.0
  W6+  6.0
  O2-  -2.0
loop_
 _atom_site_type_symbol
 _atom_site_label
 _atom_site_symmetry_multiplicity
 _atom_site_fract_x
 _atom_site_fract_y
 _atom_site_fract_z
 _atom_site_occupancy
  Gd3+  Gd0  1  0.73103008  0.23965338  0.49647475  1
  Gd3+  Gd1  1  0.74161510  0.76839814  0.74292990  1
  Gd3+  Gd2  1  0.51682174  0.25168413  -0.00478732  1
  Gd3+  Gd3  1  0.50117836  0.25039107  0.73549936  1
  Gd3+  Gd4  1  0.74638704  0.24525744  0.74067565  1
  Gd3+  Gd5  1  0.24073238  0.74655843  0.00050593  1
  Gd3+  Gd6  1  0.75760829  0.24385074  0.26464126  1
  Gd3+  Gd7  1  -0.02498035  0.76025307  0.71161460  1
  Gd3+  Gd8  1  0.73707658  0.76308710  0.00199593  1
  Gd3+  Gd9  1  0.49983439  0.74339242  0.00990551  1
  Gd3+  Gd10  1  0.26079923  0.23684366  0.73923995  1
  Gd3+  Gd11  1  0.78435448  0.24565258  0.00173415  1
  Gd3+  Gd12  1  0.01091476  0.24154685  0.75443511  1
  Gd3+  Gd13  1  0.25727892  0.25392503  0.27951915  1
  Gd3+  Gd14  1  0.27513940  0.75949785  0.46210124  1
  Gd3+  Gd15  1  -0.02029101  0.25623671  0.49197009  1
  Gd3+  Gd16  1  0.02678463  0.24551692  0.02226382  1
  Gd3+  Gd17  1  0.25061166  0.75385436  0.75063966  1
  Gd3+  Gd18  1  0.72511684  0.74696003  0.27228550  1
  Ta5+  Ta19  1  0.62459282  0.38447132  0.61921414  1
  Ta5+  Ta20  1  0.88358304  0.38601698  0.86931559  1
  Ta5+  Ta21  1  0.62252270  0.61720875  0.12355392  1
  Ta5+  Ta22  1  0.57334127  0.87632217  0.36259314  1
  Ta5+  Ta23  1  0.43166921  0.36831782  0.36347810  1
  Ta5+  Ta24  1  0.89922447  0.05977718  0.37802909  1
  Ta5+  Ta25  1  0.40683213  0.88373533  0.35705959  1
  Ta5+  Ta26  1  0.10638243  0.61496057  0.63493045  1
  Ta5+  Ta27  1  0.92740368  0.87045081  0.91698101  1
  Ta5+  Ta28  1  0.13893586  0.12560481  0.58940043  1
  Ta5+  Ta29  1  0.59843640  0.37637425  0.36831681  1
  Ta5+  Ta30  1  0.61474158  0.88255437  0.13038288  1
  Ta5+  Ta31  1  0.84762985  0.62462466  0.14793665  1
  Ta5+  Ta32  1  0.36776283  0.61728996  0.12703636  1
  Ta5+  Ta33  1  0.12064271  0.61500843  0.13132809  1
  Ta5+  Ta34  1  0.39694547  0.37723184  0.12510948  1
  Ta5+  Ta35  1  0.62087218  0.11090963  0.62024704  1
  Ta5+  Ta36  1  0.13449317  0.37947386  0.61777836  1
  Ta5+  Ta37  1  0.12769651  0.39326106  0.37656295  1
  Ta5+  Ta38  1  0.88974341  0.38622554  0.13002516  1
  Ta5+  Ta39  1  0.63814689  0.12126861  0.12280516  1
  Ta5+  Ta40  1  0.37942518  0.37998706  0.60915641  1
  Ta5+  Ta41  1  0.83329117  0.89091274  0.39206175  1
  Ta5+  Ta42  1  0.09151446  0.85834038  0.18486010  1
  Ta5+  Ta43  1  0.87254218  0.63016526  0.89350801  1
  Ta5+  Ta44  1  0.09209616  0.07320752  0.37228361  1
  Ta5+  Ta45  1  0.87575381  0.10879550  0.87613793  1
  Ta5+  Ta46  1  0.12574618  0.88051255  0.87252896  1
  Ta5+  Ta47  1  0.66429098  0.10409438  0.87493187  1
  Ta5+  Ta48  1  0.15049367  0.10620679  0.92497821  1
  Ta5+  Ta49  1  0.01299244  0.90703191  0.40721025  1
  Ta5+  Ta50  1  0.84810930  0.63364397  0.41199307  1
  Ta5+  Ta51  1  0.09373795  0.62398564  0.37908864  1
  Ta5+  Ta52  1  0.39173708  0.61067601  0.86751967  1
  Ta5+  Ta53  1  0.63406379  0.62925009  0.85346282  1
  Ta5+  Ta54  1  0.10482215  0.61925771  0.87140051  1
  Ta5+  Ta55  1  0.39308831  0.11968949  0.11012509  1
  Ta5+  Ta56  1  0.85755995  0.88385447  0.14570827  1
  Ta5+  Ta57  1  0.61907859  0.87452489  0.60481575  1
  Ta5+  Ta58  1  0.88366961  0.40199898  0.38237928  1
  Ta5+  Ta59  1  0.57258933  0.61985033  0.37408999  1
  Ta5+  Ta60  1  0.64015815  0.38007753  0.12537666  1
  Ta5+  Ta61  1  0.37658735  0.88517916  0.61554701  1
  Ta5+  Ta62  1  0.16954442  0.39423639  0.87354163  1
  Ta5+  Ta63  1  0.66635494  0.38620029  0.87385112  1
  Ta5+  Ta64  1  0.38436501  0.87741052  0.12525823  1
  Ta5+  Ta65  1  0.38336603  0.11748002  0.59459386  1
  Ta5+  Ta66  1  0.86652934  0.39276993  0.64772770  1
  Ta5+  Ta67  1  0.58846365  0.12434070  0.36506486  1
  Ta5+  Ta68  1  0.87424733  0.11521616  0.63170297  1
  Ta5+  Ta69  1  0.41507160  0.86475110  0.86396340  1
  Ta5+  Ta70  1  0.34919896  0.09740957  0.88435142  1
  Ta5+  Ta71  1  0.66153354  0.63072738  0.59187457  1
  Ta5+  Ta72  1  0.42334728  0.12393190  0.34825090  1
  Ta5+  Ta73  1  0.86734887  0.87354150  0.57562632  1
  Ta5+  Ta74  1  0.37150152  0.38387313  0.87088659  1
  W6+  W75  1  0.12416363  0.87732156  0.61649094  1
  W6+  W76  1  0.41242433  0.62176016  0.37077983  1
  W6+  W77  1  0.14741058  0.10680768  0.16712828  1
  W6+  W78  1  0.14588412  0.36781543  0.12333311  1
  W6+  W79  1  0.87130373  0.63154490  0.58401459  1
  W6+  W80  1  0.58078256  0.86599425  0.86272093  1
  W6+  W81  1  0.35833617  0.63021977  0.61451494  1
  W6+  W82  1  0.89576605  0.13008869  0.14671923  1
  O2-  O83  1  -0.02223527  -0.13982980  0.14502871  1
  O2-  O84  1  0.14367409  -0.02936252  0.39282976  1
  O2-  O85  1  0.13861339  0.01045270  0.59235597  1
  O2-  O86  1  0.10243775  0.00501701  0.88068290  1
  O2-  O87  1  0.10405689  0.49968669  0.11581954  1
  O2-  O88  1  0.15197263  0.51548984  0.36997254  1
  O2-  O89  1  0.11573256  0.49006423  0.66317603  1
  O2-  O90  1  0.09309133  0.49622189  0.86958451  1
  O2-  O91  1  0.36278201  -0.00081598  0.10891742  1
  O2-  O92  1  0.39198495  0.00462858  0.33894619  1
  O2-  O93  1  0.34487514  0.00455914  0.63571254  1
  O2-  O94  1  0.37976544  -0.01398701  0.85923809  1
  O2-  O95  1  0.35837179  0.49471102  0.12914174  1
  O2-  O96  1  0.41821194  0.48809589  0.35682314  1
  O2-  O97  1  0.36324877  0.49530415  0.62008661  1
  O2-  O98  1  0.42821556  0.49495804  0.85052699  1
  O2-  O99  1  0.65474706  -0.00071050  0.11064906  1
  O2-  O100  1  0.58351066  0.00398000  0.35793775  1
  O2-  O101  1  0.65598610  -0.00681450  0.62385845  1
  O2-  O102  1  0.62421887  -0.00506513  0.87123629  1
  O2-  O103  1  0.66043394  0.50171363  0.10720071  1
  O2-  O104  1  0.60521558  0.49851241  0.38143045  1
  O2-  O105  1  0.64947918  0.50183653  0.61384188  1
  O2-  O106  1  0.63822581  0.50394122  0.85750866  1
  O2-  O107  1  0.85754028  0.00222869  0.14077401  1
  O2-  O108  1  0.78920424  0.01368209  0.39771488  1
  O2-  O109  1  0.88016549  -0.00178302  0.61058732  1
  O2-  O110  1  0.90290308  -0.01081599  0.88924478  1
  O2-  O111  1  0.89405289  0.50681319  0.11824038  1
  O2-  O112  1  0.82652382  0.50445307  0.40215540  1
  O2-  O113  1  0.84604908  0.50645404  0.63998053  1
  O2-  O114  1  0.89872461  0.50739252  0.88192994  1
  O2-  O115  1  0.18185522  0.23733803  0.14694011  1
  O2-  O116  1  0.21099465  0.31494169  0.40926974  1
  O2-  O117  1  0.06551835  0.27450657  0.60994003  1
  O2-  O118  1  0.07761166  0.19830247  0.88560547  1
  O2-  O119  1  0.13966221  0.76142177  0.12251350  1
  O2-  O120  1  0.17370308  0.71085982  0.37493735  1
  O2-  O121  1  0.11932540  0.74102467  0.65307802  1
  O2-  O122  1  0.15123505  0.74709755  0.87051815  1
  O2-  O123  1  0.40251559  0.25062432  0.09510755  1
  O2-  O124  1  0.38678170  0.24407120  0.36424488  1
  O2-  O125  1  0.39747156  0.23876289  0.62528245  1
  O2-  O126  1  0.47530230  0.31086110  0.86690916  1
  O2-  O127  1  0.35921909  0.74746923  0.09229933  1
  O2-  O128  1  0.39442000  0.75785372  0.37957947  1
  O2-  O129  1  0.31852135  0.76810625  0.60782562  1
  O2-  O130  1  0.35457432  0.74820660  0.88412333  1
  O2-  O131  1  0.61930582  0.25441262  0.10775930  1
  O2-  O132  1  0.65137799  0.24756908  0.37214839  1
  O2-  O133  1  0.61716343  0.24285361  0.62771319  1
  O2-  O134  1  0.68758821  0.25099729  0.88168962  1
  O2-  O135  1  0.64681250  0.74508187  0.13354836  1
  O2-  O136  1  0.60489518  0.74524047  0.36249862  1
  O2-  O137  1  0.67455742  0.75913208  0.60344409  1
  O2-  O138  1  0.66760203  0.75397237  0.86823797  1
  O2-  O139  1  0.93119462  0.26504064  0.13959078  1
  O2-  O140  1  0.82189689  0.29558360  0.39598989  1
  O2-  O141  1  0.89000786  0.24899734  0.65380930  1
  O2-  O142  1  0.87402927  0.24768356  0.85395878  1
  O2-  O143  1  0.82693829  0.75035497  0.14012749  1
  O2-  O144  1  0.82572947  0.75151968  0.38819117  1
  O2-  O145  1  0.92011744  0.76153910  0.57178783  1
  O2-  O146  1  0.85970746  0.76640565  0.88192714  1
  O2-  O147  1  0.09656374  0.11272704  0.03686208  1
  O2-  O148  1  0.17612518  0.13379395  0.30346182  1
  O2-  O149  1  0.09590648  0.16408949  0.47523635  1
  O2-  O150  1  0.11890446  0.15545526  0.70646913  1
  O2-  O151  1  0.13533046  0.63285024  -0.00652481  1
  O2-  O152  1  0.08055669  0.62875931  0.24674596  1
  O2-  O153  1  0.10525288  0.61407236  0.51363275  1
  O2-  O154  1  0.16521601  0.62046253  0.76193092  1
  O2-  O155  1  0.42842492  0.13373750  -0.02690262  1
  O2-  O156  1  0.36086996  0.14283055  0.22736289  1
  O2-  O157  1  0.40306615  0.11135164  0.47867928  1
  O2-  O158  1  0.38960705  0.16158255  0.78414729  1
  O2-  O159  1  0.34471931  0.61156648  -0.01694990  1
  O2-  O160  1  0.39013569  0.63643177  0.24193005  1
  O2-  O161  1  0.33940813  0.63131515  0.48042516  1
  O2-  O162  1  0.34525472  0.63368078  0.75670047  1
  O2-  O163  1  0.61148273  0.13711528  -0.01332118  1
  O2-  O164  1  0.64559832  0.13851592  0.24674911  1
  O2-  O165  1  0.62348171  0.12665295  0.49621587  1
  O2-  O166  1  0.61402672  0.14365486  0.76134807  1
  O2-  O167  1  0.63836011  0.64303458  -0.01019207  1
  O2-  O168  1  0.60760667  0.61526084  0.24671450  1
  O2-  O169  1  0.57643614  0.63457820  0.50844376  1
  O2-  O170  1  0.63624168  0.64267034  0.72546224  1
  O2-  O171  1  0.91414419  0.15211522  -0.00559781  1
  O2-  O172  1  0.86570854  0.14516820  0.28156458  1
  O2-  O173  1  0.87850139  0.15216702  0.50549782  1
  O2-  O174  1  0.93228127  0.11256321  0.75015299  1
  O2-  O175  1  0.83489124  0.63647019  0.00943453  1
  O2-  O176  1  0.83946028  0.62119235  0.26900735  1
  O2-  O177  1  0.75370090  0.62847827  0.50747841  1
  O2-  O178  1  0.76729170  0.62399428  0.83487784  1
  O2-  O179  1  0.12660820  0.35498625  -0.01918696  1
  O2-  O180  1  0.15372233  0.37337915  0.25844164  1
  O2-  O181  1  0.09905792  0.40868429  0.50643279  1
  O2-  O182  1  0.14101260  0.34019436  0.76023590  1
  O2-  O183  1  0.21547982  0.88048891  -0.04565201  1
  O2-  O184  1  0.06547244  0.84326698  0.30133451  1
  O2-  O185  1  0.06054907  0.84941896  0.50100640  1
  O2-  O186  1  0.17472931  0.88403427  0.75779183  1
  O2-  O187  1  0.38349653  0.38425177  -0.00487685  1
  O2-  O188  1  0.36378276  0.35589502  0.24329704  1
  O2-  O189  1  0.40511986  0.36595900  0.49123510  1
  O2-  O190  1  0.36330890  0.35151996  0.74298815  1
  O2-  O191  1  0.41850543  0.87104647  -0.00831772  1
  O2-  O192  1  0.34865941  0.86320388  0.24035296  1
  O2-  O193  1  0.36376265  0.89005616  0.48868283  1
  O2-  O194  1  0.36578708  0.85380241  0.74232298  1
  O2-  O195  1  0.60667140  0.37460057  -0.01744755  1
  O2-  O196  1  0.65792691  0.36846068  0.24836191  1
  O2-  O197  1  0.62596537  0.35740808  0.49780490  1
  O2-  O198  1  0.62654009  0.35228133  0.75509069  1
  O2-  O199  1  0.60909182  0.84857892  0.00326457  1
  O2-  O200  1  0.64564721  0.87465687  0.25077021  1
  O2-  O201  1  0.59499869  0.87684411  0.48426805  1
  O2-  O202  1  0.62802298  0.85766095  0.73370622  1
  O2-  O203  1  0.92044155  0.35574612  -0.00716135  1
  O2-  O204  1  0.87268680  0.39172568  0.25686853  1
  O2-  O205  1  0.90691635  0.38138075  0.52673240  1
  O2-  O206  1  0.94955623  0.38287980  0.74952075  1
  O2-  O207  1  0.84037337  0.87284173  0.01447858  1
  O2-  O208  1  0.82007673  0.86960080  0.26327583  1
  O2-  O209  1  0.76727870  0.87386898  0.51070941  1
  O2-  O210  1  0.85481006  0.84805234  0.70404047  1
  O2-  O211  1  0.03167762  -0.13732922  -0.02461328  1
  O2-  O212  1  0.00042509  0.01976831  0.29962664  1
  O2-  O213  1  -0.00543839  0.02777099  0.46269475  1
  O2-  O214  1  0.00549132  -0.14271022  0.81490378  1
  O2-  O215  1  -0.00851223  0.66021500  -0.15052964  1
  O2-  O216  1  0.00606982  0.35120909  0.37556084  1
  O2-  O217  1  -0.02917606  0.63310840  0.39455492  1
  O2-  O218  1  -0.00882563  0.61975025  0.66641246  1
  O2-  O219  1  0.26471098  0.10612281  -0.01539003  1
  O2-  O220  1  0.13895393  -0.03537617  0.16655602  1
  O2-  O221  1  0.25710439  0.15581781  0.59635463  1
  O2-  O222  1  0.23605109  0.11948264  0.82609371  1
  O2-  O223  1  0.26471996  0.46931785  -0.12633089  1
  O2-  O224  1  0.24095008  0.62317429  0.13845083  1
  O2-  O225  1  0.25073620  0.34601040  0.61021405  1
  O2-  O226  1  0.26739255  0.30396046  0.87439842  1
  O2-  O227  1  0.49926181  -0.16844169  0.14174958  1
  O2-  O228  1  0.51117589  0.11110657  0.12861679  1
  O2-  O229  1  0.49961077  0.09711316  0.63666171  1
  O2-  O230  1  0.49515631  -0.11806106  0.62040568  1
  O2-  O231  1  0.49526443  0.62224097  0.09567289  1
  O2-  O232  1  0.51418214  0.39448020  0.13522175  1
  O2-  O233  1  0.50352517  0.37957328  0.64333824  1
  O2-  O234  1  0.50784716  0.65023194  0.87518498  1
  O2-  O235  1  0.76989212  0.10283723  -0.05016071  1
  O2-  O236  1  0.76063143  0.16554184  0.12467033  1
  O2-  O237  1  0.75172897  0.14234713  0.62397811  1
  O2-  O238  1  0.77434214  0.10705039  0.79370119  1
  O2-  O239  1  0.77327114  0.39075354  -0.06254744  1
  O2-  O240  1  0.76936305  0.35181214  0.11381652  1
  O2-  O241  1  0.75242994  0.34329809  0.61513835  1
  O2-  O242  1  0.79005532  0.38553464  0.77716266  1
