# generated using pymatgen
data_Gd19Ta56(WO20)8
_symmetry_space_group_name_H-M   'P 1'
_cell_length_a   15.52525319
_cell_length_b   15.59664526
_cell_length_c   15.13738139
_cell_angle_alpha   90.04572410
_cell_angle_beta   89.84796678
_cell_angle_gamma   90.19743520
_symmetry_Int_Tables_number   1
_chemical_formula_structural   Gd19Ta56(WO20)8
_chemical_formula_sum   'Gd19 Ta56 W8 O160'
_cell_volume   3665.35797910
_cell_formula_units_Z   1
loop_
 _symmetry_equiv_pos_site_id
 _symmetry_equiv_pos_as_xyz
  1  'x, y, z'
loop_
 _atom_type_symbol
 _atom_type_oxidation_number
  Gd3+  3.0
  Ta5+  5.0
  W6+  6.0
  O2-  -2.0
loop_
 _atom_site_type_symbol
 _atom_site_label
 _atom_site_symmetry_multiplicity
 _atom_site_fract_x
 _atom_site_fract_y
 _atom_site_fract_z
 _atom_site_occupancy
  Gd3+  Gd0  1  0.73289977  0.24558531  0.49921860  1
  Gd3+  Gd1  1  0.76223798  0.24536183  0.74547547  1
  Gd3+  Gd2  1  0.74903147  0.24643516  0.25789848  1
  Gd3+  Gd3  1  0.77795713  0.72183424  0.03107516  1
  Gd3+  Gd4  1  0.22939926  0.76133589  0.24430700  1
  Gd3+  Gd5  1  0.76686013  0.24437310  0.01308246  1
  Gd3+  Gd6  1  0.48048991  0.24955351  -0.00686605  1
  Gd3+  Gd7  1  0.27054814  0.27053044  0.46608054  1
  Gd3+  Gd8  1  0.50451075  0.25832000  0.24493030  1
  Gd3+  Gd9  1  0.22908470  0.25497112  0.02624718  1
  Gd3+  Gd10  1  0.26840340  0.74345328  0.48834800  1
  Gd3+  Gd11  1  0.01974140  0.72934456  0.48882854  1
  Gd3+  Gd12  1  -0.02525191  0.72798628  0.23342732  1
  Gd3+  Gd13  1  0.79188348  0.77147122  0.75929933  1
  Gd3+  Gd14  1  0.25980907  0.25295802  0.74113993  1
  Gd3+  Gd15  1  0.50759916  0.24652510  0.73352311  1
  Gd3+  Gd16  1  0.46128621  0.77279374  0.78793143  1
  Gd3+  Gd17  1  0.19491886  0.71303843  0.71590624  1
  Gd3+  Gd18  1  -0.00106559  0.73480535  -0.01877492  1
  Ta5+  Ta19  1  0.62392695  0.86506240  0.63907796  1
  Ta5+  Ta20  1  0.42460221  0.13289529  0.38273275  1
  Ta5+  Ta21  1  0.10824211  0.38690425  0.36198145  1
  Ta5+  Ta22  1  0.59099723  0.11690553  0.38288085  1
  Ta5+  Ta23  1  0.13757402  0.60568692  0.10545860  1
  Ta5+  Ta24  1  0.11779143  0.90412867  0.36474282  1
  Ta5+  Ta25  1  0.09759144  0.59516500  0.85597919  1
  Ta5+  Ta26  1  0.63952707  0.63012682  0.88920162  1
  Ta5+  Ta27  1  0.85225391  0.61301192  0.86110722  1
  Ta5+  Ta28  1  0.06719753  0.36782639  0.11898168  1
  Ta5+  Ta29  1  0.39111832  0.39531241  0.62260293  1
  Ta5+  Ta30  1  0.60602815  0.38226234  0.38156161  1
  Ta5+  Ta31  1  0.34171079  0.88476014  0.11211974  1
  Ta5+  Ta32  1  0.41199280  0.63917456  0.61041809  1
  Ta5+  Ta33  1  0.12336731  0.14854787  0.35186532  1
  Ta5+  Ta34  1  0.37201846  0.13118423  0.13119649  1
  Ta5+  Ta35  1  0.87603542  0.89574926  0.90353772  1
  Ta5+  Ta36  1  0.87497299  0.87870686  0.37921754  1
  Ta5+  Ta37  1  0.91179069  0.88090650  0.62663474  1
  Ta5+  Ta38  1  0.62990337  0.61895642  0.13950975  1
  Ta5+  Ta39  1  0.14218270  0.86405540  0.86431824  1
  Ta5+  Ta40  1  0.12960909  0.37895525  0.61093844  1
  Ta5+  Ta41  1  0.34389829  0.62995539  0.10662409  1
  Ta5+  Ta42  1  0.38971091  0.88470288  0.61607056  1
  Ta5+  Ta43  1  0.90089459  0.37015461  0.13237891  1
  Ta5+  Ta44  1  0.89611609  0.11565773  0.62177606  1
  Ta5+  Ta45  1  0.62937042  0.87335010  0.38198269  1
  Ta5+  Ta46  1  0.90793251  0.61883723  0.63148473  1
  Ta5+  Ta47  1  0.64143092  0.62578609  0.67833577  1
  Ta5+  Ta48  1  0.10145293  0.34903446  0.86724345  1
  Ta5+  Ta49  1  0.89170205  0.12217073  0.37240422  1
  Ta5+  Ta50  1  0.39293949  0.38932825  0.86951664  1
  Ta5+  Ta51  1  0.05816951  0.54155617  0.61318713  1
  Ta5+  Ta52  1  0.87402624  0.89427221  0.12198561  1
  Ta5+  Ta53  1  0.60022813  0.11162680  0.87768682  1
  Ta5+  Ta54  1  0.38731669  0.11416689  0.86737457  1
  Ta5+  Ta55  1  0.64177362  0.87295899  0.13851557  1
  Ta5+  Ta56  1  0.12429957  0.58522422  0.36289658  1
  Ta5+  Ta57  1  0.39147037  0.12854828  0.60772610  1
  Ta5+  Ta58  1  0.60439910  0.38710215  0.87536477  1
  Ta5+  Ta59  1  0.91786528  0.13700140  0.87780762  1
  Ta5+  Ta60  1  0.63253121  0.38078858  0.11965702  1
  Ta5+  Ta61  1  0.14148592  0.12834865  0.60584696  1
  Ta5+  Ta62  1  0.64538712  0.87337345  0.89086077  1
  Ta5+  Ta63  1  0.08791744  0.12248430  0.12473086  1
  Ta5+  Ta64  1  0.92023505  0.13732474  0.13319368  1
  Ta5+  Ta65  1  0.36699282  0.89165774  0.35476353  1
  Ta5+  Ta66  1  0.14720415  0.88698169  0.60679744  1
  Ta5+  Ta67  1  0.63418799  0.38516478  0.63472599  1
  Ta5+  Ta68  1  0.37962958  0.38560822  0.12664819  1
  Ta5+  Ta69  1  0.87024949  0.38107090  0.38917146  1
  Ta5+  Ta70  1  0.62283129  0.11635641  0.12455614  1
  Ta5+  Ta71  1  0.83254473  0.63031343  0.39620337  1
  Ta5+  Ta72  1  0.88621880  0.43045671  0.62744582  1
  Ta5+  Ta73  1  0.33998206  0.62917299  0.87365579  1
  Ta5+  Ta74  1  0.43692826  0.39589195  0.38071593  1
  W6+  W75  1  0.09261454  0.87332455  0.10886394  1
  W6+  W76  1  0.16075638  0.10470963  0.87396265  1
  W6+  W77  1  0.87335281  0.37151777  0.87129735  1
  W6+  W78  1  0.63833733  0.10813955  0.63580973  1
  W6+  W79  1  0.41314995  0.63752366  0.34705206  1
  W6+  W80  1  0.81047306  0.53367726  0.22862970  1
  W6+  W81  1  0.62807629  0.62772106  0.37930515  1
  W6+  W82  1  0.30220677  0.89523939  0.86083837  1
  O2-  O83  1  0.08391311  0.00316413  0.12603079  1
  O2-  O84  1  0.09814802  0.01966627  0.36911743  1
  O2-  O85  1  0.17352321  0.00980850  0.59908839  1
  O2-  O86  1  0.11591075  -0.02219534  0.86594630  1
  O2-  O87  1  0.11386832  0.49031918  0.11617387  1
  O2-  O88  1  0.18667501  0.48348282  0.33877941  1
  O2-  O89  1  0.18651355  0.48278779  0.62955492  1
  O2-  O90  1  0.09379973  0.47170253  0.85752765  1
  O2-  O91  1  0.35399599  0.01423092  0.12130006  1
  O2-  O92  1  0.39720272  0.00395671  0.37593382  1
  O2-  O93  1  0.39278868  0.00398425  0.59703698  1
  O2-  O94  1  0.29066368  0.04119629  0.87416979  1
  O2-  O95  1  0.35527977  0.49952193  0.10321864  1
  O2-  O96  1  0.43479984  0.51619506  0.37664441  1
  O2-  O97  1  0.40021125  0.51671785  0.62364897  1
  O2-  O98  1  0.36129220  0.50417165  0.87980877  1
  O2-  O99  1  0.61829301  -0.00272163  0.11413837  1
  O2-  O100  1  0.58943698  -0.01013471  0.38347088  1
  O2-  O101  1  0.65406957  -0.02203055  0.65843787  1
  O2-  O102  1  0.61925264  -0.00679314  0.88757108  1
  O2-  O103  1  0.60424084  0.49789207  0.11650455  1
  O2-  O104  1  0.63035634  0.49908775  0.38046875  1
  O2-  O105  1  0.64501897  0.50548071  0.65915692  1
  O2-  O106  1  0.62623773  0.50507019  0.87688072  1
  O2-  O107  1  0.89573160  0.01254494  0.12828781  1
  O2-  O108  1  0.90157228  -0.00072620  0.36298290  1
  O2-  O109  1  0.86847116  0.00135072  0.64147713  1
  O2-  O110  1  0.89122786  0.01724156  0.88675220  1
  O2-  O111  1  0.90793531  0.48929467  0.14681219  1
  O2-  O112  1  0.83587150  0.49899129  0.37740259  1
  O2-  O113  1  0.81587117  0.52761860  0.61317036  1
  O2-  O114  1  0.86421050  0.49777691  0.85607322  1
  O2-  O115  1  0.11389403  0.25451247  0.12991498  1
  O2-  O116  1  0.16256892  0.27059726  0.34925118  1
  O2-  O117  1  0.19131334  0.25200697  0.60336619  1
  O2-  O118  1  0.19200199  0.24907791  0.87657917  1
  O2-  O119  1  0.07904554  0.72338886  0.11442928  1
  O2-  O120  1  0.15914542  0.70759404  0.38521481  1
  O2-  O121  1  0.13006362  0.75714599  0.58500142  1
  O2-  O122  1  0.09205493  0.73037886  0.85252170  1
  O2-  O123  1  0.33796494  0.26019924  0.14016689  1
  O2-  O124  1  0.41092459  0.26272339  0.38879447  1
  O2-  O125  1  0.37329928  0.26206515  0.62443803  1
  O2-  O126  1  0.39794215  0.25064685  0.85030569  1
  O2-  O127  1  0.33096600  0.75581381  0.11935681  1
  O2-  O128  1  0.33585347  0.75297199  0.34570653  1
  O2-  O129  1  0.43757945  0.76746936  0.63918565  1
  O2-  O130  1  0.31696374  0.75385913  0.84546802  1
  O2-  O131  1  0.65962047  0.24838369  0.12944040  1
  O2-  O132  1  0.63457130  0.24781280  0.37408378  1
  O2-  O133  1  0.64252257  0.25146608  0.64214779  1
  O2-  O134  1  0.58129939  0.24937561  0.87279665  1
  O2-  O135  1  0.66209370  0.74800780  0.13288590  1
  O2-  O136  1  0.59566711  0.75771068  0.38139185  1
  O2-  O137  1  0.68109542  0.75035333  0.65684400  1
  O2-  O138  1  0.69103011  0.75091216  0.89513527  1
  O2-  O139  1  0.84424016  0.24781583  0.13920216  1
  O2-  O140  1  0.83577708  0.24782468  0.38905525  1
  O2-  O141  1  0.81553798  0.20910886  0.61470738  1
  O2-  O142  1  0.83040142  0.23616049  0.87747169  1
  O2-  O143  1  0.89367132  0.76140685  0.11068177  1
  O2-  O144  1  0.88173682  0.75031365  0.38274872  1
  O2-  O145  1  0.92968355  0.75614651  0.61045153  1
  O2-  O146  1  0.87076607  0.76701000  0.89657228  1
  O2-  O147  1  0.14541127  0.13113025  0.00869623  1
  O2-  O148  1  0.15979518  0.12632576  0.23810636  1
  O2-  O149  1  0.16468175  0.14669929  0.47702669  1
  O2-  O150  1  0.16591388  0.13306346  0.72843383  1
  O2-  O151  1  0.07165573  0.60691226  -0.01813185  1
  O2-  O152  1  0.08048814  0.61669259  0.24850278  1
  O2-  O153  1  0.08251153  0.58088638  0.48350447  1
  O2-  O154  1  0.09668866  0.60721277  0.72435563  1
  O2-  O155  1  0.34884614  0.16205249  -0.00266986  1
  O2-  O156  1  0.40356530  0.13848423  0.25508893  1
  O2-  O157  1  0.34019627  0.14107335  0.49484709  1
  O2-  O158  1  0.35000860  0.13134047  0.73197846  1
  O2-  O159  1  0.39565562  0.64760510  -0.01493173  1
  O2-  O160  1  0.40847860  0.62915121  0.21025427  1
  O2-  O161  1  0.40067071  0.65749138  0.48817395  1
  O2-  O162  1  0.40047928  0.63606221  0.76290320  1
  O2-  O163  1  0.65604122  0.13784010  -0.00646271  1
  O2-  O164  1  0.63278464  0.12413716  0.25230431  1
  O2-  O165  1  0.64670916  0.12389664  0.49848648  1
  O2-  O166  1  0.67674979  0.12798881  0.77705428  1
  O2-  O167  1  0.60567948  0.63740449  0.00906094  1
  O2-  O168  1  0.57951614  0.62411342  0.25130835  1
  O2-  O169  1  0.53973646  0.63575683  0.61156608  1
  O2-  O170  1  0.57462259  0.66612004  0.78304768  1
  O2-  O171  1  0.90302182  0.15478666  0.00506329  1
  O2-  O172  1  0.84678299  0.13325922  0.25496260  1
  O2-  O173  1  0.86214359  0.10919848  0.49513122  1
  O2-  O174  1  0.88930318  0.14327455  0.74872006  1
  O2-  O175  1  0.88307398  0.62942455  -0.01932386  1
  O2-  O176  1  0.90249711  0.61758510  0.28206540  1
  O2-  O177  1  0.91178239  0.62436474  0.49563765  1
  O2-  O178  1  0.90096181  0.66910646  0.75612676  1
  O2-  O179  1  0.12310128  0.35850966  -0.00733582  1
  O2-  O180  1  0.06085202  0.37898529  0.24656761  1
  O2-  O181  1  0.16012732  0.37138406  0.48506643  1
  O2-  O182  1  0.13140799  0.33897940  0.73907289  1
  O2-  O183  1  0.12761398  0.83508442  -0.01393636  1
  O2-  O184  1  0.00894690  0.85696631  0.40787370  1
  O2-  O185  1  0.17017070  0.87393756  0.47579188  1
  O2-  O186  1  0.13698708  0.85385247  0.73016327  1
  O2-  O187  1  0.34632761  0.35194731  -0.01023280  1
  O2-  O188  1  0.41135351  0.38503438  0.25163664  1
  O2-  O189  1  0.36171700  0.38833385  0.49991851  1
  O2-  O190  1  0.33526034  0.38406176  0.74330012  1
  O2-  O191  1  0.35309671  0.88651702  -0.00890402  1
  O2-  O192  1  0.39970740  0.87931492  0.23196713  1
  O2-  O193  1  0.37473673  0.85541468  0.48153527  1
  O2-  O194  1  0.39514546  0.89735173  0.74464324  1
  O2-  O195  1  0.66289284  0.35901568  -0.01155454  1
  O2-  O196  1  0.61823296  0.36816648  0.24902908  1
  O2-  O197  1  0.65035914  0.37198228  0.50930195  1
  O2-  O198  1  0.67112924  0.36438996  0.76627478  1
  O2-  O199  1  0.60599423  0.85926485  0.00935817  1
  O2-  O200  1  0.59427946  0.87474791  0.25113963  1
  O2-  O201  1  0.62492313  0.86835021  0.51531586  1
  O2-  O202  1  0.58917275  0.85138368  0.77642265  1
  O2-  O203  1  0.86536600  0.36028705  0.00843239  1
  O2-  O204  1  0.85339078  0.36121513  0.26209666  1
  O2-  O205  1  0.84084155  0.37160036  0.51679592  1
  O2-  O206  1  0.86235735  0.35795245  0.72563682  1
  O2-  O207  1  0.95819372  0.88596867  0.01204464  1
  O2-  O208  1  0.90794374  0.86547726  0.24599132  1
  O2-  O209  1  0.86302766  0.88480032  0.50737504  1
  O2-  O210  1  0.90387747  0.87140640  0.75641294  1
  O2-  O211  1  0.03266315  0.14187365  -0.13594634  1
  O2-  O212  1  0.00311167  0.16941897  0.37490007  1
  O2-  O213  1  0.01866967  0.12728500  0.60436377  1
  O2-  O214  1  0.02514143  -0.08732879  0.59829948  1
  O2-  O215  1  -0.00825697  0.30508273  -0.13087300  1
  O2-  O216  1  -0.00989642  0.37331091  0.40480799  1
  O2-  O217  1  0.01102211  0.40438878  0.58871559  1
  O2-  O218  1  -0.04129962  0.51166305  0.69960791  1
  O2-  O219  1  0.22582047  -0.11878628  0.14564031  1
  O2-  O220  1  0.09740020  -0.16001410  0.25551164  1
  O2-  O221  1  0.24559964  -0.09941446  0.33130947  1
  O2-  O222  1  0.27075243  -0.15046192  0.62066275  1
  O2-  O223  1  0.23400367  0.61395426  0.02690589  1
  O2-  O224  1  0.23502789  0.62598187  0.18887074  1
  O2-  O225  1  0.28938824  0.66707971  0.61810562  1
  O2-  O226  1  0.22192088  0.60693653  0.84323403  1
  O2-  O227  1  0.48866941  0.10400362  -0.05086981  1
  O2-  O228  1  0.50192629  0.16158091  0.11942973  1
  O2-  O229  1  0.50948451  0.14914669  0.61322733  1
  O2-  O230  1  0.50043972  0.11037155  0.79146871  1
  O2-  O231  1  0.49645499  0.39380554  -0.05232297  1
  O2-  O232  1  0.50279683  0.34045899  0.11477481  1
  O2-  O233  1  0.51070497  0.36889263  0.61759366  1
  O2-  O234  1  0.49790869  0.38757447  0.78814414  1
  O2-  O235  1  0.79514792  -0.12015270  0.00905498  1
  O2-  O236  1  0.75638347  -0.10378553  0.16842276  1
  O2-  O237  1  0.75059162  -0.12161415  0.36541184  1
  O2-  O238  1  0.75965587  -0.10274038  0.84261038  1
  O2-  O239  1  0.75028339  0.60201649  0.12014511  1
  O2-  O240  1  0.74162305  0.63205510  0.29930667  1
  O2-  O241  1  0.72950964  0.64552183  0.46350777  1
  O2-  O242  1  0.73561822  0.62561405  0.78676927  1
