# generated using pymatgen
data_Gd19Ta56(WO20)8
_symmetry_space_group_name_H-M   'P 1'
_cell_length_a   15.55705585
_cell_length_b   15.48447886
_cell_length_c   15.22154191
_cell_angle_alpha   90.17730699
_cell_angle_beta   89.94693449
_cell_angle_gamma   90.14952933
_symmetry_Int_Tables_number   1
_chemical_formula_structural   Gd19Ta56(WO20)8
_chemical_formula_sum   'Gd19 Ta56 W8 O160'
_cell_volume   3666.72982124
_cell_formula_units_Z   1
loop_
 _symmetry_equiv_pos_site_id
 _symmetry_equiv_pos_as_xyz
  1  'x, y, z'
loop_
 _atom_type_symbol
 _atom_type_oxidation_number
  Gd3+  3.0
  Ta5+  5.0
  W6+  6.0
  O2-  -2.0
loop_
 _atom_site_type_symbol
 _atom_site_label
 _atom_site_symmetry_multiplicity
 _atom_site_fract_x
 _atom_site_fract_y
 _atom_site_fract_z
 _atom_site_occupancy
  Gd3+  Gd0  1  -0.01496395  0.24227547  0.75390843  1
  Gd3+  Gd1  1  0.03493049  0.75861423  -0.01227843  1
  Gd3+  Gd2  1  0.49715208  0.24720782  0.74388076  1
  Gd3+  Gd3  1  0.18564835  0.14889491  0.82739096  1
  Gd3+  Gd4  1  0.79776174  0.25686143  -0.00501855  1
  Gd3+  Gd5  1  0.03500042  0.25129890  -0.00293211  1
  Gd3+  Gd6  1  0.46266764  0.73200060  0.21592703  1
  Gd3+  Gd7  1  0.22637920  0.77388857  0.24886141  1
  Gd3+  Gd8  1  0.81929558  0.26705289  0.51482448  1
  Gd3+  Gd9  1  0.75296152  0.73305081  0.50370060  1
  Gd3+  Gd10  1  -0.00516865  0.26028442  0.26262791  1
  Gd3+  Gd11  1  0.74629152  0.72333431  0.74865120  1
  Gd3+  Gd12  1  0.50322566  0.23819565  0.49158723  1
  Gd3+  Gd13  1  0.73290736  0.74083434  -0.00041789  1
  Gd3+  Gd14  1  0.22199251  0.74814988  0.73570192  1
  Gd3+  Gd15  1  0.74649878  0.73697955  0.24976657  1
  Gd3+  Gd16  1  0.44838999  0.74289640  0.78629984  1
  Gd3+  Gd17  1  -0.00394554  0.74518422  0.51348979  1
  Gd3+  Gd18  1  0.73975013  0.25151213  0.74939878  1
  Ta5+  Ta19  1  0.64087431  0.39863267  0.61781971  1
  Ta5+  Ta20  1  0.87981976  0.09976220  0.62366951  1
  Ta5+  Ta21  1  0.63887514  0.36268533  0.35221583  1
  Ta5+  Ta22  1  0.60671492  0.61000032  0.37213488  1
  Ta5+  Ta23  1  0.13657733  0.38271987  0.13280276  1
  Ta5+  Ta24  1  0.36437263  0.63891720  0.61695551  1
  Ta5+  Ta25  1  0.86487900  0.88263922  0.12012335  1
  Ta5+  Ta26  1  0.14939996  0.62138274  0.88117865  1
  Ta5+  Ta27  1  0.32190701  0.61433360  0.90187751  1
  Ta5+  Ta28  1  0.40284172  0.40313862  0.61794606  1
  Ta5+  Ta29  1  0.86571899  0.42867225  0.87031946  1
  Ta5+  Ta30  1  0.04003344  0.88067833  0.36757800  1
  Ta5+  Ta31  1  0.13292309  0.38184866  0.38423950  1
  Ta5+  Ta32  1  0.12572430  0.11878850  0.13240105  1
  Ta5+  Ta33  1  0.39544041  0.11681039  0.87334647  1
  Ta5+  Ta34  1  0.59017219  0.84939870  0.61595959  1
  Ta5+  Ta35  1  0.16650191  0.37505258  0.61497956  1
  Ta5+  Ta36  1  0.92128911  0.11735384  0.11505182  1
  Ta5+  Ta37  1  0.16114968  0.89077891  0.88030373  1
  Ta5+  Ta38  1  0.63578042  0.36611877  0.09669577  1
  Ta5+  Ta39  1  0.84707739  0.10349764  0.87204080  1
  Ta5+  Ta40  1  0.89523405  0.43966240  0.63416807  1
  Ta5+  Ta41  1  0.87779525  0.60530986  0.37157015  1
  Ta5+  Ta42  1  0.09264099  0.60180464  0.63097125  1
  Ta5+  Ta43  1  0.16762115  0.37990612  0.87004364  1
  Ta5+  Ta44  1  0.66380842  0.08229201  0.60765409  1
  Ta5+  Ta45  1  0.63351170  0.11363527  0.90408444  1
  Ta5+  Ta46  1  0.59508835  0.59774276  0.62232614  1
  Ta5+  Ta47  1  0.36886576  0.57747266  0.09342733  1
  Ta5+  Ta48  1  0.63544085  0.37427972  0.89369295  1
  Ta5+  Ta49  1  0.37025683  0.35536410  0.12203922  1
  Ta5+  Ta50  1  0.36487880  0.89988188  0.13442369  1
  Ta5+  Ta51  1  0.11441719  0.11933607  0.38056017  1
  Ta5+  Ta52  1  0.09641024  0.88306087  0.62718950  1
  Ta5+  Ta53  1  0.86602752  0.89336228  0.63015316  1
  Ta5+  Ta54  1  0.87566270  0.40968599  0.37283035  1
  Ta5+  Ta55  1  0.35737890  0.11952608  0.38052764  1
  Ta5+  Ta56  1  0.15460496  0.12538770  0.61103889  1
  Ta5+  Ta57  1  0.65844493  0.87369629  0.38134154  1
  Ta5+  Ta58  1  0.36287003  0.88605259  0.36166296  1
  Ta5+  Ta59  1  0.61516271  0.88068203  0.13092936  1
  Ta5+  Ta60  1  0.87808368  0.86526153  0.87403155  1
  Ta5+  Ta61  1  0.33127879  0.87665784  0.88613595  1
  Ta5+  Ta62  1  0.59077545  0.87112734  0.87648966  1
  Ta5+  Ta63  1  0.36112028  0.11731166  0.61905167  1
  Ta5+  Ta64  1  0.87082841  0.11964943  0.36724381  1
  Ta5+  Ta65  1  0.36882889  0.37341235  0.37550973  1
  Ta5+  Ta66  1  0.11064484  0.62928582  0.13431187  1
  Ta5+  Ta67  1  0.68087280  0.11075718  0.10996211  1
  Ta5+  Ta68  1  0.36691902  0.62163350  0.36391009  1
  Ta5+  Ta69  1  0.10504649  0.89406144  0.13109077  1
  Ta5+  Ta70  1  0.64168732  0.12058353  0.35802711  1
  Ta5+  Ta71  1  0.37663110  0.12862005  0.12788928  1
  Ta5+  Ta72  1  0.87496614  0.62359761  0.11835505  1
  Ta5+  Ta73  1  0.90870825  0.61846130  0.87832841  1
  Ta5+  Ta74  1  0.86706024  0.87213062  0.37126712  1
  W6+  W75  1  0.62030275  0.61600060  0.12266003  1
  W6+  W76  1  0.60512752  0.61570173  0.87035200  1
  W6+  W77  1  0.34577865  0.87065895  0.61059650  1
  W6+  W78  1  0.91007795  0.38201105  0.11464848  1
  W6+  W79  1  0.11067042  0.62670669  0.37302177  1
  W6+  W80  1  0.90335247  0.63186519  0.63449683  1
  W6+  W81  1  0.22125674  0.03347744  0.99345658  1
  W6+  W82  1  0.33023740  0.36340572  0.86936704  1
  O2-  O83  1  0.15110849  -0.00008443  0.16737575  1
  O2-  O84  1  0.06886032  0.00530731  0.36609365  1
  O2-  O85  1  0.13866579  -0.00348876  0.61908070  1
  O2-  O86  1  0.15954645  0.01548956  0.86555874  1
  O2-  O87  1  0.11441467  0.50309680  0.13368479  1
  O2-  O88  1  0.15345725  0.49809020  0.37426534  1
  O2-  O89  1  0.16324241  0.50516171  0.61369673  1
  O2-  O90  1  0.14210203  0.49650411  0.88199303  1
  O2-  O91  1  0.42000777  0.01609149  0.14317731  1
  O2-  O92  1  0.40107029  0.00405722  0.36356151  1
  O2-  O93  1  0.37864985  0.00059797  0.62061955  1
  O2-  O94  1  0.36503232  0.00107448  0.86052401  1
  O2-  O95  1  0.42350260  0.46573867  0.10978950  1
  O2-  O96  1  0.36096350  0.49767240  0.37383633  1
  O2-  O97  1  0.35931112  0.51507939  0.62049028  1
  O2-  O98  1  0.33895040  0.49856647  0.87437092  1
  O2-  O99  1  0.68247484  -0.01499085  0.11883252  1
  O2-  O100  1  0.64556340  0.00296363  0.38037149  1
  O2-  O101  1  0.60430387  -0.02299641  0.62650842  1
  O2-  O102  1  0.61178368  -0.00552180  0.86721883  1
  O2-  O103  1  0.61916018  0.48165469  0.10970637  1
  O2-  O104  1  0.59972718  0.47737519  0.37152207  1
  O2-  O105  1  0.67654570  0.50838466  0.58278018  1
  O2-  O106  1  0.59160503  0.48101117  0.86931573  1
  O2-  O107  1  0.87372946  0.00540400  0.10533605  1
  O2-  O108  1  0.85960590  0.00185536  0.37100035  1
  O2-  O109  1  0.78170284  0.01009508  0.62357184  1
  O2-  O110  1  0.87866890  -0.01090465  0.88856471  1
  O2-  O111  1  0.90392808  0.51263411  0.09279931  1
  O2-  O112  1  0.95855030  0.50532356  0.37333702  1
  O2-  O113  1  0.81737779  0.52224216  0.65233253  1
  O2-  O114  1  0.81133794  0.53126822  0.90968069  1
  O2-  O115  1  0.11079531  0.25491574  0.13237372  1
  O2-  O116  1  0.09363300  0.24766594  0.37750858  1
  O2-  O117  1  0.14481549  0.25381721  0.60798585  1
  O2-  O118  1  0.09465873  0.26498006  0.86247337  1
  O2-  O119  1  0.14055321  0.76120492  0.12060122  1
  O2-  O120  1  0.05022476  0.75045913  0.37631635  1
  O2-  O121  1  0.11036956  0.74222923  0.62391915  1
  O2-  O122  1  0.15777543  0.75747315  0.88620459  1
  O2-  O123  1  0.42919967  0.24645481  0.12546350  1
  O2-  O124  1  0.38734032  0.24457240  0.39908788  1
  O2-  O125  1  0.42427806  0.24249510  0.61525484  1
  O2-  O126  1  0.31931291  0.21425271  0.86112339  1
  O2-  O127  1  0.34047008  0.77559322  0.15166826  1
  O2-  O128  1  0.36139075  0.75528872  0.33503362  1
  O2-  O129  1  0.29664887  0.74098025  0.60691913  1
  O2-  O130  1  0.34172858  0.74589835  0.89458680  1
  O2-  O131  1  0.69294225  0.24019061  0.09910519  1
  O2-  O132  1  0.58678483  0.24648453  0.36394786  1
  O2-  O133  1  0.76174691  0.35418268  0.63199204  1
  O2-  O134  1  0.66907191  0.24079626  0.88900116  1
  O2-  O135  1  0.64550997  0.75591013  0.13396338  1
  O2-  O136  1  0.65078137  0.73635986  0.38247316  1
  O2-  O137  1  0.64462860  0.72730364  0.61991210  1
  O2-  O138  1  0.65250826  0.75798219  0.86291202  1
  O2-  O139  1  0.92363593  0.24660688  0.11537552  1
  O2-  O140  1  0.90187019  0.26872181  0.38446728  1
  O2-  O141  1  0.91767478  0.22554701  0.62825966  1
  O2-  O142  1  0.85489073  0.23405609  0.84748801  1
  O2-  O143  1  0.83184936  0.75691011  0.12534977  1
  O2-  O144  1  0.84144509  0.73704370  0.37076308  1
  O2-  O145  1  0.82861325  0.75974485  0.62947073  1
  O2-  O146  1  0.82986803  0.74534099  0.87845726  1
  O2-  O147  1  0.11657922  0.13147167  0.00094059  1
  O2-  O148  1  0.08300220  0.13583534  0.25345242  1
  O2-  O149  1  0.08747489  0.11917813  0.50289312  1
  O2-  O150  1  0.08469459  0.14071609  0.71848554  1
  O2-  O151  1  0.10636359  0.63068356  0.00754758  1
  O2-  O152  1  0.17086828  0.63805400  0.24549071  1
  O2-  O153  1  0.07129278  0.61972407  0.50572453  1
  O2-  O154  1  0.14294726  0.62193384  0.74915678  1
  O2-  O155  1  0.39604371  0.12311359  0.00000326  1
  O2-  O156  1  0.37997226  0.14183694  0.26055091  1
  O2-  O157  1  0.42420611  0.11485176  0.49430730  1
  O2-  O158  1  0.41677250  0.12685299  0.74012336  1
  O2-  O159  1  0.42276998  0.63298216  0.00198151  1
  O2-  O160  1  0.36953431  0.61219755  0.22041055  1
  O2-  O161  1  0.37591122  0.63801759  0.48731475  1
  O2-  O162  1  0.33885108  0.64608747  0.75225584  1
  O2-  O163  1  0.58980872  0.10849884  0.02271465  1
  O2-  O164  1  0.64580041  0.12202798  0.23301799  1
  O2-  O165  1  0.62061076  0.12815421  0.50098085  1
  O2-  O166  1  0.60711680  0.15792865  0.68487164  1
  O2-  O167  1  0.75581208  0.61654762  0.08681474  1
  O2-  O168  1  0.66134778  0.61252691  0.25766940  1
  O2-  O169  1  0.58711748  0.61928121  0.49747011  1
  O2-  O170  1  0.64885058  0.60637454  0.73889447  1
  O2-  O171  1  0.91749068  0.14119064  -0.02265357  1
  O2-  O172  1  0.89968125  0.12927663  0.24524737  1
  O2-  O173  1  0.88369783  0.12752671  0.49809733  1
  O2-  O174  1  0.90248999  0.10538331  0.75402897  1
  O2-  O175  1  0.91186823  0.66849823  -0.00062437  1
  O2-  O176  1  0.85139631  0.62003875  0.24569890  1
  O2-  O177  1  0.88469827  0.63732709  0.49402550  1
  O2-  O178  1  0.86183387  0.63672837  0.76646624  1
  O2-  O179  1  0.13455766  0.36652823  0.00334019  1
  O2-  O180  1  0.09073533  0.37426154  0.25995318  1
  O2-  O181  1  0.09735821  0.38358915  0.50427335  1
  O2-  O182  1  0.14814390  0.37519206  0.74014690  1
  O2-  O183  1  0.11814831  0.89272600  0.00230528  1
  O2-  O184  1  0.09963459  0.86019644  0.25699202  1
  O2-  O185  1  0.06808891  0.87609858  0.49998796  1
  O2-  O186  1  0.13794762  0.87321811  0.74888939  1
  O2-  O187  1  0.33391902  0.34723500  0.00662706  1
  O2-  O188  1  0.40231647  0.36289019  0.25949130  1
  O2-  O189  1  0.43477534  0.37803564  0.49155688  1
  O2-  O190  1  0.40373782  0.36606348  0.73686507  1
  O2-  O191  1  0.34642396  0.89333414  0.01371534  1
  O2-  O192  1  0.29780916  0.91031879  0.25058773  1
  O2-  O193  1  0.32683380  0.87665295  0.47459826  1
  O2-  O194  1  0.34980717  0.84441598  0.75015771  1
  O2-  O195  1  0.56218522  0.34192095  -0.00418369  1
  O2-  O196  1  0.64148203  0.35427096  0.23009935  1
  O2-  O197  1  0.61975400  0.34124777  0.51124860  1
  O2-  O198  1  0.61640981  0.34303504  0.73803235  1
  O2-  O199  1  0.62463224  0.86457682  -0.00203470  1
  O2-  O200  1  0.64042953  0.87167626  0.25534769  1
  O2-  O201  1  0.67004213  0.85868054  0.51349496  1
  O2-  O202  1  0.57364263  0.84422134  0.74299210  1
  O2-  O203  1  0.90610325  0.36267983  -0.03329796  1
  O2-  O204  1  0.89401242  0.38502001  0.25407623  1
  O2-  O205  1  0.89024709  0.39881042  0.51226767  1
  O2-  O206  1  0.90836808  0.38162704  0.74937500  1
  O2-  O207  1  0.82255092  0.86912837  -0.00758789  1
  O2-  O208  1  0.83840495  0.87818707  0.24181519  1
  O2-  O209  1  0.86147939  0.86592455  0.50638811  1
  O2-  O210  1  0.82549711  0.87775622  0.75723444  1
  O2-  O211  1  -0.00404994  -0.14577874  -0.12313266  1
  O2-  O212  1  -0.01724980  -0.14506795  0.10326214  1
  O2-  O213  1  -0.05504254  -0.00370329  0.61352025  1
  O2-  O214  1  -0.02290212  -0.15578323  0.65596777  1
  O2-  O215  1  0.01918766  0.66829572  -0.13580859  1
  O2-  O216  1  -0.00308739  0.65790362  0.15637454  1
  O2-  O217  1  -0.00680704  0.51643365  0.64158834  1
  O2-  O218  1  -0.03815602  0.50545765  0.85663663  1
  O2-  O219  1  0.25673611  0.12106766  0.11728370  1
  O2-  O220  1  0.23543101  0.10940936  0.36759155  1
  O2-  O221  1  0.26394828  0.13396233  0.53774850  1
  O2-  O222  1  0.25524107  0.12553244  0.69804802  1
  O2-  O223  1  0.26829967  0.57989300  0.02771953  1
  O2-  O224  1  0.25389588  0.37281637  0.16487375  1
  O2-  O225  1  0.24966096  0.34698502  0.38395692  1
  O2-  O226  1  0.28491272  0.36548962  0.59313175  1
  O2-  O227  1  0.47409446  -0.14354672  -0.11167311  1
  O2-  O228  1  0.49250525  -0.13854906  0.13796290  1
  O2-  O229  1  0.48184520  -0.16544993  0.57765778  1
  O2-  O230  1  0.52062695  0.15582216  0.86797570  1
  O2-  O231  1  0.61250621  0.64995582  -0.00723369  1
  O2-  O232  1  0.49254386  0.63708058  0.34042005  1
  O2-  O233  1  0.48321163  0.65311419  0.65275733  1
  O2-  O234  1  0.52720776  0.46329564  0.63085487  1
  O2-  O235  1  0.74789182  0.10960478  -0.02090461  1
  O2-  O236  1  0.75295713  0.16506984  0.38311317  1
  O2-  O237  1  0.76244158  0.16803301  0.62101349  1
  O2-  O238  1  0.73362137  0.10430515  0.81251809  1
  O2-  O239  1  0.71913153  0.38226042  -0.00292290  1
  O2-  O240  1  0.75294664  0.35381754  0.38911100  1
  O2-  O241  1  0.79752661  0.51095179  0.38439117  1
  O2-  O242  1  0.75334935  0.38249381  0.83178069  1
