# generated using pymatgen
data_Gd19Ta56(WO20)8
_symmetry_space_group_name_H-M   'P 1'
_cell_length_a   15.58462709
_cell_length_b   15.58923418
_cell_length_c   15.20451133
_cell_angle_alpha   89.81941201
_cell_angle_beta   90.18493258
_cell_angle_gamma   90.15869015
_symmetry_Int_Tables_number   1
_chemical_formula_structural   Gd19Ta56(WO20)8
_chemical_formula_sum   'Gd19 Ta56 W8 O160'
_cell_volume   3693.92088220
_cell_formula_units_Z   1
loop_
 _symmetry_equiv_pos_site_id
 _symmetry_equiv_pos_as_xyz
  1  'x, y, z'
loop_
 _atom_type_symbol
 _atom_type_oxidation_number
  Gd3+  3.0
  Ta5+  5.0
  W6+  6.0
  O2-  -2.0
loop_
 _atom_site_type_symbol
 _atom_site_label
 _atom_site_symmetry_multiplicity
 _atom_site_fract_x
 _atom_site_fract_y
 _atom_site_fract_z
 _atom_site_occupancy
  Gd3+  Gd0  1  0.49834118  0.76895878  0.75246460  1
  Gd3+  Gd1  1  0.74030543  0.72007014  0.23302398  1
  Gd3+  Gd2  1  0.27624572  0.26862216  -0.00760447  1
  Gd3+  Gd3  1  0.25253405  0.25036538  0.26007252  1
  Gd3+  Gd4  1  0.49968828  0.78651431  0.25975603  1
  Gd3+  Gd5  1  -0.00560527  0.24656033  0.25764829  1
  Gd3+  Gd6  1  0.75094044  0.24912532  0.25056698  1
  Gd3+  Gd7  1  0.73371180  0.24692558  -0.03466603  1
  Gd3+  Gd8  1  0.27306575  0.27203099  0.75699366  1
  Gd3+  Gd9  1  -0.00854905  0.75761400  0.76231790  1
  Gd3+  Gd10  1  0.04251521  0.24613687  -0.01907246  1
  Gd3+  Gd11  1  -0.02195343  0.75417686  0.25208954  1
  Gd3+  Gd12  1  -0.04083762  0.24646585  0.74539771  1
  Gd3+  Gd13  1  0.51518443  0.25073207  0.52405802  1
  Gd3+  Gd14  1  -0.00519678  0.27142332  0.51996599  1
  Gd3+  Gd15  1  0.27224528  0.75751550  0.01357468  1
  Gd3+  Gd16  1  0.23891221  0.74597646  0.50555339  1
  Gd3+  Gd17  1  0.26105731  0.27144285  0.50397545  1
  Gd3+  Gd18  1  0.74885602  0.25610772  0.51983022  1
  Ta5+  Ta19  1  0.90933571  0.38565910  0.91656691  1
  Ta5+  Ta20  1  0.34794799  0.88773381  0.62594015  1
  Ta5+  Ta21  1  0.61947035  0.12194996  0.12265358  1
  Ta5+  Ta22  1  0.86818675  0.10832457  0.37203921  1
  Ta5+  Ta23  1  0.36433950  0.63378333  0.62765914  1
  Ta5+  Ta24  1  0.14981601  0.10979620  0.87716508  1
  Ta5+  Ta25  1  0.40644325  0.12246423  0.37266304  1
  Ta5+  Ta26  1  0.37540043  0.12020218  0.12368828  1
  Ta5+  Ta27  1  0.84925326  0.61888270  0.86632767  1
  Ta5+  Ta28  1  0.85981263  0.87693464  0.61973616  1
  Ta5+  Ta29  1  0.13012036  0.38731442  0.36774958  1
  Ta5+  Ta30  1  0.57994064  0.12221974  0.87454466  1
  Ta5+  Ta31  1  0.17983491  0.63420604  0.87287930  1
  Ta5+  Ta32  1  0.14237367  0.87820239  0.87983279  1
  Ta5+  Ta33  1  0.82066976  0.45006266  0.71003127  1
  Ta5+  Ta34  1  0.34968206  0.63017915  0.87582556  1
  Ta5+  Ta35  1  0.37467414  0.12952741  0.62974818  1
  Ta5+  Ta36  1  0.62586929  0.88116948  0.88561122  1
  Ta5+  Ta37  1  0.37285428  0.64152366  0.36483831  1
  Ta5+  Ta38  1  0.83443008  0.87531091  0.13462728  1
  Ta5+  Ta39  1  0.87876982  0.38495436  0.37128103  1
  Ta5+  Ta40  1  0.86310498  0.87291723  0.88377360  1
  Ta5+  Ta41  1  0.86042168  0.61758665  0.11001421  1
  Ta5+  Ta42  1  0.62889423  0.39511663  0.63195258  1
  Ta5+  Ta43  1  0.88027069  0.11452661  0.11919526  1
  Ta5+  Ta44  1  0.14898852  0.40524353  0.88119038  1
  Ta5+  Ta45  1  0.61274022  0.61861910  0.12096823  1
  Ta5+  Ta46  1  0.15322119  0.86759406  0.14160600  1
  Ta5+  Ta47  1  0.42677494  0.39247030  0.14808731  1
  Ta5+  Ta48  1  0.60782517  0.10627291  0.37331750  1
  Ta5+  Ta49  1  0.11743457  0.11946305  0.37649207  1
  Ta5+  Ta50  1  0.38660698  0.39106225  0.36450318  1
  Ta5+  Ta51  1  0.66169163  0.88215091  0.13783430  1
  Ta5+  Ta52  1  0.13781194  0.63543784  0.12748017  1
  Ta5+  Ta53  1  0.57340210  0.37598813  0.87431943  1
  Ta5+  Ta54  1  0.08674959  0.39188166  0.12693367  1
  Ta5+  Ta55  1  0.41523112  0.13633455  0.87519550  1
  Ta5+  Ta56  1  0.62044916  0.37075048  0.11583439  1
  Ta5+  Ta57  1  0.83899837  0.87132756  0.36625267  1
  Ta5+  Ta58  1  0.60391610  0.37375582  0.36550890  1
  Ta5+  Ta59  1  0.61855941  0.10942553  0.63770386  1
  Ta5+  Ta60  1  0.34430325  0.89249685  0.14665402  1
  Ta5+  Ta61  1  0.37201725  0.89373171  0.88156995  1
  Ta5+  Ta62  1  0.12221022  0.62248023  0.63040792  1
  Ta5+  Ta63  1  0.67240591  0.87790458  0.37072845  1
  Ta5+  Ta64  1  0.65839321  0.61742303  0.38076946  1
  Ta5+  Ta65  1  0.90370015  0.11013073  0.89891284  1
  Ta5+  Ta66  1  0.40551847  0.39538661  0.88702468  1
  Ta5+  Ta67  1  0.32665973  0.89389169  0.36615139  1
  Ta5+  Ta68  1  0.38398346  0.39491640  0.62437865  1
  Ta5+  Ta69  1  0.65498507  0.87417205  0.62459279  1
  Ta5+  Ta70  1  0.12879749  0.63355890  0.36459765  1
  Ta5+  Ta71  1  0.16203286  0.87530332  0.36114766  1
  Ta5+  Ta72  1  0.09596291  0.10789372  0.12844799  1
  Ta5+  Ta73  1  0.83144554  0.62071147  0.38058942  1
  Ta5+  Ta74  1  0.61009076  0.62592480  0.88363851  1
  W6+  W75  1  0.10614777  0.87706937  0.61726618  1
  W6+  W76  1  0.84630374  0.08372161  0.63161934  1
  W6+  W77  1  0.87459492  0.38123494  0.12420266  1
  W6+  W78  1  0.61125190  0.64376770  0.62455652  1
  W6+  W79  1  0.13799879  0.10597817  0.62841386  1
  W6+  W80  1  0.13375269  0.41684325  0.62798572  1
  W6+  W81  1  0.39542040  0.63765121  0.13666454  1
  W6+  W82  1  0.91448219  0.63421532  0.61420429  1
  O2-  O83  1  0.11563544  -0.00811530  0.12484956  1
  O2-  O84  1  0.13435463  0.00267824  0.37186017  1
  O2-  O85  1  0.09762596  0.00161104  0.58814552  1
  O2-  O86  1  0.11123793  -0.00256885  0.90470049  1
  O2-  O87  1  0.10930240  0.50775191  0.12041759  1
  O2-  O88  1  0.11549296  0.50413911  0.35702975  1
  O2-  O89  1  0.05075430  0.52477464  0.62106544  1
  O2-  O90  1  0.12631059  0.51772112  0.90347979  1
  O2-  O91  1  0.31543154  0.01939593  0.13171732  1
  O2-  O92  1  0.33310321  0.02317542  0.37031407  1
  O2-  O93  1  0.37427344  0.00917128  0.62100845  1
  O2-  O94  1  0.40539379  0.01104183  0.87891581  1
  O2-  O95  1  0.42741781  0.50809062  0.13799342  1
  O2-  O96  1  0.37433716  0.50965442  0.36025390  1
  O2-  O97  1  0.39975608  0.51479637  0.62610079  1
  O2-  O98  1  0.39786998  0.51559544  0.87688928  1
  O2-  O99  1  0.66390117  0.01319318  0.13422412  1
  O2-  O100  1  0.68131596  0.00943874  0.36839699  1
  O2-  O101  1  0.60139441  -0.00877557  0.61614050  1
  O2-  O102  1  0.58115525  -0.00863688  0.89223486  1
  O2-  O103  1  0.61245756  0.49013093  0.11193519  1
  O2-  O104  1  0.64082807  0.48534419  0.37577909  1
  O2-  O105  1  0.64050304  0.51179422  0.63031919  1
  O2-  O106  1  0.59800986  0.50738715  0.88495136  1
  O2-  O107  1  0.84912260  -0.00080425  0.12154788  1
  O2-  O108  1  0.88152500  -0.00891443  0.37255406  1
  O2-  O109  1  0.92481646  -0.02043166  0.60683746  1
  O2-  O110  1  0.91140318  -0.01018744  0.90137162  1
  O2-  O111  1  0.90495874  0.50905351  0.10694135  1
  O2-  O112  1  0.87629630  0.50110221  0.39003448  1
  O2-  O113  1  0.87835481  0.50264309  0.62298525  1
  O2-  O114  1  0.90228625  0.50349828  0.89583247  1
  O2-  O115  1  0.07495639  0.24583370  0.13044638  1
  O2-  O116  1  0.12355248  0.25017365  0.34548870  1
  O2-  O117  1  0.04033696  0.31516176  0.64686483  1
  O2-  O118  1  0.17703913  0.24244613  0.87507671  1
  O2-  O119  1  0.18987681  0.74457734  0.15378803  1
  O2-  O120  1  0.17800225  0.74482939  0.35391600  1
  O2-  O121  1  0.13909210  0.74779913  0.62140233  1
  O2-  O122  1  0.18648210  0.75909512  0.87151778  1
  O2-  O123  1  0.29165905  0.21365647  0.12596771  1
  O2-  O124  1  0.34853731  0.25072932  0.37832422  1
  O2-  O125  1  0.39070526  0.26081149  0.60877969  1
  O2-  O126  1  0.37333276  0.26239415  0.87665448  1
  O2-  O127  1  0.37162361  0.77063139  0.14447408  1
  O2-  O128  1  0.35648984  0.76506375  0.35521948  1
  O2-  O129  1  0.35386656  0.76071259  0.61903070  1
  O2-  O130  1  0.37593879  0.76503305  0.88470565  1
  O2-  O131  1  0.68404754  0.23963664  0.11148041  1
  O2-  O132  1  0.68053858  0.26874795  0.38119698  1
  O2-  O133  1  0.63769108  0.24041100  0.62261338  1
  O2-  O134  1  0.58155116  0.24865483  0.87256804  1
  O2-  O135  1  0.61652054  0.75348128  0.15019262  1
  O2-  O136  1  0.65128244  0.74902403  0.35282630  1
  O2-  O137  1  0.57428621  0.77539810  0.62314286  1
  O2-  O138  1  0.57251100  0.76749698  0.88389192  1
  O2-  O139  1  0.87334982  0.24040008  0.14358007  1
  O2-  O140  1  0.87125458  0.24343133  0.34891169  1
  O2-  O141  1  0.89994137  0.20984602  0.61685055  1
  O2-  O142  1  0.89901190  0.24824039  0.90704361  1
  O2-  O143  1  0.86674439  0.74517429  0.14565806  1
  O2-  O144  1  0.85233996  0.74543941  0.34337319  1
  O2-  O145  1  0.93544949  0.77072543  0.62782141  1
  O2-  O146  1  0.87893095  0.74915763  0.86412330  1
  O2-  O147  1  0.15364828  0.14085184  0.01524497  1
  O2-  O148  1  0.15620489  0.12615184  0.23969859  1
  O2-  O149  1  0.12374789  0.16292302  0.49611235  1
  O2-  O150  1  0.17922993  0.09914521  0.75946777  1
  O2-  O151  1  0.15450981  0.65106869  0.00570655  1
  O2-  O152  1  0.07642654  0.63763376  0.24414443  1
  O2-  O153  1  0.13522307  0.63172294  0.49019227  1
  O2-  O154  1  0.11683632  0.63718001  0.75919010  1
  O2-  O155  1  0.37592511  0.14461464  -0.00043605  1
  O2-  O156  1  0.37981496  0.15012336  0.24965676  1
  O2-  O157  1  0.39296143  0.13820117  0.49822750  1
  O2-  O158  1  0.36276476  0.14675695  0.75495051  1
  O2-  O159  1  0.35089063  0.63459906  0.00457567  1
  O2-  O160  1  0.45014230  0.64599913  0.26624616  1
  O2-  O161  1  0.36018283  0.64108305  0.49019956  1
  O2-  O162  1  0.39329753  0.65216038  0.75079362  1
  O2-  O163  1  0.62813749  0.13333576  -0.00320779  1
  O2-  O164  1  0.63314522  0.14797558  0.25255892  1
  O2-  O165  1  0.62691923  0.13249518  0.49741346  1
  O2-  O166  1  0.63630107  0.10810383  0.75926104  1
  O2-  O167  1  0.56886552  0.64014078  0.00310916  1
  O2-  O168  1  0.63360077  0.61034849  0.24754360  1
  O2-  O169  1  0.62449428  0.63587856  0.49560342  1
  O2-  O170  1  0.58311337  0.64586631  0.76116901  1
  O2-  O171  1  0.81997022  0.12746595  -0.00169218  1
  O2-  O172  1  0.82116065  0.11371388  0.25248558  1
  O2-  O173  1  0.81580847  0.12189813  0.48349632  1
  O2-  O174  1  0.87110230  0.12002651  0.77888999  1
  O2-  O175  1  0.88073795  0.63924654  -0.01348772  1
  O2-  O176  1  0.84412281  0.60917496  0.24396789  1
  O2-  O177  1  0.85766245  0.64712667  0.49666890  1
  O2-  O178  1  0.92059305  0.62736682  0.76243329  1
  O2-  O179  1  0.14807825  0.35507715  0.01636621  1
  O2-  O180  1  0.15339319  0.36971519  0.23037134  1
  O2-  O181  1  0.12567355  0.35986727  0.49337835  1
  O2-  O182  1  0.16309819  0.40316635  0.75978996  1
  O2-  O183  1  0.15288455  0.85468692  0.01169603  1
  O2-  O184  1  0.08821662  0.85210834  0.25018057  1
  O2-  O185  1  0.14344945  0.85775688  0.48372360  1
  O2-  O186  1  0.08915919  0.87057129  0.76515157  1
  O2-  O187  1  0.38621414  0.37036607  0.02723456  1
  O2-  O188  1  0.33829578  0.36540605  0.22998821  1
  O2-  O189  1  0.35590129  0.38850882  0.49677126  1
  O2-  O190  1  0.38174669  0.37879822  0.75201567  1
  O2-  O191  1  0.35392301  0.88972264  0.01239426  1
  O2-  O192  1  0.41029331  0.90435603  0.25543083  1
  O2-  O193  1  0.33774697  0.87945164  0.49234627  1
  O2-  O194  1  0.39853059  0.88009600  0.74818984  1
  O2-  O195  1  0.63610849  0.35847275  -0.00995217  1
  O2-  O196  1  0.64543502  0.35672272  0.24200169  1
  O2-  O197  1  0.64378387  0.36389365  0.50423905  1
  O2-  O198  1  0.60868330  0.37946405  0.75555641  1
  O2-  O199  1  0.64358755  0.87459837  0.01527721  1
  O2-  O200  1  0.59533802  0.89202379  0.25967374  1
  O2-  O201  1  0.65398813  0.87357876  0.49433856  1
  O2-  O202  1  0.61210605  0.87452539  0.75336929  1
  O2-  O203  1  0.81271316  0.36916168  -0.00643997  1
  O2-  O204  1  0.81973132  0.38179623  0.26035948  1
  O2-  O205  1  0.86359288  0.34366054  0.48962912  1
  O2-  O206  1  0.88480329  0.37008368  0.78136523  1
  O2-  O207  1  0.85999524  0.85843774  0.00947997  1
  O2-  O208  1  0.91033546  0.87891825  0.24441948  1
  O2-  O209  1  0.84910684  0.86044136  0.49215680  1
  O2-  O210  1  0.89519380  0.87594599  0.75739319  1
  O2-  O211  1  -0.02059706  0.11626405  0.03197208  1
  O2-  O212  1  -0.01400146  0.10753336  0.19578887  1
  O2-  O213  1  -0.00820621  0.13010717  0.37937105  1
  O2-  O214  1  0.02466789  0.14699046  0.86251892  1
  O2-  O215  1  -0.01966993  0.37612472  0.02787848  1
  O2-  O216  1  -0.01250171  0.38209500  0.20310795  1
  O2-  O217  1  0.00027030  0.35836108  0.37548236  1
  O2-  O218  1  0.02998602  0.35164005  0.86926847  1
  O2-  O219  1  0.25569326  -0.08539017  -0.14493853  1
  O2-  O220  1  0.24684057  -0.11002181  0.24200153  1
  O2-  O221  1  0.25287953  0.17143545  0.61977972  1
  O2-  O222  1  0.23545535  -0.10418722  0.65259927  1
  O2-  O223  1  0.26891418  0.39165580  -0.10117383  1
  O2-  O224  1  0.25097573  0.37611352  0.37172337  1
  O2-  O225  1  0.25645477  0.35386667  0.62943983  1
  O2-  O226  1  0.24635307  0.60757608  0.63100618  1
  O2-  O227  1  0.50013386  0.11113555  0.12645730  1
  O2-  O228  1  0.51432328  0.20004307  0.37997286  1
  O2-  O229  1  0.50516610  0.04243362  0.36406718  1
  O2-  O230  1  0.50034143  0.13511235  0.63868680  1
  O2-  O231  1  0.51599132  0.30589978  0.12276378  1
  O2-  O232  1  0.48860840  0.39152175  0.27831997  1
  O2-  O233  1  0.49645642  0.36480867  0.43097789  1
  O2-  O234  1  0.50662489  0.37651381  0.61163596  1
  O2-  O235  1  0.74647526  -0.10823603  -0.13287719  1
  O2-  O236  1  0.75263710  -0.12887804  0.24908306  1
  O2-  O237  1  0.76520285  -0.03804926  0.63928360  1
  O2-  O238  1  0.75259778  -0.19718953  0.64477478  1
  O2-  O239  1  0.72874779  0.64982128  -0.11096195  1
  O2-  O240  1  0.73501587  0.62391599  0.09729359  1
  O2-  O241  1  0.75474262  0.36670491  0.64743735  1
  O2-  O242  1  0.77496720  0.53205889  0.78537964  1
