# generated using pymatgen
data_Gd19Ta56(WO20)8
_symmetry_space_group_name_H-M   'P 1'
_cell_length_a   15.54149875
_cell_length_b   15.53620188
_cell_length_c   15.20101245
_cell_angle_alpha   89.99619836
_cell_angle_beta   89.98707780
_cell_angle_gamma   90.15925385
_symmetry_Int_Tables_number   1
_chemical_formula_structural   Gd19Ta56(WO20)8
_chemical_formula_sum   'Gd19 Ta56 W8 O160'
_cell_volume   3670.35928513
_cell_formula_units_Z   1
loop_
 _symmetry_equiv_pos_site_id
 _symmetry_equiv_pos_as_xyz
  1  'x, y, z'
loop_
 _atom_type_symbol
 _atom_type_oxidation_number
  Gd3+  3.0
  Ta5+  5.0
  W6+  6.0
  O2-  -2.0
loop_
 _atom_site_type_symbol
 _atom_site_label
 _atom_site_symmetry_multiplicity
 _atom_site_fract_x
 _atom_site_fract_y
 _atom_site_fract_z
 _atom_site_occupancy
  Gd3+  Gd0  1  0.73687307  0.25108114  0.27178052  1
  Gd3+  Gd1  1  0.00521400  0.74677092  0.00397440  1
  Gd3+  Gd2  1  0.01099260  0.75598422  0.76064027  1
  Gd3+  Gd3  1  0.76793772  0.75837669  0.25250912  1
  Gd3+  Gd4  1  0.74442328  0.76516868  0.50358671  1
  Gd3+  Gd5  1  0.23581483  0.24977429  0.50539768  1
  Gd3+  Gd6  1  0.51165399  0.75539620  0.52807391  1
  Gd3+  Gd7  1  0.01356267  0.23158963  0.47730877  1
  Gd3+  Gd8  1  0.73491885  0.24717050  -0.03591872  1
  Gd3+  Gd9  1  0.49512309  0.74457345  0.23255493  1
  Gd3+  Gd10  1  0.23421546  0.24242818  0.26539440  1
  Gd3+  Gd11  1  0.26489400  0.71976574  0.24148228  1
  Gd3+  Gd12  1  0.48089651  0.74643257  -0.01575477  1
  Gd3+  Gd13  1  0.75974000  0.23945686  0.71208251  1
  Gd3+  Gd14  1  0.26703940  0.24627661  0.00352481  1
  Gd3+  Gd15  1  0.53946904  0.25538234  0.52968594  1
  Gd3+  Gd16  1  0.00824032  0.74259187  0.52319190  1
  Gd3+  Gd17  1  0.49822847  0.27138213  -0.01335377  1
  Gd3+  Gd18  1  -0.03441366  0.26216055  -0.01163015  1
  Ta5+  Ta19  1  0.88657444  0.62566244  0.37504642  1
  Ta5+  Ta20  1  0.90065586  0.37586631  0.16941065  1
  Ta5+  Ta21  1  0.63328489  0.12320746  0.11650161  1
  Ta5+  Ta22  1  0.89542747  0.89306315  0.38167178  1
  Ta5+  Ta23  1  0.63252129  0.88326576  0.10689014  1
  Ta5+  Ta24  1  0.34616706  0.38275481  0.61451511  1
  Ta5+  Ta25  1  0.93177330  0.37932360  0.36484564  1
  Ta5+  Ta26  1  0.58306952  0.11891535  0.36547110  1
  Ta5+  Ta27  1  0.38633250  0.12939237  0.62432386  1
  Ta5+  Ta28  1  0.14781266  0.87810932  0.88591869  1
  Ta5+  Ta29  1  0.62032902  0.07979342  0.62039349  1
  Ta5+  Ta30  1  0.58752797  0.38279320  0.36121445  1
  Ta5+  Ta31  1  0.37989847  0.37976532  0.37192680  1
  Ta5+  Ta32  1  0.13797535  0.61610970  0.87548472  1
  Ta5+  Ta33  1  0.39085529  0.12258107  0.14159942  1
  Ta5+  Ta34  1  0.86460464  0.87726995  0.65070019  1
  Ta5+  Ta35  1  0.61933478  0.39090529  0.84756567  1
  Ta5+  Ta36  1  0.38082149  0.62764448  0.38643769  1
  Ta5+  Ta37  1  0.09927713  0.38818545  0.38106461  1
  Ta5+  Ta38  1  0.15986344  0.61714643  0.65419630  1
  Ta5+  Ta39  1  0.86764713  0.12921562  0.12694979  1
  Ta5+  Ta40  1  0.86989754  0.62021539  0.12638739  1
  Ta5+  Ta41  1  0.87385105  0.88204291  0.11647997  1
  Ta5+  Ta42  1  0.62742646  0.61821633  0.11536282  1
  Ta5+  Ta43  1  0.58957081  0.87803287  0.35630512  1
  Ta5+  Ta44  1  0.87172097  0.37808444  0.84752858  1
  Ta5+  Ta45  1  0.34881777  0.88223914  0.10976698  1
  Ta5+  Ta46  1  0.86534221  0.11222617  0.86271076  1
  Ta5+  Ta47  1  0.13763656  0.60892424  0.12203404  1
  Ta5+  Ta48  1  0.13951810  0.62870974  0.39737260  1
  Ta5+  Ta49  1  0.40760620  0.36837408  0.15410794  1
  Ta5+  Ta50  1  0.10790911  0.11664475  0.12412248  1
  Ta5+  Ta51  1  0.42017023  0.12927422  0.86330054  1
  Ta5+  Ta52  1  0.86735066  0.61465617  0.63269368  1
  Ta5+  Ta53  1  0.12484587  0.86401489  0.36221736  1
  Ta5+  Ta54  1  0.37934433  0.11739240  0.37983880  1
  Ta5+  Ta55  1  0.09028651  0.36973874  0.16124415  1
  Ta5+  Ta56  1  0.92773645  0.37359168  0.61325901  1
  Ta5+  Ta57  1  0.36487980  0.38256439  0.86287448  1
  Ta5+  Ta58  1  0.87194070  0.12424596  0.37171288  1
  Ta5+  Ta59  1  0.62146722  0.63076978  0.86818739  1
  Ta5+  Ta60  1  0.92680267  0.11478406  0.62406937  1
  Ta5+  Ta61  1  0.84270951  0.86893248  0.86793981  1
  Ta5+  Ta62  1  0.11184412  0.12286002  0.88224392  1
  Ta5+  Ta63  1  0.59023436  0.13206319  0.85218855  1
  Ta5+  Ta64  1  0.13982499  0.87189460  0.12466214  1
  Ta5+  Ta65  1  0.34732902  0.63136804  0.84740134  1
  Ta5+  Ta66  1  0.42002979  0.88202961  0.36399782  1
  Ta5+  Ta67  1  0.08904533  0.05803476  0.35834122  1
  Ta5+  Ta68  1  0.86024981  0.62265423  0.87544403  1
  Ta5+  Ta69  1  0.09617448  0.37969808  0.62363031  1
  Ta5+  Ta70  1  0.61266711  0.88998877  0.87174209  1
  Ta5+  Ta71  1  0.65889492  0.40718038  0.60010155  1
  Ta5+  Ta72  1  0.62850768  0.62493276  0.36549795  1
  Ta5+  Ta73  1  0.35943799  0.88651201  0.59824030  1
  Ta5+  Ta74  1  0.12371158  0.36917022  0.86258046  1
  W6+  W75  1  0.65123145  0.86838881  0.69720053  1
  W6+  W76  1  0.39383223  0.88144058  0.84848837  1
  W6+  W77  1  0.65076981  0.36997687  0.11619782  1
  W6+  W78  1  0.09098761  0.11476061  0.62798823  1
  W6+  W79  1  0.32205333  0.63198337  0.60502380  1
  W6+  W80  1  0.39245378  0.61169303  0.10775783  1
  W6+  W81  1  0.61637419  0.61446175  0.62518355  1
  W6+  W82  1  0.14128796  0.87624572  0.62695115  1
  O2-  O83  1  0.10325147  -0.00498691  0.13057292  1
  O2-  O84  1  0.18353522  -0.02860558  0.35443207  1
  O2-  O85  1  0.08303840  -0.01315336  0.62982939  1
  O2-  O86  1  0.13365516  0.00211176  0.88821967  1
  O2-  O87  1  0.12407666  0.48886775  0.12649649  1
  O2-  O88  1  0.11903880  0.51391003  0.37550080  1
  O2-  O89  1  0.12734408  0.50180489  0.64660920  1
  O2-  O90  1  0.12909803  0.49116577  0.88079688  1
  O2-  O91  1  0.36658441  0.00485394  0.12625791  1
  O2-  O92  1  0.37081284  -0.00206987  0.38466957  1
  O2-  O93  1  0.39765937  0.00993229  0.61386731  1
  O2-  O94  1  0.40407520  0.01290662  0.86589045  1
  O2-  O95  1  0.41750697  0.48353348  0.13792871  1
  O2-  O96  1  0.38422370  0.50070694  0.37847040  1
  O2-  O97  1  0.33815157  0.49879899  0.61097167  1
  O2-  O98  1  0.35024955  0.50161077  0.86383354  1
  O2-  O99  1  0.66183060  0.00774261  0.09700583  1
  O2-  O100  1  0.60605842  0.00109706  0.38084568  1
  O2-  O101  1  0.59087796  -0.03324015  0.62456743  1
  O2-  O102  1  0.61934148  0.01188051  0.87295100  1
  O2-  O103  1  0.63476002  0.50178635  0.11121550  1
  O2-  O104  1  0.60396644  0.50447060  0.36512415  1
  O2-  O105  1  0.57553822  0.49061221  0.59094454  1
  O2-  O106  1  0.63879081  0.50363543  0.88800104  1
  O2-  O107  1  0.87288653  0.00330470  0.11864712  1
  O2-  O108  1  0.83430832  -0.00547020  0.38453317  1
  O2-  O109  1  0.89115113  -0.00875877  0.62664625  1
  O2-  O110  1  0.84139644  -0.00653030  0.86942988  1
  O2-  O111  1  0.87280115  0.50176242  0.13882601  1
  O2-  O112  1  0.90617586  0.51095528  0.37383111  1
  O2-  O113  1  0.91041920  0.50475210  0.61841086  1
  O2-  O114  1  0.86252372  0.50041428  0.86340663  1
  O2-  O115  1  0.14133980  0.25334114  0.13108874  1
  O2-  O116  1  0.14236080  0.25875230  0.39197336  1
  O2-  O117  1  0.11307011  0.24498803  0.59541854  1
  O2-  O118  1  0.11182989  0.25301694  0.92641007  1
  O2-  O119  1  0.12319926  0.74576388  0.10786247  1
  O2-  O120  1  0.18142861  0.75366714  0.36174665  1
  O2-  O121  1  0.10441742  0.74101571  0.64464039  1
  O2-  O122  1  0.10034387  0.74731039  0.88526047  1
  O2-  O123  1  0.33855757  0.24282335  0.14394504  1
  O2-  O124  1  0.34038149  0.24476065  0.37613425  1
  O2-  O125  1  0.40349106  0.26252669  0.59587758  1
  O2-  O126  1  0.37516872  0.25196430  0.88747777  1
  O2-  O127  1  0.37641629  0.75267216  0.11826647  1
  O2-  O128  1  0.37575379  0.76049349  0.36453791  1
  O2-  O129  1  0.37026401  0.76190247  0.58015696  1
  O2-  O130  1  0.39867937  0.74449416  0.86039270  1
  O2-  O131  1  0.69178136  0.23712045  0.11905396  1
  O2-  O132  1  0.60445724  0.24692450  0.37254083  1
  O2-  O133  1  0.65155783  0.28162929  0.62177308  1
  O2-  O134  1  0.65331079  0.26048413  0.83092219  1
  O2-  O135  1  0.59153643  0.75472203  0.11585456  1
  O2-  O136  1  0.63416467  0.75325775  0.31701081  1
  O2-  O137  1  0.61898613  0.74998920  0.63240030  1
  O2-  O138  1  0.59256916  0.75120523  0.88155466  1
  O2-  O139  1  0.87415173  0.25963651  0.13027795  1
  O2-  O140  1  0.90832014  0.24424943  0.36158093  1
  O2-  O141  1  0.91568430  0.24357132  0.62490553  1
  O2-  O142  1  0.84279688  0.24340402  0.84524213  1
  O2-  O143  1  0.90147416  0.75184592  0.11426950  1
  O2-  O144  1  0.83841456  0.77301053  0.38136028  1
  O2-  O145  1  0.90888922  0.74917466  0.63870901  1
  O2-  O146  1  0.90603029  0.74741262  0.88153194  1
  O2-  O147  1  0.17237951  0.12259475  0.01497083  1
  O2-  O148  1  0.13659441  0.12107161  0.25134624  1
  O2-  O149  1  0.09051834  0.09709276  0.47407912  1
  O2-  O150  1  0.11732425  0.14213759  0.76434432  1
  O2-  O151  1  0.08263525  0.61707359  0.00049662  1
  O2-  O152  1  0.13935544  0.63370681  0.24760452  1
  O2-  O153  1  0.12037787  0.63402276  0.52180903  1
  O2-  O154  1  0.06920687  0.62144146  0.76784759  1
  O2-  O155  1  0.38056331  0.14408305  0.01134077  1
  O2-  O156  1  0.32210400  0.11975156  0.25520670  1
  O2-  O157  1  0.31879051  0.12981527  0.50939013  1
  O2-  O158  1  0.36131529  0.14575408  0.74291227  1
  O2-  O159  1  0.40979571  0.61969452  -0.03061375  1
  O2-  O160  1  0.38887821  0.63443720  0.25439816  1
  O2-  O161  1  0.50511844  0.65212090  0.40599730  1
  O2-  O162  1  0.38245010  0.62919591  0.72963782  1
  O2-  O163  1  0.60751359  0.15674318  -0.01575871  1
  O2-  O164  1  0.64460031  0.12767868  0.24971933  1
  O2-  O165  1  0.63973079  0.12459229  0.50443128  1
  O2-  O166  1  0.66127785  0.12255921  0.73144964  1
  O2-  O167  1  0.58569186  0.62913842  -0.00358519  1
  O2-  O168  1  0.58153206  0.62075550  0.23341552  1
  O2-  O169  1  0.65462234  0.64777789  0.48828535  1
  O2-  O170  1  0.57884484  0.61038176  0.75871371  1
  O2-  O171  1  0.84525038  0.14456846  -0.00522311  1
  O2-  O172  1  0.82528102  0.12839118  0.24409354  1
  O2-  O173  1  0.90170894  0.12257093  0.49648604  1
  O2-  O174  1  0.86007065  0.12122613  0.73646097  1
  O2-  O175  1  0.89722192  0.62050222  -0.00108574  1
  O2-  O176  1  0.89476083  0.65188161  0.24815809  1
  O2-  O177  1  0.86589566  0.64925721  0.50358061  1
  O2-  O178  1  0.89900848  0.63402414  0.75690881  1
  O2-  O179  1  0.24382465  0.35691290  -0.09637444  1
  O2-  O180  1  0.16008365  0.37245656  0.26420246  1
  O2-  O181  1  0.13442756  0.38804616  0.50330615  1
  O2-  O182  1  0.13770869  0.34493091  0.74679083  1
  O2-  O183  1  0.08267191  0.87162396  0.00220719  1
  O2-  O184  1  0.08245392  0.85486053  0.24256927  1
  O2-  O185  1  0.10015441  0.84645336  0.48574948  1
  O2-  O186  1  0.11389275  0.86826650  0.76676105  1
  O2-  O187  1  0.37690672  0.35620119  0.02315791  1
  O2-  O188  1  0.32406796  0.36814480  0.25349424  1
  O2-  O189  1  0.31545202  0.37174005  0.48610369  1
  O2-  O190  1  0.34850667  0.36413816  0.74340717  1
  O2-  O191  1  0.40492821  0.87451189  -0.00046489  1
  O2-  O192  1  0.41279368  0.87576650  0.23122941  1
  O2-  O193  1  0.44819879  0.88403748  0.49771303  1
  O2-  O194  1  0.35267068  0.87515474  0.71815628  1
  O2-  O195  1  0.62694045  0.34799999  -0.02157753  1
  O2-  O196  1  0.65544502  0.36914246  0.25674541  1
  O2-  O197  1  0.65490313  0.37695718  0.47349210  1
  O2-  O198  1  0.66349177  0.41179948  0.73337221  1
  O2-  O199  1  0.57315879  0.88412975  -0.00165169  1
  O2-  O200  1  0.59300099  0.89686476  0.22228394  1
  O2-  O201  1  0.62313211  0.83290950  0.46960073  1
  O2-  O202  1  0.52996926  0.88089191  0.78127281  1
  O2-  O203  1  0.83939581  0.35220493  -0.03115250  1
  O2-  O204  1  0.82910519  0.36960218  0.27168590  1
  O2-  O205  1  0.90752809  0.36335523  0.49038548  1
  O2-  O206  1  0.84484666  0.36941310  0.72537987  1
  O2-  O207  1  0.89680832  0.87462959  -0.00982353  1
  O2-  O208  1  0.87835415  0.87098417  0.25036299  1
  O2-  O209  1  0.90522272  0.85964420  0.50689928  1
  O2-  O210  1  0.92978828  0.88096697  0.76657020  1
  O2-  O211  1  -0.00523065  0.14432365  0.09040956  1
  O2-  O212  1  -0.02079727  0.09131557  0.31634951  1
  O2-  O213  1  0.01135824  -0.06048856  0.37443002  1
  O2-  O214  1  -0.01065486  0.12629088  0.89603033  1
  O2-  O215  1  -0.00206157  0.37460288  0.07049452  1
  O2-  O216  1  -0.00133203  0.42273703  0.24223055  1
  O2-  O217  1  0.00920461  0.66857282  0.39008509  1
  O2-  O218  1  -0.00651977  0.36234557  0.86983240  1
  O2-  O219  1  0.23863915  -0.09610852  0.05017805  1
  O2-  O220  1  0.24446832  -0.14590803  0.19958798  1
  O2-  O221  1  0.24934577  -0.09413285  0.55726301  1
  O2-  O222  1  0.26164177  -0.13663011  0.88045856  1
  O2-  O223  1  0.24472921  0.65176411  -0.07517401  1
  O2-  O224  1  0.25476609  0.61978635  0.11522847  1
  O2-  O225  1  0.26779391  0.62450631  0.43625962  1
  O2-  O226  1  0.22602624  0.61630496  0.77117249  1
  O2-  O227  1  0.51005339  0.13095227  0.12775147  1
  O2-  O228  1  0.47707506  0.11968580  0.29440197  1
  O2-  O229  1  0.48130563  0.13976721  0.45407450  1
  O2-  O230  1  0.51222652  0.14143669  0.63100027  1
  O2-  O231  1  0.51664081  0.31821890  0.12414561  1
  O2-  O232  1  0.47986813  0.37199777  0.28275537  1
  O2-  O233  1  0.48472931  0.36054137  0.44350325  1
  O2-  O234  1  0.49393658  0.37704580  0.86681788  1
  O2-  O235  1  0.73148912  -0.14280627  -0.08322386  1
  O2-  O236  1  0.75157300  -0.15195971  0.12160837  1
  O2-  O237  1  0.75331884  -0.12560019  0.59707412  1
  O2-  O238  1  0.78094626  -0.16797054  0.75368480  1
  O2-  O239  1  0.74777942  0.65217616  0.13344456  1
  O2-  O240  1  0.75458625  0.62679610  0.34197169  1
  O2-  O241  1  0.75218413  0.60825862  0.64984404  1
  O2-  O242  1  0.74435405  0.65071682  0.87168931  1
