# generated using pymatgen
data_Gd19Ta56(WO20)8
_symmetry_space_group_name_H-M   'P 1'
_cell_length_a   15.72439473
_cell_length_b   15.35072158
_cell_length_c   15.19730862
_cell_angle_alpha   90.57865834
_cell_angle_beta   89.80946365
_cell_angle_gamma   90.14582288
_symmetry_Int_Tables_number   1
_chemical_formula_structural   Gd19Ta56(WO20)8
_chemical_formula_sum   'Gd19 Ta56 W8 O160'
_cell_volume   3668.11965873
_cell_formula_units_Z   1
loop_
 _symmetry_equiv_pos_site_id
 _symmetry_equiv_pos_as_xyz
  1  'x, y, z'
loop_
 _atom_type_symbol
 _atom_type_oxidation_number
  Gd3+  3.0
  Ta5+  5.0
  W6+  6.0
  O2-  -2.0
loop_
 _atom_site_type_symbol
 _atom_site_label
 _atom_site_symmetry_multiplicity
 _atom_site_fract_x
 _atom_site_fract_y
 _atom_site_fract_z
 _atom_site_occupancy
  Gd3+  Gd0  1  0.26606787  0.74344758  0.00231994  1
  Gd3+  Gd1  1  0.53265071  0.23857121  0.27895657  1
  Gd3+  Gd2  1  0.49215222  0.73167059  0.26868628  1
  Gd3+  Gd3  1  0.22108971  0.22934668  0.73552456  1
  Gd3+  Gd4  1  0.51479454  0.74545758  0.01450800  1
  Gd3+  Gd5  1  0.26731247  0.25485337  -0.02352279  1
  Gd3+  Gd6  1  0.30177215  0.29206662  0.50572486  1
  Gd3+  Gd7  1  0.49859619  0.76343838  0.74315805  1
  Gd3+  Gd8  1  -0.00099967  0.74537371  0.51528991  1
  Gd3+  Gd9  1  -0.03737905  0.26362432  0.28175088  1
  Gd3+  Gd10  1  0.77224362  0.74735525  -0.01007787  1
  Gd3+  Gd11  1  0.19344852  0.25139865  0.26940583  1
  Gd3+  Gd12  1  0.26378831  0.76610600  0.72354804  1
  Gd3+  Gd13  1  0.26411569  0.75254154  0.49271885  1
  Gd3+  Gd14  1  0.74804442  0.75608970  0.25487035  1
  Gd3+  Gd15  1  0.00885642  0.26084793  0.01207945  1
  Gd3+  Gd16  1  0.03362019  0.75045899  -0.01816148  1
  Gd3+  Gd17  1  0.54254188  0.23831375  0.74089983  1
  Gd3+  Gd18  1  0.49865844  0.25900176  0.00639759  1
  Ta5+  Ta19  1  0.39585622  0.11203483  0.61378988  1
  Ta5+  Ta20  1  0.10313472  0.39055721  0.38405196  1
  Ta5+  Ta21  1  0.68353789  0.12712922  0.38249861  1
  Ta5+  Ta22  1  0.12529425  0.94034847  0.61474743  1
  Ta5+  Ta23  1  0.39073045  0.09505852  0.86555006  1
  Ta5+  Ta24  1  0.39707898  0.57590864  0.60956086  1
  Ta5+  Ta25  1  0.13103305  0.62139747  0.84620554  1
  Ta5+  Ta26  1  0.08508263  0.11089681  0.37707794  1
  Ta5+  Ta27  1  0.62258580  0.88261917  0.63090699  1
  Ta5+  Ta28  1  0.63703499  0.38533051  0.88848163  1
  Ta5+  Ta29  1  0.87583891  0.62174251  0.36037379  1
  Ta5+  Ta30  1  0.36877434  0.38743009  0.81451244  1
  Ta5+  Ta31  1  0.64559971  0.89615887  0.38256533  1
  Ta5+  Ta32  1  0.35521882  0.12784794  0.13131243  1
  Ta5+  Ta33  1  0.84931274  0.12000772  0.63499809  1
  Ta5+  Ta34  1  0.81665358  0.38070274  0.38773836  1
  Ta5+  Ta35  1  0.39716866  0.92443811  0.57202020  1
  Ta5+  Ta36  1  0.48187516  0.40790320  0.59469579  1
  Ta5+  Ta37  1  0.88356054  0.87884162  0.87183863  1
  Ta5+  Ta38  1  0.07917661  0.11068787  0.62028389  1
  Ta5+  Ta39  1  0.60549227  0.60834829  0.63283405  1
  Ta5+  Ta40  1  0.84627108  0.61730625  0.61718325  1
  Ta5+  Ta41  1  0.11469742  0.87340997  0.39436381  1
  Ta5+  Ta42  1  0.38126087  0.90073486  0.89188247  1
  Ta5+  Ta43  1  0.87826735  0.11778902  0.12664507  1
  Ta5+  Ta44  1  0.65775336  0.36023994  0.40258303  1
  Ta5+  Ta45  1  0.33473582  0.88038271  0.32890567  1
  Ta5+  Ta46  1  0.37570844  0.88309499  0.12959008  1
  Ta5+  Ta47  1  0.81769193  0.36519909  0.62175125  1
  Ta5+  Ta48  1  0.38544047  0.60724637  0.11845797  1
  Ta5+  Ta49  1  0.15888658  0.59834188  0.61239867  1
  Ta5+  Ta50  1  0.88205513  0.61722234  0.12847856  1
  Ta5+  Ta51  1  0.91737176  0.12768337  0.86818131  1
  Ta5+  Ta52  1  0.12169775  0.57733975  0.41652153  1
  Ta5+  Ta53  1  0.12157497  0.37347212  0.86732793  1
  Ta5+  Ta54  1  0.87741809  0.87255349  0.38334649  1
  Ta5+  Ta55  1  0.08266307  0.11462033  0.87353110  1
  Ta5+  Ta56  1  0.67942730  0.12118874  0.63392973  1
  Ta5+  Ta57  1  0.08092940  0.62227316  0.18757764  1
  Ta5+  Ta58  1  0.12900573  0.85669981  0.14707388  1
  Ta5+  Ta59  1  0.86923963  0.36801656  0.86867185  1
  Ta5+  Ta60  1  0.14430123  0.10648384  0.12107130  1
  Ta5+  Ta61  1  0.64909720  0.58238923  0.38480806  1
  Ta5+  Ta62  1  0.63486993  0.63337901  0.87315789  1
  Ta5+  Ta63  1  0.65277359  0.13542068  0.90305751  1
  Ta5+  Ta64  1  0.85385473  0.37082792  0.12661207  1
  Ta5+  Ta65  1  0.36085007  0.37603229  0.16952895  1
  Ta5+  Ta66  1  0.65233340  0.37768541  0.62853399  1
  Ta5+  Ta67  1  0.83528123  0.86365032  0.63248385  1
  Ta5+  Ta68  1  0.15302254  0.39169648  0.12125373  1
  Ta5+  Ta69  1  0.33088868  0.12615919  0.35921739  1
  Ta5+  Ta70  1  0.10354568  0.89057888  0.80797354  1
  Ta5+  Ta71  1  0.61456865  0.89443004  0.13092249  1
  Ta5+  Ta72  1  0.64977326  0.13589651  0.11401673  1
  Ta5+  Ta73  1  0.46004193  0.43939199  0.40071669  1
  Ta5+  Ta74  1  0.64203676  0.88878879  0.87944366  1
  W6+  W75  1  0.84366596  0.12557549  0.38585638  1
  W6+  W76  1  0.88260495  0.61739020  0.86301772  1
  W6+  W77  1  0.36467278  0.61433784  0.37822168  1
  W6+  W78  1  0.38038806  0.63695368  0.86214409  1
  W6+  W79  1  0.62106391  0.38697667  0.14443474  1
  W6+  W80  1  0.11266069  0.35460905  0.61198157  1
  W6+  W81  1  0.63587066  0.62505621  0.13981088  1
  W6+  W82  1  0.88257099  0.88207613  0.12835291  1
  O2-  O83  1  0.14065266  -0.01546470  0.13521348  1
  O2-  O84  1  0.07248629  -0.00941524  0.36219680  1
  O2-  O85  1  0.18392320  0.04000472  0.57801153  1
  O2-  O86  1  0.12316393  -0.00684423  0.87392546  1
  O2-  O87  1  0.12655045  0.51534389  0.14160318  1
  O2-  O88  1  0.18315231  0.47920698  0.36013997  1
  O2-  O89  1  0.12860992  0.48341576  0.63439233  1
  O2-  O90  1  0.13038607  0.49804729  0.85660336  1
  O2-  O91  1  0.38469714  0.01042606  0.12969021  1
  O2-  O92  1  0.34263516  0.00769717  0.32175107  1
  O2-  O93  1  0.33717389  0.00841233  0.64770426  1
  O2-  O94  1  0.47018033  -0.01660202  0.89609117  1
  O2-  O95  1  0.40026969  0.47806320  0.11761582  1
  O2-  O96  1  0.35266341  0.47586476  0.37539501  1
  O2-  O97  1  0.35049478  0.46061453  0.61771923  1
  O2-  O98  1  0.37554702  0.50269272  0.82949994  1
  O2-  O99  1  0.60712147  0.01779619  0.12660657  1
  O2-  O100  1  0.62520586  0.01374668  0.36095902  1
  O2-  O101  1  0.63883942  0.00438273  0.65143137  1
  O2-  O102  1  0.65783514  0.00918061  0.89895954  1
  O2-  O103  1  0.67451560  0.50617349  0.14776229  1
  O2-  O104  1  0.71466047  0.48039739  0.37912529  1
  O2-  O105  1  0.67382129  0.51257717  0.65302760  1
  O2-  O106  1  0.63637237  0.50887805  0.88130515  1
  O2-  O107  1  0.93163628  0.01281876  0.12810388  1
  O2-  O108  1  0.86609403  -0.00984962  0.37619351  1
  O2-  O109  1  0.82005606  -0.01434665  0.64221487  1
  O2-  O110  1  0.89461667  0.00096842  0.86740525  1
  O2-  O111  1  0.88195131  0.49223080  0.13062036  1
  O2-  O112  1  0.87212829  0.50258629  0.37866320  1
  O2-  O113  1  0.84447377  0.49242060  0.60704294  1
  O2-  O114  1  0.90840360  0.47981699  0.86656115  1
  O2-  O115  1  0.15037808  0.25728067  0.11290393  1
  O2-  O116  1  0.08343797  0.25138079  0.36958611  1
  O2-  O117  1  0.14640535  0.22563249  0.60637966  1
  O2-  O118  1  0.13377542  0.24220158  0.90360521  1
  O2-  O119  1  0.14750088  0.71762603  0.14707251  1
  O2-  O120  1  0.12439029  0.74927100  0.43071783  1
  O2-  O121  1  0.17520619  0.73011586  0.61045027  1
  O2-  O122  1  0.14536967  0.76829119  0.82896511  1
  O2-  O123  1  0.37148103  0.26182680  0.11023835  1
  O2-  O124  1  0.30630010  0.25442547  0.35937418  1
  O2-  O125  1  0.33142558  0.21999368  0.63531993  1
  O2-  O126  1  0.30609316  0.18303284  0.84636818  1
  O2-  O127  1  0.37788855  0.74803007  0.11156379  1
  O2-  O128  1  0.35688794  0.75627024  0.35330658  1
  O2-  O129  1  0.32760649  0.82610356  0.60451915  1
  O2-  O130  1  0.40233880  0.77192088  0.92219425  1
  O2-  O131  1  0.57548517  0.24637116  0.13305439  1
  O2-  O132  1  0.62477849  0.23699386  0.40754580  1
  O2-  O133  1  0.63868599  0.24432255  0.62552748  1
  O2-  O134  1  0.58666537  0.25568513  0.88620228  1
  O2-  O135  1  0.59547919  0.76399961  0.15378678  1
  O2-  O136  1  0.56175088  0.81430925  0.36122712  1
  O2-  O137  1  0.60982104  0.74629541  0.63926076  1
  O2-  O138  1  0.58450469  0.76401442  0.88069161  1
  O2-  O139  1  0.92600532  0.25396763  0.13594902  1
  O2-  O140  1  0.86504579  0.26452816  0.39544971  1
  O2-  O141  1  0.85305876  0.24885080  0.61344179  1
  O2-  O142  1  0.94268529  0.26643472  0.87114253  1
  O2-  O143  1  0.83515361  0.74613148  0.12458601  1
  O2-  O144  1  0.92988941  0.74167992  0.37925203  1
  O2-  O145  1  0.79830819  0.73843401  0.62166271  1
  O2-  O146  1  0.89263045  0.74863537  0.90837177  1
  O2-  O147  1  0.07843970  0.11797360  0.01720468  1
  O2-  O148  1  0.08464928  0.13945413  0.23175420  1
  O2-  O149  1  0.05056423  0.12185549  0.49177809  1
  O2-  O150  1  0.11720881  0.12837951  0.75044955  1
  O2-  O151  1  0.16009466  0.65153667  -0.03695985  1
  O2-  O152  1  0.12568340  0.62925495  0.30283602  1
  O2-  O153  1  0.06169056  0.61327075  0.53166113  1
  O2-  O154  1  0.19707903  0.62156829  0.73762015  1
  O2-  O155  1  0.39816108  0.14240849  -0.01190775  1
  O2-  O156  1  0.41122082  0.15517846  0.24697655  1
  O2-  O157  1  0.35636826  0.13751385  0.48105809  1
  O2-  O158  1  0.44146458  0.11754271  0.74871090  1
  O2-  O159  1  0.33850683  0.61130391  0.00206334  1
  O2-  O160  1  0.36117187  0.61472339  0.23796133  1
  O2-  O161  1  0.37474181  0.65843551  0.51926939  1
  O2-  O162  1  0.38712315  0.66132130  0.71331258  1
  O2-  O163  1  0.56859960  0.12795614  0.00485438  1
  O2-  O164  1  0.64927182  0.15002746  0.24556851  1
  O2-  O165  1  0.67719241  0.10983129  0.50789187  1
  O2-  O166  1  0.65553682  0.14603115  0.77347562  1
  O2-  O167  1  0.64083219  0.65732816  0.00283628  1
  O2-  O168  1  0.62370934  0.65363793  0.27930598  1
  O2-  O169  1  0.62160826  0.60465204  0.50291002  1
  O2-  O170  1  0.57678831  0.63524226  0.76288588  1
  O2-  O171  1  0.90025403  0.14761171  0.00228886  1
  O2-  O172  1  0.88163695  0.14325352  0.25310634  1
  O2-  O173  1  0.86013710  0.10707912  0.51158505  1
  O2-  O174  1  0.85628850  0.14695305  0.76427015  1
  O2-  O175  1  0.84169012  0.61401301  0.00900640  1
  O2-  O176  1  0.81250534  0.62283083  0.23895824  1
  O2-  O177  1  0.89318488  0.63546820  0.50175515  1
  O2-  O178  1  0.90000311  0.62575456  0.72487935  1
  O2-  O179  1  0.09457621  0.38763753  0.00574692  1
  O2-  O180  1  0.08728866  0.36544984  0.24288153  1
  O2-  O181  1  0.17099804  0.35507740  0.48437025  1
  O2-  O182  1  0.10028736  0.33676957  0.75160405  1
  O2-  O183  1  0.15473353  0.83297458  0.02205730  1
  O2-  O184  1  0.11346270  0.84266200  0.27065459  1
  O2-  O185  1  0.06577780  0.88915922  0.51658423  1
  O2-  O186  1  0.19837847  0.90052562  0.72099258  1
  O2-  O187  1  0.40197188  0.33183486  -0.07973611  1
  O2-  O188  1  0.43655135  0.36218305  0.26453295  1
  O2-  O189  1  0.43585490  0.33941668  0.48624949  1
  O2-  O190  1  0.44290589  0.35354166  0.72170656  1
  O2-  O191  1  0.32503039  0.88992420  0.01059393  1
  O2-  O192  1  0.27233312  0.86962400  0.20085393  1
  O2-  O193  1  0.36651952  0.90066627  0.45309494  1
  O2-  O194  1  0.38007313  0.85263040  0.77691454  1
  O2-  O195  1  0.58255754  0.38454013  0.00292549  1
  O2-  O196  1  0.62745093  0.35313113  0.27704860  1
  O2-  O197  1  0.59420825  0.40032802  0.51248635  1
  O2-  O198  1  0.62173023  0.36800075  0.76334090  1
  O2-  O199  1  0.65405337  0.86090676  0.01244890  1
  O2-  O200  1  0.67436710  0.89048308  0.24053243  1
  O2-  O201  1  0.63656237  0.89189420  0.50736400  1
  O2-  O202  1  0.59160969  0.88474566  0.76578061  1
  O2-  O203  1  0.89875437  0.36080261  0.00687402  1
  O2-  O204  1  0.85866043  0.36617350  0.25636510  1
  O2-  O205  1  0.75358858  0.36402034  0.50609213  1
  O2-  O206  1  0.83451618  0.36348389  0.75064215  1
  O2-  O207  1  0.84710739  0.88550729  -0.00296329  1
  O2-  O208  1  0.86751638  0.84934596  0.25887743  1
  O2-  O209  1  0.88773471  0.85646451  0.51524192  1
  O2-  O210  1  0.87906579  0.84985635  0.74802152  1
  O2-  O211  1  0.00705230  -0.13497994  -0.10998141  1
  O2-  O212  1  0.01420698  -0.16036895  0.11416428  1
  O2-  O213  1  -0.03064737  0.08252417  0.65246044  1
  O2-  O214  1  0.03686943  -0.08993177  0.70794536  1
  O2-  O215  1  -0.00224668  0.64616349  0.08606752  1
  O2-  O216  1  -0.03246909  0.61708545  0.24504832  1
  O2-  O217  1  0.03264575  0.48359632  0.41717810  1
  O2-  O218  1  0.01630202  0.64077297  0.86603741  1
  O2-  O219  1  0.25049399  0.12447218  0.04976386  1
  O2-  O220  1  0.25615307  0.12793009  0.20927319  1
  O2-  O221  1  0.20759823  0.11685314  0.37411765  1
  O2-  O222  1  0.30995154  0.00232682  0.86522497  1
  O2-  O223  1  0.26022507  0.38600321  0.05806646  1
  O2-  O224  1  0.25252110  0.38200211  0.22208822  1
  O2-  O225  1  0.21831388  0.59910727  0.49335618  1
  O2-  O226  1  0.24789067  0.35955550  0.84568867  1
  O2-  O227  1  0.49576670  -0.11967318  0.07813491  1
  O2-  O228  1  0.43464754  -0.13182180  0.24491595  1
  O2-  O229  1  0.47171196  0.03287968  0.55360882  1
  O2-  O230  1  0.49479150  -0.13075481  0.62148366  1
  O2-  O231  1  0.50329874  0.62899385  0.11649756  1
  O2-  O232  1  0.54585080  0.51785466  0.35095461  1
  O2-  O233  1  0.46494073  0.51214914  0.50730088  1
  O2-  O234  1  0.50467767  0.53059876  0.66283791  1
  O2-  O235  1  0.71487225  0.17953761  0.00265173  1
  O2-  O236  1  0.76398384  0.08685842  0.12724259  1
  O2-  O237  1  0.75428069  -0.16358383  0.38822949  1
  O2-  O238  1  0.75214196  -0.14739739  0.85838136  1
  O2-  O239  1  0.75131139  0.36274720  -0.08901321  1
  O2-  O240  1  0.74426252  0.33834270  0.11118368  1
  O2-  O241  1  0.75977983  0.65486972  0.38870025  1
  O2-  O242  1  0.74818887  0.65488280  0.85245290  1
