# generated using pymatgen
data_Gd19Ta56(WO20)8
_symmetry_space_group_name_H-M   'P 1'
_cell_length_a   15.58428720
_cell_length_b   15.51724375
_cell_length_c   15.35597515
_cell_angle_alpha   90.00066736
_cell_angle_beta   90.10470899
_cell_angle_gamma   89.78807253
_symmetry_Int_Tables_number   1
_chemical_formula_structural   Gd19Ta56(WO20)8
_chemical_formula_sum   'Gd19 Ta56 W8 O160'
_cell_volume   3713.42989960
_cell_formula_units_Z   1
loop_
 _symmetry_equiv_pos_site_id
 _symmetry_equiv_pos_as_xyz
  1  'x, y, z'
loop_
 _atom_type_symbol
 _atom_type_oxidation_number
  Gd3+  3.0
  Ta5+  5.0
  W6+  6.0
  O2-  -2.0
loop_
 _atom_site_type_symbol
 _atom_site_label
 _atom_site_symmetry_multiplicity
 _atom_site_fract_x
 _atom_site_fract_y
 _atom_site_fract_z
 _atom_site_occupancy
  Gd3+  Gd0  1  -0.00874884  0.25013952  0.50882063  1
  Gd3+  Gd1  1  0.52131394  0.26088037  -0.00946984  1
  Gd3+  Gd2  1  0.74184451  0.26342323  0.75147078  1
  Gd3+  Gd3  1  0.75664480  0.26171261  -0.00392886  1
  Gd3+  Gd4  1  -0.03704217  0.22736266  0.26334568  1
  Gd3+  Gd5  1  0.00970836  0.73269303  0.00527007  1
  Gd3+  Gd6  1  0.25821937  0.24642391  -0.00824139  1
  Gd3+  Gd7  1  0.47660242  0.27592723  0.24966071  1
  Gd3+  Gd8  1  0.75236373  0.24834836  0.48782233  1
  Gd3+  Gd9  1  0.51690036  0.24239055  0.49493124  1
  Gd3+  Gd10  1  0.51451093  0.75590868  -0.01652196  1
  Gd3+  Gd11  1  0.76131166  0.78085125  0.75586792  1
  Gd3+  Gd12  1  0.01960413  0.73559196  0.49370458  1
  Gd3+  Gd13  1  0.73448014  0.74543648  0.23972160  1
  Gd3+  Gd14  1  0.47161840  0.77218707  0.50341521  1
  Gd3+  Gd15  1  0.04117913  0.74213142  0.24977378  1
  Gd3+  Gd16  1  0.23791714  0.23933902  0.24066106  1
  Gd3+  Gd17  1  0.73578328  0.24131053  0.25444762  1
  Gd3+  Gd18  1  0.26932606  0.74379818  -0.02453565  1
  Ta5+  Ta19  1  0.42019826  0.62437381  0.11468907  1
  Ta5+  Ta20  1  0.39253153  0.11456497  0.11284414  1
  Ta5+  Ta21  1  0.62076768  0.64844605  0.38309067  1
  Ta5+  Ta22  1  0.38819772  0.62289641  0.62829604  1
  Ta5+  Ta23  1  0.14088853  0.62352755  0.87405257  1
  Ta5+  Ta24  1  0.84302759  0.39450707  0.36368726  1
  Ta5+  Ta25  1  0.38660713  0.63318899  0.85139425  1
  Ta5+  Ta26  1  0.89320964  0.38016530  0.11445725  1
  Ta5+  Ta27  1  0.37736391  0.37293585  0.63235040  1
  Ta5+  Ta28  1  0.10177508  0.37905538  0.63175389  1
  Ta5+  Ta29  1  0.66668006  0.63498656  0.87973222  1
  Ta5+  Ta30  1  0.64562427  0.64428933  0.62365643  1
  Ta5+  Ta31  1  0.38625553  0.39146884  0.86491724  1
  Ta5+  Ta32  1  0.61681503  0.39522953  0.61481708  1
  Ta5+  Ta33  1  0.85567922  0.11748309  0.63969269  1
  Ta5+  Ta34  1  0.63818171  0.40377260  0.37242904  1
  Ta5+  Ta35  1  0.34070684  0.07666838  0.40109547  1
  Ta5+  Ta36  1  0.63165180  0.87309536  0.61996456  1
  Ta5+  Ta37  1  0.12396857  0.87665427  0.63164836  1
  Ta5+  Ta38  1  0.38807164  0.88047481  0.85790110  1
  Ta5+  Ta39  1  0.08463130  0.87397913  0.86817041  1
  Ta5+  Ta40  1  0.61479938  0.88571705  0.86519497  1
  Ta5+  Ta41  1  0.59216940  0.39785259  0.85839736  1
  Ta5+  Ta42  1  0.59643927  0.11836363  0.13606528  1
  Ta5+  Ta43  1  0.13024630  0.37266989  0.86848281  1
  Ta5+  Ta44  1  0.64432360  0.06538776  0.37326213  1
  Ta5+  Ta45  1  0.88105923  0.62653763  0.36721178  1
  Ta5+  Ta46  1  0.16630364  0.61789827  0.12514527  1
  Ta5+  Ta47  1  0.35497419  0.88187541  0.63499322  1
  Ta5+  Ta48  1  0.88901718  0.11706165  0.09698808  1
  Ta5+  Ta49  1  0.39394564  0.11864699  0.87101758  1
  Ta5+  Ta50  1  0.38721293  0.12801188  0.62465753  1
  Ta5+  Ta51  1  0.36929254  0.86801030  0.12339146  1
  Ta5+  Ta52  1  0.13333997  0.11873921  0.84416878  1
  Ta5+  Ta53  1  0.91322933  0.12619160  0.87975387  1
  Ta5+  Ta54  1  0.62330022  0.38336661  0.13136035  1
  Ta5+  Ta55  1  0.84026739  0.63725267  0.87910463  1
  Ta5+  Ta56  1  0.39203808  0.63172668  0.36483016  1
  Ta5+  Ta57  1  0.16064583  0.56519324  0.37239140  1
  Ta5+  Ta58  1  0.09561577  0.11161751  0.07479929  1
  Ta5+  Ta59  1  0.14618594  0.62312730  0.62483782  1
  Ta5+  Ta60  1  0.15230653  0.88240228  0.37752066  1
  Ta5+  Ta61  1  0.13936164  0.87923376  0.11723180  1
  Ta5+  Ta62  1  0.88523815  0.86826306  0.36767267  1
  Ta5+  Ta63  1  0.63629897  0.12035013  0.63445533  1
  Ta5+  Ta64  1  0.63763862  0.88137815  0.11501933  1
  Ta5+  Ta65  1  0.91552036  0.87801149  0.86850853  1
  Ta5+  Ta66  1  0.09866308  0.38574094  0.11704137  1
  Ta5+  Ta67  1  0.82103572  0.03955426  0.46398519  1
  Ta5+  Ta68  1  0.59296164  0.62932852  0.12395788  1
  Ta5+  Ta69  1  0.12305243  0.11943746  0.62554067  1
  Ta5+  Ta70  1  0.86156219  0.39431125  0.61870266  1
  Ta5+  Ta71  1  0.35645886  0.40410199  0.38680755  1
  Ta5+  Ta72  1  0.88689313  0.39230972  0.86692918  1
  Ta5+  Ta73  1  0.14036691  0.07834892  0.40028513  1
  Ta5+  Ta74  1  0.87387108  0.86840844  0.11629127  1
  W6+  W75  1  0.90050323  0.87294581  0.61476747  1
  W6+  W76  1  0.64248307  0.12371029  0.87661170  1
  W6+  W77  1  0.87047076  0.64144912  0.62318915  1
  W6+  W78  1  0.86721592  0.61889498  0.12146398  1
  W6+  W79  1  0.63118560  0.86899617  0.37308364  1
  W6+  W80  1  0.32019556  0.86857036  0.37096932  1
  W6+  W81  1  0.35786149  0.38503633  0.11578617  1
  W6+  W82  1  0.12874225  0.36690292  0.37369961  1
  O2-  O83  1  0.14218843  0.00827503  0.11450624  1
  O2-  O84  1  0.06864281  -0.01422674  0.37543359  1
  O2-  O85  1  0.09711451  0.00083771  0.63708569  1
  O2-  O86  1  0.10836196  0.00116304  0.84911817  1
  O2-  O87  1  0.15836879  0.49641057  0.13123082  1
  O2-  O88  1  0.07134764  0.48826382  0.35238175  1
  O2-  O89  1  0.12261786  0.49800531  0.62190160  1
  O2-  O90  1  0.15401274  0.49005555  0.87903156  1
  O2-  O91  1  0.37454241  -0.00280352  0.12534742  1
  O2-  O92  1  0.40103665  -0.02237438  0.37814245  1
  O2-  O93  1  0.35156901  0.01083395  0.62006317  1
  O2-  O94  1  0.35550509  0.00118665  0.86779668  1
  O2-  O95  1  0.39540045  0.50843612  0.10145217  1
  O2-  O96  1  0.42024939  0.50308623  0.37968235  1
  O2-  O97  1  0.38902336  0.49572233  0.63435550  1
  O2-  O98  1  0.35980852  0.51094047  0.86035382  1
  O2-  O99  1  0.59142051  -0.00322014  0.12878210  1
  O2-  O100  1  0.56649769  -0.01659240  0.33923773  1
  O2-  O101  1  0.62880475  -0.00195935  0.62731811  1
  O2-  O102  1  0.66450039  -0.00705961  0.85938008  1
  O2-  O103  1  0.62384243  0.50300173  0.13559820  1
  O2-  O104  1  0.62230024  0.52517128  0.38537695  1
  O2-  O105  1  0.61877021  0.51476563  0.61904904  1
  O2-  O106  1  0.64554126  0.50324085  0.87007174  1
  O2-  O107  1  0.87929287  -0.00534309  0.11074319  1
  O2-  O108  1  0.88176669  -0.00692190  0.36553019  1
  O2-  O109  1  0.85080256  -0.00034854  0.58939571  1
  O2-  O110  1  0.91674419  0.00499323  0.88127916  1
  O2-  O111  1  0.84228988  0.48895096  0.12640328  1
  O2-  O112  1  0.89608806  0.50430668  0.36532668  1
  O2-  O113  1  0.85432539  0.51107792  0.61786833  1
  O2-  O114  1  0.87421533  0.50967880  0.86500324  1
  O2-  O115  1  0.16867020  0.20125077  0.11453174  1
  O2-  O116  1  0.02820498  0.27918292  0.37592098  1
  O2-  O117  1  0.07535553  0.23302795  0.63938886  1
  O2-  O118  1  0.18297177  0.25612364  0.86782650  1
  O2-  O119  1  0.12055595  0.74541114  0.11889903  1
  O2-  O120  1  0.11031079  0.76771008  0.37820525  1
  O2-  O121  1  0.12360580  0.74466665  0.60317202  1
  O2-  O122  1  0.13430452  0.75100788  0.88789589  1
  O2-  O123  1  0.34593115  0.23635167  0.13119773  1
  O2-  O124  1  0.44359748  0.31417454  0.39023555  1
  O2-  O125  1  0.35163471  0.24584737  0.60761014  1
  O2-  O126  1  0.39883611  0.25046796  0.89385968  1
  O2-  O127  1  0.42418780  0.75867180  0.11672882  1
  O2-  O128  1  0.40613286  0.75438195  0.37460949  1
  O2-  O129  1  0.39409659  0.75550629  0.63209938  1
  O2-  O130  1  0.34707599  0.75846697  0.84286652  1
  O2-  O131  1  0.60939068  0.24705319  0.16531350  1
  O2-  O132  1  0.64648764  0.27090501  0.37813465  1
  O2-  O133  1  0.63711266  0.24632755  0.59146409  1
  O2-  O134  1  0.63340068  0.27043545  0.87746505  1
  O2-  O135  1  0.60246656  0.75991510  0.11358925  1
  O2-  O136  1  0.69633181  0.74732890  0.38733776  1
  O2-  O137  1  0.69494876  0.76185338  0.61030658  1
  O2-  O138  1  0.65678789  0.76371152  0.88253624  1
  O2-  O139  1  0.87633408  0.25192532  0.08122858  1
  O2-  O140  1  0.84522555  0.26779216  0.36671103  1
  O2-  O141  1  0.85026981  0.24665747  0.62601180  1
  O2-  O142  1  0.84773595  0.24890066  0.86529802  1
  O2-  O143  1  0.93367987  0.75018054  0.13585321  1
  O2-  O144  1  0.93156120  0.74418456  0.35095811  1
  O2-  O145  1  0.94384871  0.74665410  0.62456885  1
  O2-  O146  1  0.84799752  0.76572634  0.87897256  1
  O2-  O147  1  0.16576196  0.11857297  -0.03394146  1
  O2-  O148  1  0.13865223  0.15256206  0.30564782  1
  O2-  O149  1  0.08027878  0.12814263  0.49994235  1
  O2-  O150  1  0.19072489  0.12443816  0.73265519  1
  O2-  O151  1  0.12156288  0.61868180  0.00553423  1
  O2-  O152  1  0.14097030  0.62594113  0.25807253  1
  O2-  O153  1  0.12813449  0.61023584  0.48359126  1
  O2-  O154  1  0.13225709  0.62907926  0.74632999  1
  O2-  O155  1  0.34017037  0.12298561  -0.00651062  1
  O2-  O156  1  0.33902863  0.15749346  0.31067560  1
  O2-  O157  1  0.40894906  0.13435535  0.48593006  1
  O2-  O158  1  0.37671136  0.13812137  0.74925372  1
  O2-  O159  1  0.39874208  0.65455102  -0.02138351  1
  O2-  O160  1  0.40835030  0.62642490  0.24475325  1
  O2-  O161  1  0.41318044  0.63160063  0.50535701  1
  O2-  O162  1  0.44333843  0.62884258  0.74217827  1
  O2-  O163  1  0.65334872  0.15031511  0.02516677  1
  O2-  O164  1  0.65561945  0.11439751  0.25289180  1
  O2-  O165  1  0.59221003  0.12168782  0.46656157  1
  O2-  O166  1  0.60955927  0.15817954  0.74791986  1
  O2-  O167  1  0.62223518  0.63051649  -0.00116979  1
  O2-  O168  1  0.61041176  0.65129699  0.25662187  1
  O2-  O169  1  0.58896147  0.66456202  0.50793064  1
  O2-  O170  1  0.65391790  0.64750369  0.74626129  1
  O2-  O171  1  0.82898898  0.12431703  -0.01954261  1
  O2-  O172  1  0.84046204  0.14941404  0.20730079  1
  O2-  O173  1  0.74211168  0.11664515  0.55332264  1
  O2-  O174  1  0.91169107  0.11536745  0.74899568  1
  O2-  O175  1  0.90249534  0.63549768  -0.00971166  1
  O2-  O176  1  0.82665832  0.63330261  0.25451957  1
  O2-  O177  1  0.90254713  0.64115102  0.48962974  1
  O2-  O178  1  0.84143810  0.65125962  0.75324206  1
  O2-  O179  1  0.14076549  0.35056452  0.00564766  1
  O2-  O180  1  0.15263647  0.35586689  0.23045135  1
  O2-  O181  1  0.11642143  0.34859830  0.51378795  1
  O2-  O182  1  0.14918220  0.36755322  0.74540569  1
  O2-  O183  1  0.09035468  0.87604272  0.00162227  1
  O2-  O184  1  0.11404885  0.87386309  0.24121110  1
  O2-  O185  1  0.14468782  0.88732035  0.50339066  1
  O2-  O186  1  0.07626519  0.85035343  0.74246854  1
  O2-  O187  1  0.32475905  0.37818728  -0.02314843  1
  O2-  O188  1  0.34744767  0.36153252  0.26066675  1
  O2-  O189  1  0.33622273  0.38793638  0.50966796  1
  O2-  O190  1  0.33656150  0.35964240  0.74984528  1
  O2-  O191  1  0.40111791  0.86134959  -0.01593968  1
  O2-  O192  1  0.32637105  0.85895152  0.23412626  1
  O2-  O193  1  0.35601789  0.86826206  0.51105324  1
  O2-  O194  1  0.42470400  0.89253128  0.73854445  1
  O2-  O195  1  0.63493038  0.36535829  0.00657101  1
  O2-  O196  1  0.57523845  0.38636381  0.26246148  1
  O2-  O197  1  0.58440749  0.38452470  0.49026493  1
  O2-  O198  1  0.64089741  0.36909353  0.73952090  1
  O2-  O199  1  0.59116672  0.88621575  -0.00792249  1
  O2-  O200  1  0.66101218  0.87060259  0.23821201  1
  O2-  O201  1  0.58451505  0.86340218  0.50490769  1
  O2-  O202  1  0.60883005  0.85449772  0.73986899  1
  O2-  O203  1  0.84308306  0.38230156  -0.01765802  1
  O2-  O204  1  0.89312290  0.36198845  0.24156724  1
  O2-  O205  1  0.89593970  0.36830391  0.49862121  1
  O2-  O206  1  0.83764114  0.37674173  0.75113880  1
  O2-  O207  1  0.91708687  0.85626508  -0.00051306  1
  O2-  O208  1  0.84698002  0.85438930  0.24444587  1
  O2-  O209  1  0.93818031  0.85942606  0.48110186  1
  O2-  O210  1  0.87335224  0.87809431  0.74883354  1
  O2-  O211  1  -0.01066809  0.12388951  0.00130290  1
  O2-  O212  1  0.00351342  0.12123108  0.16278233  1
  O2-  O213  1  -0.10072224  0.13392790  0.50750953  1
  O2-  O214  1  0.02652759  0.17471082  0.84848199  1
  O2-  O215  1  -0.00447090  0.44046855  0.07064253  1
  O2-  O216  1  0.01322893  0.30358054  0.15045739  1
  O2-  O217  1  -0.01663375  0.38018084  0.65162841  1
  O2-  O218  1  0.00764661  0.37093678  0.86873335  1
  O2-  O219  1  0.25341377  -0.14119614  0.06883651  1
  O2-  O220  1  0.23438876  -0.00754672  0.35102006  1
  O2-  O221  1  0.24142335  0.09427023  0.47902598  1
  O2-  O222  1  0.24088303  -0.13215944  0.66870523  1
  O2-  O223  1  0.27771043  0.65405233  0.10193247  1
  O2-  O224  1  0.27405178  0.62641674  0.37363693  1
  O2-  O225  1  0.23725265  0.46097286  0.37610444  1
  O2-  O226  1  0.26607014  0.62534773  0.62295977  1
  O2-  O227  1  0.49561859  0.12793663  0.04894609  1
  O2-  O228  1  0.48252513  0.13297072  0.20615008  1
  O2-  O229  1  0.50707525  0.13346826  0.61944738  1
  O2-  O230  1  0.50836210  0.10605900  0.88192678  1
  O2-  O231  1  0.49176485  0.39298188  -0.06063294  1
  O2-  O232  1  0.49426272  0.34619074  0.11446933  1
  O2-  O233  1  0.49540574  0.34413721  0.62143044  1
  O2-  O234  1  0.49202814  0.41320058  0.78655373  1
  O2-  O235  1  0.75598149  -0.14562755  0.08506869  1
  O2-  O236  1  0.76241749  0.12480903  0.38718821  1
  O2-  O237  1  0.71121273  -0.02372412  0.43712276  1
  O2-  O238  1  0.75187899  0.12044514  0.70906765  1
  O2-  O239  1  0.74190202  0.33959130  0.13326281  1
  O2-  O240  1  0.73991275  0.40111130  0.28999273  1
  O2-  O241  1  0.74715917  0.40302087  0.44524931  1
  O2-  O242  1  0.73875280  0.37086995  0.60527500  1
