# generated using pymatgen
data_Gd19Ta56(WO20)8
_symmetry_space_group_name_H-M   'P 1'
_cell_length_a   15.56142599
_cell_length_b   15.39554980
_cell_length_c   15.24923298
_cell_angle_alpha   90.07290161
_cell_angle_beta   89.83833124
_cell_angle_gamma   89.76258569
_symmetry_Int_Tables_number   1
_chemical_formula_structural   Gd19Ta56(WO20)8
_chemical_formula_sum   'Gd19 Ta56 W8 O160'
_cell_volume   3653.31212978
_cell_formula_units_Z   1
loop_
 _symmetry_equiv_pos_site_id
 _symmetry_equiv_pos_as_xyz
  1  'x, y, z'
loop_
 _atom_type_symbol
 _atom_type_oxidation_number
  Gd3+  3.0
  Ta5+  5.0
  W6+  6.0
  O2-  -2.0
loop_
 _atom_site_type_symbol
 _atom_site_label
 _atom_site_symmetry_multiplicity
 _atom_site_fract_x
 _atom_site_fract_y
 _atom_site_fract_z
 _atom_site_occupancy
  Gd3+  Gd0  1  0.79240573  0.71670626  0.24956370  1
  Gd3+  Gd1  1  0.74053943  0.79374841  0.72328623  1
  Gd3+  Gd2  1  0.49621127  0.26340074  0.00055438  1
  Gd3+  Gd3  1  0.00115923  0.76389464  -0.01911922  1
  Gd3+  Gd4  1  0.02392561  0.26401825  0.74151266  1
  Gd3+  Gd5  1  0.45663748  0.23852073  0.77582830  1
  Gd3+  Gd6  1  0.51421044  0.75569160  0.74837980  1
  Gd3+  Gd7  1  0.48336131  0.75305522  0.28247445  1
  Gd3+  Gd8  1  0.23271124  0.75640157  0.02250790  1
  Gd3+  Gd9  1  -0.00757476  0.24618832  0.28507988  1
  Gd3+  Gd10  1  0.76787992  0.24895897  0.24973109  1
  Gd3+  Gd11  1  0.01761093  0.76207008  0.73463118  1
  Gd3+  Gd12  1  0.75012784  0.24925634  0.00354266  1
  Gd3+  Gd13  1  0.01978032  0.76996673  0.26603002  1
  Gd3+  Gd14  1  0.21453978  0.75465478  0.51685157  1
  Gd3+  Gd15  1  0.24994315  0.26026571  0.52309099  1
  Gd3+  Gd16  1  0.52531008  0.75009138  0.51986448  1
  Gd3+  Gd17  1  0.46880716  0.20209503  0.50135296  1
  Gd3+  Gd18  1  0.26247373  0.25563469  -0.00207365  1
  Ta5+  Ta19  1  0.86844838  0.62073517  0.63660465  1
  Ta5+  Ta20  1  0.11041105  0.13746676  0.11880551  1
  Ta5+  Ta21  1  0.85256673  0.43729223  0.39697460  1
  Ta5+  Ta22  1  0.38362030  0.38125899  0.62686728  1
  Ta5+  Ta23  1  0.37839069  0.62585840  0.63285793  1
  Ta5+  Ta24  1  0.36246262  0.62170620  0.88246968  1
  Ta5+  Ta25  1  0.14775997  0.12939395  0.63090407  1
  Ta5+  Ta26  1  0.83334374  0.38937711  0.85209536  1
  Ta5+  Ta27  1  0.63207907  0.59828313  0.63891816  1
  Ta5+  Ta28  1  0.34989147  0.34516709  0.36864906  1
  Ta5+  Ta29  1  0.36724094  0.89131475  0.63859855  1
  Ta5+  Ta30  1  0.87381871  0.88855142  0.86309898  1
  Ta5+  Ta31  1  0.15477895  0.62307020  0.36786743  1
  Ta5+  Ta32  1  0.61600353  0.86342642  0.11532509  1
  Ta5+  Ta33  1  0.37337877  0.38435399  0.12477880  1
  Ta5+  Ta34  1  0.61838770  0.10045309  0.33511972  1
  Ta5+  Ta35  1  0.59451219  0.35436585  0.61701918  1
  Ta5+  Ta36  1  0.11753724  0.90509597  0.12612473  1
  Ta5+  Ta37  1  0.61663802  0.10973416  0.12689454  1
  Ta5+  Ta38  1  0.37050706  0.85653211  0.88498432  1
  Ta5+  Ta39  1  0.60856212  0.38075526  0.16964033  1
  Ta5+  Ta40  1  0.92073021  0.36897532  0.08522469  1
  Ta5+  Ta41  1  0.88740080  0.11597509  0.41770408  1
  Ta5+  Ta42  1  0.90098242  0.88363449  0.59641730  1
  Ta5+  Ta43  1  0.14266973  0.13974034  0.37711857  1
  Ta5+  Ta44  1  0.64910666  0.62167751  0.88749121  1
  Ta5+  Ta45  1  0.63349743  0.59636950  0.38362550  1
  Ta5+  Ta46  1  0.17012346  0.39244264  0.86750746  1
  Ta5+  Ta47  1  0.86727526  0.37169946  0.62986508  1
  Ta5+  Ta48  1  0.36485787  0.91263036  0.39682425  1
  Ta5+  Ta49  1  0.13615185  0.88129762  0.86146941  1
  Ta5+  Ta50  1  0.11673777  0.37881589  0.11380211  1
  Ta5+  Ta51  1  0.92051310  0.61423436  0.11785960  1
  Ta5+  Ta52  1  0.65346386  0.13829999  0.70427672  1
  Ta5+  Ta53  1  0.30984155  0.07681573  0.63708972  1
  Ta5+  Ta54  1  0.13211947  0.59490775  0.61864724  1
  Ta5+  Ta55  1  0.84092079  0.13530608  0.84455114  1
  Ta5+  Ta56  1  0.13596565  0.39476199  0.61634153  1
  Ta5+  Ta57  1  0.16322067  0.13185938  0.86666345  1
  Ta5+  Ta58  1  0.14199065  0.60074138  0.87190675  1
  Ta5+  Ta59  1  0.38321857  0.59471300  0.38898403  1
  Ta5+  Ta60  1  0.61041356  0.35093515  0.37046373  1
  Ta5+  Ta61  1  0.08901893  0.62435396  0.12521378  1
  Ta5+  Ta62  1  0.37864531  0.11262587  0.12762310  1
  Ta5+  Ta63  1  0.59658802  0.39915004  0.86327984  1
  Ta5+  Ta64  1  0.18438458  0.37873675  0.35420864  1
  Ta5+  Ta65  1  0.32659325  0.09735262  0.87770141  1
  Ta5+  Ta66  1  0.33852383  0.41990455  0.86726372  1
  Ta5+  Ta67  1  0.60253381  0.08093820  0.87902179  1
  Ta5+  Ta68  1  0.86636011  0.87201432  0.38012009  1
  Ta5+  Ta69  1  0.14313336  0.93595152  0.63353658  1
  Ta5+  Ta70  1  0.87507142  0.62775363  0.85547556  1
  Ta5+  Ta71  1  0.66927732  0.87334266  0.42483324  1
  Ta5+  Ta72  1  0.31187972  0.10898625  0.37389969  1
  Ta5+  Ta73  1  0.66319343  0.62053291  0.12375927  1
  Ta5+  Ta74  1  0.36867378  0.87192917  0.14412623  1
  W6+  W75  1  0.87866001  0.88129578  0.12620786  1
  W6+  W76  1  0.35425133  0.62947628  0.13869143  1
  W6+  W77  1  0.13071736  0.90503216  0.38574390  1
  W6+  W78  1  0.61546982  0.88292566  0.88258160  1
  W6+  W79  1  0.91729401  0.60927718  0.38703397  1
  W6+  W80  1  0.87601606  0.14027715  0.61348631  1
  W6+  W81  1  0.56104442  0.96816194  0.64812365  1
  W6+  W82  1  0.92402680  0.06079784  0.05162604  1
  O2-  O83  1  0.16037529  0.02098642  0.11912231  1
  O2-  O84  1  0.09218717  0.02858018  0.38694236  1
  O2-  O85  1  0.06825489  0.02914396  0.65052255  1
  O2-  O86  1  0.15756446  -0.00194244  0.86190589  1
  O2-  O87  1  0.09686167  0.50198535  0.11720012  1
  O2-  O88  1  0.18753012  0.50710615  0.34889476  1
  O2-  O89  1  0.05986013  0.49371034  0.61140535  1
  O2-  O90  1  0.08617934  0.49684780  0.89330788  1
  O2-  O91  1  0.40576042  -0.01139809  0.13005634  1
  O2-  O92  1  0.25813746  -0.02324652  0.37817286  1
  O2-  O93  1  0.42687247  -0.00504925  0.60354512  1
  O2-  O94  1  0.34560646  -0.02348212  0.88120647  1
  O2-  O95  1  0.33861798  0.49851051  0.13165904  1
  O2-  O96  1  0.37321060  0.47698410  0.38618793  1
  O2-  O97  1  0.39063138  0.50187625  0.61901479  1
  O2-  O98  1  0.42557605  0.52127505  0.89128793  1
  O2-  O99  1  0.63127635  -0.01047004  0.11503366  1
  O2-  O100  1  0.64789507  -0.02018202  0.35978984  1
  O2-  O101  1  0.67170948  0.04486417  0.62869085  1
  O2-  O102  1  0.54207511  -0.00837316  0.92881065  1
  O2-  O103  1  0.63820841  0.49576410  0.12717898  1
  O2-  O104  1  0.62211406  0.47818148  0.39008437  1
  O2-  O105  1  0.62416140  0.47500093  0.60382327  1
  O2-  O106  1  0.59159204  0.51069288  0.91213693  1
  O2-  O107  1  0.82735499  0.00188091  0.10160304  1
  O2-  O108  1  0.86685890  -0.00310557  0.39359422  1
  O2-  O109  1  0.87222503  0.00030540  0.59197729  1
  O2-  O110  1  0.87295479  0.01082512  0.87005304  1
  O2-  O111  1  0.90287988  0.48672864  0.10247314  1
  O2-  O112  1  0.78287530  0.54117250  0.38596002  1
  O2-  O113  1  0.86478048  0.49332489  0.65488737  1
  O2-  O114  1  0.88443575  0.50285602  0.85508221  1
  O2-  O115  1  0.16403269  0.24908131  0.11021185  1
  O2-  O116  1  0.11915455  0.27058322  0.35526637  1
  O2-  O117  1  0.12933431  0.26521288  0.63201767  1
  O2-  O118  1  0.16411277  0.26726814  0.86966174  1
  O2-  O119  1  0.09115373  0.76632695  0.12608026  1
  O2-  O120  1  0.13238799  0.76039618  0.38201955  1
  O2-  O121  1  0.09940754  0.71391965  0.61735004  1
  O2-  O122  1  0.09642730  0.72716548  0.86252170  1
  O2-  O123  1  0.37231189  0.24665575  0.10118735  1
  O2-  O124  1  0.38523221  0.21837591  0.37562014  1
  O2-  O125  1  0.47725707  0.28462470  0.63173417  1
  O2-  O126  1  0.39457656  0.20350950  0.90947881  1
  O2-  O127  1  0.40993626  0.75367712  0.14729296  1
  O2-  O128  1  0.44825833  0.81291409  0.40962875  1
  O2-  O129  1  0.40511042  0.76054236  0.62706851  1
  O2-  O130  1  0.42848930  0.73427411  0.87307242  1
  O2-  O131  1  0.63853942  0.26186004  0.13202032  1
  O2-  O132  1  0.64934088  0.23172971  0.34185569  1
  O2-  O133  1  0.64925134  0.23952992  0.63404680  1
  O2-  O134  1  0.48037062  0.35331712  0.87993266  1
  O2-  O135  1  0.67621331  0.75795451  0.14884343  1
  O2-  O136  1  0.61826348  0.76233504  0.39211635  1
  O2-  O137  1  0.62698979  0.73060583  0.64573191  1
  O2-  O138  1  0.62769782  0.73739433  0.84574912  1
  O2-  O139  1  0.83369038  0.28616623  0.12442555  1
  O2-  O140  1  0.99459655  0.17042336  0.41868240  1
  O2-  O141  1  0.93879470  0.27256534  0.61128279  1
  O2-  O142  1  0.79767118  0.25657544  0.85347729  1
  O2-  O143  1  0.90708614  0.74690350  0.14329787  1
  O2-  O144  1  0.89133425  0.74358990  0.36044599  1
  O2-  O145  1  0.86465635  0.75778594  0.62635715  1
  O2-  O146  1  0.91275585  0.75235269  0.85554454  1
  O2-  O147  1  0.12699071  0.13453844  -0.01252018  1
  O2-  O148  1  0.10309907  0.14410987  0.24602931  1
  O2-  O149  1  0.14436879  0.16278251  0.50165482  1
  O2-  O150  1  0.10715556  0.14489026  0.75602251  1
  O2-  O151  1  0.13666282  0.64195387  0.00203330  1
  O2-  O152  1  0.09322874  0.63523357  0.25805991  1
  O2-  O153  1  0.11638910  0.60727302  0.48388234  1
  O2-  O154  1  0.14524854  0.59597751  0.74539880  1
  O2-  O155  1  0.31262558  0.10209876  0.02297389  1
  O2-  O156  1  0.33043535  0.11330147  0.23991849  1
  O2-  O157  1  0.34021340  0.12603201  0.51231049  1
  O2-  O158  1  0.36082102  0.11640216  0.75046373  1
  O2-  O159  1  0.33259692  0.65017010  0.00195713  1
  O2-  O160  1  0.37751025  0.64524162  0.27541396  1
  O2-  O161  1  0.41822198  0.63938226  0.50168710  1
  O2-  O162  1  0.34803483  0.63201889  0.75436905  1
  O2-  O163  1  0.64957077  0.13282112  0.00104457  1
  O2-  O164  1  0.70145411  0.11804410  0.22085713  1
  O2-  O165  1  0.56564378  0.11974557  0.44154037  1
  O2-  O166  1  0.59454597  0.20309710  0.81761140  1
  O2-  O167  1  0.61537019  0.64577026  0.01300898  1
  O2-  O168  1  0.66984073  0.62645017  0.26231722  1
  O2-  O169  1  0.61251672  0.62636517  0.50410939  1
  O2-  O170  1  0.63802588  0.58175405  0.76398309  1
  O2-  O171  1  0.85960712  0.15406364  -0.02905516  1
  O2-  O172  1  0.86931749  0.15903040  0.30127830  1
  O2-  O173  1  0.80755085  0.16022021  0.49248269  1
  O2-  O174  1  0.92186837  0.15194989  0.75583991  1
  O2-  O175  1  0.92146147  0.63753739  -0.01789010  1
  O2-  O176  1  0.90004126  0.60839916  0.24630185  1
  O2-  O177  1  0.91713168  0.61515284  0.52722286  1
  O2-  O178  1  0.79486789  0.66215558  0.76320108  1
  O2-  O179  1  0.18496953  0.38887262  0.00565861  1
  O2-  O180  1  0.17613864  0.38052907  0.22115691  1
  O2-  O181  1  0.15719262  0.38223846  0.48748277  1
  O2-  O182  1  0.11971614  0.39136249  0.74871573  1
  O2-  O183  1  0.12621708  0.86444386  -0.00568754  1
  O2-  O184  1  0.10652370  0.89219247  0.24897682  1
  O2-  O185  1  0.14094343  0.87974687  0.52136167  1
  O2-  O186  1  0.14701397  0.85374964  0.73760985  1
  O2-  O187  1  0.35562389  0.37676035  -0.00709036  1
  O2-  O188  1  0.36286485  0.35271626  0.24276578  1
  O2-  O189  1  0.38380074  0.33877488  0.50184661  1
  O2-  O190  1  0.37000331  0.36664170  0.75649211  1
  O2-  O191  1  0.36986241  0.85091781  0.01063649  1
  O2-  O192  1  0.36527166  0.87034847  0.27355114  1
  O2-  O193  1  0.32239974  0.86960525  0.51364414  1
  O2-  O194  1  0.41660312  0.87004083  0.76156127  1
  O2-  O195  1  0.63138288  0.32617262  -0.04224118  1
  O2-  O196  1  0.69740051  0.38173118  0.26141113  1
  O2-  O197  1  0.57771898  0.32633133  0.48773874  1
  O2-  O198  1  0.57702045  0.37210365  0.74195307  1
  O2-  O199  1  0.57333487  0.83606710  0.01010584  1
  O2-  O200  1  0.52739700  0.86558220  0.19698919  1
  O2-  O201  1  0.59300634  0.88756578  0.52368477  1
  O2-  O202  1  0.61868877  0.88493605  0.74010235  1
  O2-  O203  1  0.84184092  0.36939464  -0.02423032  1
  O2-  O204  1  0.86594440  0.33952517  0.32210630  1
  O2-  O205  1  0.83107479  0.38739737  0.50730352  1
  O2-  O206  1  0.90751625  0.35444426  0.75825374  1
  O2-  O207  1  0.89137861  0.86146566  -0.01217406  1
  O2-  O208  1  0.91744966  0.88243049  0.26473929  1
  O2-  O209  1  0.94416379  0.85963221  0.47934337  1
  O2-  O210  1  0.86653629  0.88117899  0.73388179  1
  O2-  O211  1  0.00234657  -0.05293229  0.10401210  1
  O2-  O212  1  -0.00882633  0.15764027  0.11376909  1
  O2-  O213  1  0.01239452  -0.12215953  0.64066134  1
  O2-  O214  1  0.01206592  -0.11727770  0.85362123  1
  O2-  O215  1  0.01900707  0.34409317  0.02000750  1
  O2-  O216  1  0.00297275  0.35104699  0.18343515  1
  O2-  O217  1  -0.03766496  0.47728248  0.39615282  1
  O2-  O218  1  -0.04844710  0.62741101  0.73929183  1
  O2-  O219  1  0.25228988  -0.18248216  -0.11916336  1
  O2-  O220  1  0.24736984  -0.13496864  0.13127668  1
  O2-  O221  1  0.21188793  0.02411212  0.56605644  1
  O2-  O222  1  0.27077138  -0.04973695  0.69182727  1
  O2-  O223  1  0.25495330  0.53652167  -0.11075917  1
  O2-  O224  1  0.27294190  0.65581053  0.41061571  1
  O2-  O225  1  0.25621493  0.62733538  0.59722340  1
  O2-  O226  1  0.25991793  0.38631480  0.62672761  1
  O2-  O227  1  0.49828053  0.13667658  0.08642594  1
  O2-  O228  1  0.53952534  0.09963097  0.24257523  1
  O2-  O229  1  0.42144925  0.01624564  0.39245698  1
  O2-  O230  1  0.55285585  0.06167404  0.75297040  1
  O2-  O231  1  0.49918410  0.37868898  0.09816086  1
  O2-  O232  1  0.53532420  0.37249440  0.26837384  1
  O2-  O233  1  0.51464997  0.61665707  0.35715829  1
  O2-  O234  1  0.50438674  0.62580568  0.65984155  1
  O2-  O235  1  0.75521231  -0.14224294  -0.13680910  1
  O2-  O236  1  0.75375070  -0.15609558  0.32193103  1
  O2-  O237  1  0.77438600  -0.13237039  0.48808985  1
  O2-  O238  1  0.72465424  0.09284220  0.81799351  1
  O2-  O239  1  0.76307948  0.61032314  -0.08120236  1
  O2-  O240  1  0.78017728  0.61996426  0.11365505  1
  O2-  O241  1  0.74907742  0.61224848  0.60528065  1
  O2-  O242  1  0.72037968  0.41815203  0.82647346  1
