# generated using pymatgen
data_Gd19Ta56(WO20)8
_symmetry_space_group_name_H-M   'P 1'
_cell_length_a   15.50771923
_cell_length_b   15.38983162
_cell_length_c   15.37982810
_cell_angle_alpha   90.01657466
_cell_angle_beta   89.81496955
_cell_angle_gamma   90.06821453
_symmetry_Int_Tables_number   1
_chemical_formula_structural   Gd19Ta56(WO20)8
_chemical_formula_sum   'Gd19 Ta56 W8 O160'
_cell_volume   3670.54615124
_cell_formula_units_Z   1
loop_
 _symmetry_equiv_pos_site_id
 _symmetry_equiv_pos_as_xyz
  1  'x, y, z'
loop_
 _atom_type_symbol
 _atom_type_oxidation_number
  Gd3+  3.0
  Ta5+  5.0
  W6+  6.0
  O2-  -2.0
loop_
 _atom_site_type_symbol
 _atom_site_label
 _atom_site_symmetry_multiplicity
 _atom_site_fract_x
 _atom_site_fract_y
 _atom_site_fract_z
 _atom_site_occupancy
  Gd3+  Gd0  1  0.26604312  0.25017166  0.48900644  1
  Gd3+  Gd1  1  0.72999400  0.74924129  0.22684324  1
  Gd3+  Gd2  1  -0.01326029  0.74997960  0.23314188  1
  Gd3+  Gd3  1  0.02818560  0.24167618  0.50993057  1
  Gd3+  Gd4  1  0.24136729  0.78240654  0.51941717  1
  Gd3+  Gd5  1  0.50103387  0.75814428  0.77124436  1
  Gd3+  Gd6  1  0.51756094  0.26342675  0.48535466  1
  Gd3+  Gd7  1  0.76198471  0.24593640  0.75710981  1
  Gd3+  Gd8  1  0.25165932  0.75990456  -0.00597727  1
  Gd3+  Gd9  1  0.74602146  0.24151254  0.23289348  1
  Gd3+  Gd10  1  0.74696552  0.73498261  0.74795686  1
  Gd3+  Gd11  1  0.00739607  0.25480076  0.74179694  1
  Gd3+  Gd12  1  0.49021615  0.74301591  0.22343512  1
  Gd3+  Gd13  1  0.00393137  0.76402724  0.49966125  1
  Gd3+  Gd14  1  0.26376390  0.25976500  0.75320398  1
  Gd3+  Gd15  1  0.75345473  0.23582916  0.52004515  1
  Gd3+  Gd16  1  0.48734649  0.26594463  0.25071311  1
  Gd3+  Gd17  1  0.02876868  0.74424237  -0.01392174  1
  Gd3+  Gd18  1  0.23218863  0.75311255  0.75892369  1
  Ta5+  Ta19  1  0.15934873  0.16098242  0.90216123  1
  Ta5+  Ta20  1  0.62855523  0.87693297  0.37412384  1
  Ta5+  Ta21  1  0.12240471  0.37778222  0.36547976  1
  Ta5+  Ta22  1  0.86307145  0.36068386  0.90244294  1
  Ta5+  Ta23  1  0.89170844  0.36009039  0.12366952  1
  Ta5+  Ta24  1  0.11319245  0.58782992  0.85907273  1
  Ta5+  Ta25  1  0.86035022  0.60974309  0.12712742  1
  Ta5+  Ta26  1  0.37572363  0.61589913  0.87368734  1
  Ta5+  Ta27  1  0.87276769  0.61597210  0.38785404  1
  Ta5+  Ta28  1  0.10956581  0.89402699  0.11378492  1
  Ta5+  Ta29  1  0.37842446  0.09861116  0.62186733  1
  Ta5+  Ta30  1  0.61463913  0.61572809  0.87764457  1
  Ta5+  Ta31  1  0.58053772  0.13256954  0.87646443  1
  Ta5+  Ta32  1  0.59110978  0.12735390  0.10918211  1
  Ta5+  Ta33  1  0.93156760  0.43966794  0.55047753  1
  Ta5+  Ta34  1  0.13035772  0.13044085  0.35370273  1
  Ta5+  Ta35  1  0.63375507  0.38494934  0.36203062  1
  Ta5+  Ta36  1  0.12751587  0.62715810  0.36551688  1
  Ta5+  Ta37  1  0.34483031  0.61403397  0.12206217  1
  Ta5+  Ta38  1  0.60965113  0.36398474  0.86600574  1
  Ta5+  Ta39  1  0.35589301  0.89694715  0.12291812  1
  Ta5+  Ta40  1  0.87040758  0.61228057  0.88061356  1
  Ta5+  Ta41  1  0.13385812  0.39580564  0.88974267  1
  Ta5+  Ta42  1  0.41334153  0.14643876  0.87075630  1
  Ta5+  Ta43  1  0.62830687  0.62534556  0.38171276  1
  Ta5+  Ta44  1  0.12364586  0.93161783  0.86766731  1
  Ta5+  Ta45  1  0.85864350  0.88977074  0.62897092  1
  Ta5+  Ta46  1  0.56064458  0.62961862  0.61497762  1
  Ta5+  Ta47  1  0.10668439  0.60153337  0.11739544  1
  Ta5+  Ta48  1  0.58397516  0.41959922  0.68661701  1
  Ta5+  Ta49  1  0.40248449  0.41586570  0.62411062  1
  Ta5+  Ta50  1  0.62009906  0.11984931  0.35572721  1
  Ta5+  Ta51  1  0.05136678  0.13857618  0.11452548  1
  Ta5+  Ta52  1  0.62679813  0.87126191  0.61534669  1
  Ta5+  Ta53  1  0.05652203  0.36177493  0.12338427  1
  Ta5+  Ta54  1  0.87383782  0.35948597  0.37635924  1
  Ta5+  Ta55  1  0.42237885  0.13927540  0.10064875  1
  Ta5+  Ta56  1  0.88983404  0.09582408  0.63385665  1
  Ta5+  Ta57  1  0.92787094  0.62033109  0.64444856  1
  Ta5+  Ta58  1  0.38681053  0.90213172  0.62179445  1
  Ta5+  Ta59  1  0.88173207  0.12271899  0.89993174  1
  Ta5+  Ta60  1  0.36891532  0.63976857  0.37486296  1
  Ta5+  Ta61  1  0.37484804  0.39544061  0.36456725  1
  Ta5+  Ta62  1  0.39398632  0.64820614  0.61669510  1
  Ta5+  Ta63  1  0.36892104  0.11970397  0.35631986  1
  Ta5+  Ta64  1  0.88679841  0.13541181  0.11638096  1
  Ta5+  Ta65  1  0.37390683  0.89807082  0.87115507  1
  Ta5+  Ta66  1  0.61840046  0.88518808  0.88185434  1
  Ta5+  Ta67  1  0.62421310  0.37488549  0.10807649  1
  Ta5+  Ta68  1  0.59249145  0.10452042  0.62841881  1
  Ta5+  Ta69  1  0.45560989  0.39205092  0.08403549  1
  Ta5+  Ta70  1  0.87313314  0.87208457  0.88046666  1
  Ta5+  Ta71  1  0.13987046  0.87904466  0.35708386  1
  Ta5+  Ta72  1  0.44317530  0.38095012  0.83432965  1
  Ta5+  Ta73  1  0.85918215  0.88506675  0.12098463  1
  Ta5+  Ta74  1  0.87526130  0.88853518  0.37412926  1
  W6+  W75  1  0.13332128  0.61270204  0.62622233  1
  W6+  W76  1  0.87575691  0.11907955  0.37168047  1
  W6+  W77  1  0.14483861  0.12494717  0.63343971  1
  W6+  W78  1  0.60959287  0.60175278  0.12292689  1
  W6+  W79  1  0.60913505  0.88064125  0.11705035  1
  W6+  W80  1  0.13351126  0.39262642  0.62755081  1
  W6+  W81  1  0.07780341  0.90433787  0.67601578  1
  W6+  W82  1  0.38994528  0.87681729  0.36859203  1
  O2-  O83  1  0.08343975  0.00993674  0.10268799  1
  O2-  O84  1  0.14264133  0.00218160  0.35771149  1
  O2-  O85  1  0.13750694  -0.00330091  0.61950849  1
  O2-  O86  1  0.17667226  0.03739525  0.90993032  1
  O2-  O87  1  0.06581038  0.48908108  0.13561637  1
  O2-  O88  1  0.10927920  0.50421029  0.37282823  1
  O2-  O89  1  0.19387261  0.49981237  0.60307471  1
  O2-  O90  1  0.20349570  0.49686159  0.88797145  1
  O2-  O91  1  0.38461332  0.01222345  0.11352145  1
  O2-  O92  1  0.34886542  0.00325451  0.34343824  1
  O2-  O93  1  0.30725195  -0.00696107  0.63849131  1
  O2-  O94  1  0.39794585  0.01417422  0.88230912  1
  O2-  O95  1  0.38975396  0.50464031  0.10155880  1
  O2-  O96  1  0.38774116  0.51826435  0.39032808  1
  O2-  O97  1  0.37038480  0.52855146  0.59386021  1
  O2-  O98  1  0.39043903  0.49867519  0.86645045  1
  O2-  O99  1  0.57897539  0.00583447  0.10352967  1
  O2-  O100  1  0.61508698  -0.00046805  0.38089042  1
  O2-  O101  1  0.64073701  -0.00620097  0.59731624  1
  O2-  O102  1  0.61386741  0.00525624  0.88509387  1
  O2-  O103  1  0.55300916  0.48166882  0.12542703  1
  O2-  O104  1  0.65278424  0.50296630  0.38931476  1
  O2-  O105  1  0.60798407  0.50947118  0.60568236  1
  O2-  O106  1  0.61554103  0.49511576  0.86860341  1
  O2-  O107  1  0.87347429  0.00467418  0.10905205  1
  O2-  O108  1  0.93457210  -0.00814138  0.37774530  1
  O2-  O109  1  0.95876465  -0.03677163  0.63964697  1
  O2-  O110  1  0.86336764  -0.00571431  0.88758942  1
  O2-  O111  1  0.87506989  0.48906984  0.12780700  1
  O2-  O112  1  0.87586843  0.49397578  0.39237725  1
  O2-  O113  1  1.01834893  0.52623639  0.57857222  1
  O2-  O114  1  0.85267466  0.48982164  0.88492221  1
  O2-  O115  1  -0.01325612  0.25173041  0.13717270  1
  O2-  O116  1  0.08242438  0.24964550  0.36988956  1
  O2-  O117  1  0.12397666  0.25823824  0.63178995  1
  O2-  O118  1  0.20610417  0.28122175  0.89053992  1
  O2-  O119  1  0.13405467  0.74290896  0.09573439  1
  O2-  O120  1  0.07967080  0.75250841  0.35770819  1
  O2-  O121  1  0.14904220  0.75626537  0.63008698  1
  O2-  O122  1  0.15062061  0.71058426  0.89315061  1
  O2-  O123  1  0.42954501  0.27276672  0.11342644  1
  O2-  O124  1  0.39047607  0.26348528  0.37749842  1
  O2-  O125  1  0.27621709  0.17989115  0.62244734  1
  O2-  O126  1  0.38605819  0.26912910  0.84031266  1
  O2-  O127  1  0.35386870  0.74524444  0.11212892  1
  O2-  O128  1  0.44006853  0.74248027  0.36268556  1
  O2-  O129  1  0.33773210  0.77500592  0.63851219  1
  O2-  O130  1  0.34249070  0.75378749  0.86758622  1
  O2-  O131  1  0.61823608  0.25378370  0.14797812  1
  O2-  O132  1  0.61557249  0.25204202  0.33237906  1
  O2-  O133  1  0.67373764  0.19470681  0.64367288  1
  O2-  O134  1  0.63700057  0.23764185  0.83801109  1
  O2-  O135  1  0.61742839  0.74325157  0.13904614  1
  O2-  O136  1  0.65339681  0.74893265  0.35775645  1
  O2-  O137  1  0.55575323  0.76483094  0.62969184  1
  O2-  O138  1  0.64296504  0.75078635  0.85331834  1
  O2-  O139  1  0.82247151  0.24830621  0.10133045  1
  O2-  O140  1  0.81408051  0.24618243  0.37845606  1
  O2-  O141  1  0.84403790  0.21295797  0.63794497  1
  O2-  O142  1  0.82154701  0.23416899  0.90893831  1
  O2-  O143  1  0.85415749  0.74670842  0.14818202  1
  O2-  O144  1  0.90895941  0.75995692  0.37541062  1
  O2-  O145  1  0.91478325  0.74613021  0.63004759  1
  O2-  O146  1  0.83309376  0.73910786  0.86965982  1
  O2-  O147  1  0.10862530  0.17826605  0.01078599  1
  O2-  O148  1  0.09328842  0.13142932  0.23765796  1
  O2-  O149  1  0.14111884  0.14413872  0.48875706  1
  O2-  O150  1  0.13682866  0.16217391  0.77523169  1
  O2-  O151  1  0.10934757  0.59293354  -0.00547442  1
  O2-  O152  1  0.08758419  0.63325891  0.24565829  1
  O2-  O153  1  0.11613954  0.65569547  0.48800721  1
  O2-  O154  1  0.02405352  0.61894381  0.71838104  1
  O2-  O155  1  0.37765554  0.16181968  -0.01019758  1
  O2-  O156  1  0.39020983  0.15305741  0.23233819  1
  O2-  O157  1  0.35590914  0.12356674  0.48572804  1
  O2-  O158  1  0.38624856  0.12771368  0.74035029  1
  O2-  O159  1  0.31994700  0.62676562  -0.01072245  1
  O2-  O160  1  0.38581099  0.62872941  0.24103963  1
  O2-  O161  1  0.34302116  0.67314670  0.49377415  1
  O2-  O162  1  0.38776834  0.64188254  0.74702755  1
  O2-  O163  1  0.62060911  0.15552017  -0.00749909  1
  O2-  O164  1  0.65582369  0.11357981  0.23468436  1
  O2-  O165  1  0.62820734  0.15134388  0.48473279  1
  O2-  O166  1  0.57279933  0.09398772  0.74547449  1
  O2-  O167  1  0.64928430  0.61907529  -0.00734208  1
  O2-  O168  1  0.57733316  0.61915988  0.26837565  1
  O2-  O169  1  0.56483746  0.64169787  0.48206145  1
  O2-  O170  1  0.60603372  0.63740866  0.74101821  1
  O2-  O171  1  0.95357617  0.13463339  -0.00256022  1
  O2-  O172  1  0.86022429  0.14047446  0.23814507  1
  O2-  O173  1  0.87785674  0.10936909  0.51192836  1
  O2-  O174  1  0.89789232  0.13008272  0.77223580  1
  O2-  O175  1  0.84720436  0.62399697  0.00370194  1
  O2-  O176  1  0.89797531  0.62432150  0.26401331  1
  O2-  O177  1  0.92361230  0.63738830  0.49995969  1
  O2-  O178  1  0.84809226  0.62214208  0.74839057  1
  O2-  O179  1  0.10503809  0.36941759  0.00620668  1
  O2-  O180  1  0.10238261  0.35999007  0.24573072  1
  O2-  O181  1  0.14732113  0.34904450  0.49145967  1
  O2-  O182  1  0.12208911  0.36038811  0.76468192  1
  O2-  O183  1  0.13261397  0.87157801  -0.01361469  1
  O2-  O184  1  0.08935487  0.86991035  0.23846629  1
  O2-  O185  1  0.11417169  0.86382299  0.47786960  1
  O2-  O186  1  0.11626535  0.83669789  0.77994723  1
  O2-  O187  1  0.44885616  0.37694297  -0.03364412  1
  O2-  O188  1  0.40421874  0.39015389  0.24544651  1
  O2-  O189  1  0.36645543  0.36631564  0.50536575  1
  O2-  O190  1  0.33636638  0.38093151  0.72179025  1
  O2-  O191  1  0.34911036  0.87493588  -0.00264238  1
  O2-  O192  1  0.40570224  0.86589639  0.23082573  1
  O2-  O193  1  0.35956901  0.87739300  0.50222471  1
  O2-  O194  1  0.41216445  0.88195539  0.74823340  1
  O2-  O195  1  0.63996006  0.35455825  -0.01172105  1
  O2-  O196  1  0.66762622  0.38997336  0.23976082  1
  O2-  O197  1  0.65122275  0.33522978  0.47725459  1
  O2-  O198  1  0.68567505  0.37428167  0.74432693  1
  O2-  O199  1  0.66013204  0.86673017  -0.00828582  1
  O2-  O200  1  0.58177205  0.86722552  0.25886962  1
  O2-  O201  1  0.59474214  0.85722656  0.49091333  1
  O2-  O202  1  0.61909065  0.87756601  0.74317507  1
  O2-  O203  1  0.93490631  0.35439762  -0.00161013  1
  O2-  O204  1  0.86587517  0.35263123  0.25379013  1
  O2-  O205  1  0.99089578  0.38145899  0.43505556  1
  O2-  O206  1  0.88670087  0.33362549  0.78304208  1
  O2-  O207  1  0.84223717  0.85576322  -0.00001799  1
  O2-  O208  1  0.89761523  0.87627347  0.24907351  1
  O2-  O209  1  0.88424979  0.86931959  0.50505008  1
  O2-  O210  1  0.83899191  0.85990533  0.75492234  1
  O2-  O211  1  -0.00859159  -0.14241417  -0.10526300  1
  O2-  O212  1  -0.00989185  -0.15342158  0.09862887  1
  O2-  O213  1  0.00660320  0.14201014  0.63460079  1
  O2-  O214  1  0.05240619  -0.01122105  0.78877324  1
  O2-  O215  1  -0.01209220  0.64144596  -0.11535497  1
  O2-  O216  1  -0.01412942  0.65340772  0.10809876  1
  O2-  O217  1  -0.01619055  0.35013076  0.61857716  1
  O2-  O218  1  0.04245921  0.48120094  0.86271288  1
  O2-  O219  1  0.23446817  -0.10355554  0.13869426  1
  O2-  O220  1  0.25088433  -0.16405833  0.35968711  1
  O2-  O221  1  0.24823439  0.16720476  0.34872333  1
  O2-  O222  1  0.25088895  -0.10215368  0.84619008  1
  O2-  O223  1  0.22874615  0.59104409  0.14614182  1
  O2-  O224  1  0.24587545  0.63820934  0.34991076  1
  O2-  O225  1  0.24863387  0.37935148  0.35675208  1
  O2-  O226  1  0.18498752  0.61235456  0.75865854  1
  O2-  O227  1  0.49738896  -0.14619121  -0.10917892  1
  O2-  O228  1  0.49537084  0.13182681  0.36904137  1
  O2-  O229  1  0.48728408  0.16564828  0.59267298  1
  O2-  O230  1  0.47039853  -0.00149584  0.60884098  1
  O2-  O231  1  0.49321116  0.65514518  -0.10921600  1
  O2-  O232  1  0.50964244  0.38421161  0.38164863  1
  O2-  O233  1  0.50958613  0.34467774  0.60649726  1
  O2-  O234  1  0.47422830  0.46666269  0.72889720  1
  O2-  O235  1  0.74365210  -0.11800036  0.16284719  1
  O2-  O236  1  0.75410393  -0.11006704  0.37020823  1
  O2-  O237  1  0.73923606  -0.17863981  0.61619915  1
  O2-  O238  1  0.80304228  -0.00030305  0.64088187  1
  O2-  O239  1  0.74355361  0.61394834  0.16712417  1
  O2-  O240  1  0.75670377  0.63460432  0.40668594  1
  O2-  O241  1  0.83734375  0.36333235  0.50705140  1
  O2-  O242  1  0.85606464  0.51523201  0.61182630  1
