# generated using pymatgen
data_Gd19Ta56(WO20)8
_symmetry_space_group_name_H-M   'P 1'
_cell_length_a   15.48037437
_cell_length_b   15.47184237
_cell_length_c   15.31989858
_cell_angle_alpha   90.04724548
_cell_angle_beta   90.04505958
_cell_angle_gamma   89.85296296
_symmetry_Int_Tables_number   1
_chemical_formula_structural   Gd19Ta56(WO20)8
_chemical_formula_sum   'Gd19 Ta56 W8 O160'
_cell_volume   3669.25310424
_cell_formula_units_Z   1
loop_
 _symmetry_equiv_pos_site_id
 _symmetry_equiv_pos_as_xyz
  1  'x, y, z'
loop_
 _atom_type_symbol
 _atom_type_oxidation_number
  Gd3+  3.0
  Ta5+  5.0
  W6+  6.0
  O2-  -2.0
loop_
 _atom_site_type_symbol
 _atom_site_label
 _atom_site_symmetry_multiplicity
 _atom_site_fract_x
 _atom_site_fract_y
 _atom_site_fract_z
 _atom_site_occupancy
  Gd3+  Gd0  1  0.22176472  0.23500158  0.51882030  1
  Gd3+  Gd1  1  0.51006059  0.74758475  0.73054225  1
  Gd3+  Gd2  1  0.49127678  0.74906959  0.49214946  1
  Gd3+  Gd3  1  0.00513587  0.26185110  0.25774117  1
  Gd3+  Gd4  1  0.25896338  0.74009104  0.49879298  1
  Gd3+  Gd5  1  0.01136117  0.26184346  0.75201355  1
  Gd3+  Gd6  1  0.25841390  0.74922906  0.23237998  1
  Gd3+  Gd7  1  0.78507398  0.25477523  0.21523528  1
  Gd3+  Gd8  1  0.75129873  0.76463072  0.22175679  1
  Gd3+  Gd9  1  0.49888240  0.24816714  0.50795475  1
  Gd3+  Gd10  1  0.77014550  0.25320228  0.75615185  1
  Gd3+  Gd11  1  0.50165709  0.24060106  0.25734297  1
  Gd3+  Gd12  1  -0.00930802  0.75146259  0.25666626  1
  Gd3+  Gd13  1  0.25515011  0.24858814  0.75328625  1
  Gd3+  Gd14  1  0.24598821  0.75223684  0.79412354  1
  Gd3+  Gd15  1  0.74573593  0.74918972  0.77593103  1
  Gd3+  Gd16  1  0.73812998  0.27280740  -0.00609360  1
  Gd3+  Gd17  1  -0.00836432  0.26651987  0.00225919  1
  Gd3+  Gd18  1  -0.00293814  0.25719798  0.50043947  1
  Ta5+  Ta19  1  0.58591686  0.87156184  0.87504148  1
  Ta5+  Ta20  1  0.61730826  0.12031790  0.87316250  1
  Ta5+  Ta21  1  0.89758123  0.63839118  0.88032635  1
  Ta5+  Ta22  1  0.10647779  0.11313093  0.88412104  1
  Ta5+  Ta23  1  0.62895405  0.11974218  0.62596528  1
  Ta5+  Ta24  1  0.88028400  0.11084436  0.09913332  1
  Ta5+  Ta25  1  0.86151316  0.62729927  0.37407429  1
  Ta5+  Ta26  1  0.58539638  0.63657483  0.12536455  1
  Ta5+  Ta27  1  0.34998163  0.12418544  0.37616392  1
  Ta5+  Ta28  1  0.63292930  0.62085224  0.60074630  1
  Ta5+  Ta29  1  0.41772104  0.62083252  0.13079062  1
  Ta5+  Ta30  1  0.65324386  0.37759109  0.59657256  1
  Ta5+  Ta31  1  0.39200584  0.61676876  0.35547362  1
  Ta5+  Ta32  1  0.91495077  0.87014788  0.10462840  1
  Ta5+  Ta33  1  0.41598508  0.87149610  0.12802482  1
  Ta5+  Ta34  1  0.08169955  0.88540865  0.88616948  1
  Ta5+  Ta35  1  0.11956782  0.63874389  0.63933009  1
  Ta5+  Ta36  1  0.12966513  0.39518601  0.62853013  1
  Ta5+  Ta37  1  0.61527374  0.38707893  0.85236833  1
  Ta5+  Ta38  1  0.87848257  0.41201083  0.88016714  1
  Ta5+  Ta39  1  0.15253030  0.38719131  0.37104120  1
  Ta5+  Ta40  1  0.62930168  0.39328034  0.12310521  1
  Ta5+  Ta41  1  0.38218255  0.36968484  0.12195393  1
  Ta5+  Ta42  1  0.38204932  0.11518035  0.63301821  1
  Ta5+  Ta43  1  0.63597771  0.62898451  0.35467744  1
  Ta5+  Ta44  1  0.07538103  0.61242649  0.12038564  1
  Ta5+  Ta45  1  0.11580115  0.86293220  0.63709101  1
  Ta5+  Ta46  1  0.12152828  0.39228619  0.88202020  1
  Ta5+  Ta47  1  0.14312770  0.38774291  0.12756587  1
  Ta5+  Ta48  1  0.58395986  0.87841949  0.11827122  1
  Ta5+  Ta49  1  0.37739938  0.38161647  0.87483741  1
  Ta5+  Ta50  1  0.41682069  0.86864993  0.88354052  1
  Ta5+  Ta51  1  0.06615075  0.63259659  0.88159297  1
  Ta5+  Ta52  1  0.14168303  0.11296444  0.37225404  1
  Ta5+  Ta53  1  0.59613297  0.87973831  0.33412791  1
  Ta5+  Ta54  1  0.84869458  0.12050919  0.39908843  1
  Ta5+  Ta55  1  0.35868065  0.38284949  0.37041696  1
  Ta5+  Ta56  1  0.37405462  0.38890254  0.62587829  1
  Ta5+  Ta57  1  0.63603471  0.11769591  0.12319489  1
  Ta5+  Ta58  1  0.82795350  0.38023997  0.39453431  1
  Ta5+  Ta59  1  0.87529140  0.89393073  0.88078118  1
  Ta5+  Ta60  1  0.10990376  0.62222493  0.37943804  1
  Ta5+  Ta61  1  0.40158101  0.58690526  0.62158216  1
  Ta5+  Ta62  1  0.08760755  0.86484229  0.11329956  1
  Ta5+  Ta63  1  0.88180959  0.39692641  0.62782536  1
  Ta5+  Ta64  1  0.90574445  0.61097036  0.11981576  1
  Ta5+  Ta65  1  0.41864865  0.61890651  0.88213417  1
  Ta5+  Ta66  1  0.88127685  0.12165475  0.63913998  1
  Ta5+  Ta67  1  0.12495384  0.11264422  0.13500580  1
  Ta5+  Ta68  1  0.36834185  0.11999656  0.12796700  1
  Ta5+  Ta69  1  0.88292592  0.42972286  0.12750532  1
  Ta5+  Ta70  1  0.38752413  0.12041552  0.88424410  1
  Ta5+  Ta71  1  0.87569975  0.64316268  0.62528181  1
  Ta5+  Ta72  1  0.64685412  0.11740244  0.38244196  1
  Ta5+  Ta73  1  0.58874671  0.62248638  0.87839519  1
  Ta5+  Ta74  1  0.37549839  0.87063788  0.63125137  1
  W6+  W75  1  0.38026094  0.88054727  0.35749528  1
  W6+  W76  1  0.87402085  0.88159461  0.37390488  1
  W6+  W77  1  0.13024853  0.86401302  0.37643208  1
  W6+  W78  1  0.62469657  0.37820758  0.37347826  1
  W6+  W79  1  0.95164141  0.05340835  0.87029476  1
  W6+  W80  1  0.86215298  0.87218005  0.62842754  1
  W6+  W81  1  0.11464495  0.11350985  0.63108919  1
  W6+  W82  1  0.62636739  0.87736614  0.60429104  1
  O2-  O83  1  0.10856667  -0.00487216  0.13721992  1
  O2-  O84  1  0.12101551  -0.00146618  0.36628757  1
  O2-  O85  1  0.12202997  -0.01939639  0.63849130  1
  O2-  O86  1  0.14674334  0.00017412  0.87453449  1
  O2-  O87  1  0.15906576  0.50397604  0.13664979  1
  O2-  O88  1  0.09975978  0.49949609  0.38782360  1
  O2-  O89  1  0.14001644  0.51523023  0.63929307  1
  O2-  O90  1  0.10876666  0.50774206  0.85999401  1
  O2-  O91  1  0.40146292  0.00577353  0.12216866  1
  O2-  O92  1  0.39478884  0.01388608  0.37649883  1
  O2-  O93  1  0.35531189  -0.00279195  0.62723349  1
  O2-  O94  1  0.40245234  0.00183464  0.88061689  1
  O2-  O95  1  0.40428298  0.48649421  0.13818947  1
  O2-  O96  1  0.41545016  0.49275433  0.36697349  1
  O2-  O97  1  0.31037196  0.50742347  0.60693009  1
  O2-  O98  1  0.35782980  0.50140099  0.88156653  1
  O2-  O99  1  0.58937580  0.01048346  0.10413169  1
  O2-  O100  1  0.61421680  0.00401016  0.35831293  1
  O2-  O101  1  0.66025292  0.00513376  0.62171937  1
  O2-  O102  1  0.60170847  0.00365532  0.87116605  1
  O2-  O103  1  0.59931364  0.50702544  0.12648984  1
  O2-  O104  1  0.63679992  0.51080565  0.36204572  1
  O2-  O105  1  0.66725961  0.50266209  0.60394387  1
  O2-  O106  1  0.64015561  0.50361858  0.86635958  1
  O2-  O107  1  0.91682209  -0.00024252  0.11868258  1
  O2-  O108  1  0.89756053  0.02129913  0.35975018  1
  O2-  O109  1  0.89224928  0.00499223  0.64201196  1
  O2-  O110  1  0.82061491  0.00302705  0.87962008  1
  O2-  O111  1  0.98685163  0.50355410  0.15180368  1
  O2-  O112  1  0.84799632  0.49707113  0.37699037  1
  O2-  O113  1  0.85947416  0.51459116  0.62831797  1
  O2-  O114  1  0.83555420  0.52143821  0.86538088  1
  O2-  O115  1  0.08104705  0.25535803  0.12756088  1
  O2-  O116  1  0.09400436  0.26055654  0.37763022  1
  O2-  O117  1  0.09914542  0.25552036  0.62029029  1
  O2-  O118  1  0.09936151  0.25125233  0.89352896  1
  O2-  O119  1  0.08248239  0.73703912  0.11341623  1
  O2-  O120  1  0.18274299  0.73118709  0.36993859  1
  O2-  O121  1  0.19795268  0.74377569  0.64149438  1
  O2-  O122  1  0.06007241  0.76222934  0.88805925  1
  O2-  O123  1  0.42773720  0.24024406  0.12273645  1
  O2-  O124  1  0.41125184  0.24177677  0.38064899  1
  O2-  O125  1  0.40738456  0.26480934  0.63276930  1
  O2-  O126  1  0.33356716  0.26047182  0.87708008  1
  O2-  O127  1  0.39813310  0.74577095  0.15073056  1
  O2-  O128  1  0.35892845  0.74433158  0.35529867  1
  O2-  O129  1  0.39804554  0.73246729  0.62095310  1
  O2-  O130  1  0.38815021  0.74106984  0.86709143  1
  O2-  O131  1  0.65890329  0.25223198  0.12731407  1
  O2-  O132  1  0.59660228  0.23664335  0.37996825  1
  O2-  O133  1  0.61725519  0.25331875  0.61040010  1
  O2-  O134  1  0.66418192  0.26695078  0.86158149  1
  O2-  O135  1  0.61659056  0.75787127  0.13939527  1
  O2-  O136  1  0.64767554  0.76532631  0.33647118  1
  O2-  O137  1  0.59016311  0.74738690  0.60336237  1
  O2-  O138  1  0.61761778  0.74454229  0.86982546  1
  O2-  O139  1  0.85804116  0.25498257  0.08236572  1
  O2-  O140  1  0.88714414  0.25124666  0.38066030  1
  O2-  O141  1  0.91845174  0.25370852  0.63278512  1
  O2-  O142  1  0.84018882  0.28640274  0.89133606  1
  O2-  O143  1  0.89537427  0.74264871  0.12674154  1
  O2-  O144  1  0.83385524  0.74869823  0.35509854  1
  O2-  O145  1  0.80190384  0.74466611  0.63171188  1
  O2-  O146  1  0.86493900  0.75867803  0.88158991  1
  O2-  O147  1  0.10146593  0.12707953  0.01395867  1
  O2-  O148  1  0.08287579  0.13336485  0.25524939  1
  O2-  O149  1  0.09309485  0.13769310  0.48924273  1
  O2-  O150  1  0.13358109  0.15333822  0.76319628  1
  O2-  O151  1  0.09483001  0.60612518  -0.00142124  1
  O2-  O152  1  0.10822484  0.63183638  0.25206370  1
  O2-  O153  1  0.14231100  0.64028026  0.50824922  1
  O2-  O154  1  0.13457453  0.65280256  0.76367336  1
  O2-  O155  1  0.35200637  0.13481663  0.00052945  1
  O2-  O156  1  0.39948488  0.13216726  0.25092999  1
  O2-  O157  1  0.39488770  0.13935742  0.50976987  1
  O2-  O158  1  0.35778546  0.13592141  0.76157434  1
  O2-  O159  1  0.40599869  0.62520429  0.00914879  1
  O2-  O160  1  0.33272638  0.61332410  0.24599308  1
  O2-  O161  1  0.36524697  0.62822274  0.48518879  1
  O2-  O162  1  0.41281127  0.61219326  0.74231003  1
  O2-  O163  1  0.66474140  0.14170974  -0.01201592  1
  O2-  O164  1  0.60194133  0.12917211  0.24320266  1
  O2-  O165  1  0.59150868  0.12371824  0.50090791  1
  O2-  O166  1  0.65659513  0.13890711  0.75666128  1
  O2-  O167  1  0.59693703  0.63213734  0.00209828  1
  O2-  O168  1  0.67376184  0.63186897  0.23368029  1
  O2-  O169  1  0.66706556  0.64510104  0.48101998  1
  O2-  O170  1  0.61534122  0.63448471  0.73230106  1
  O2-  O171  1  0.92266393  0.13419025  -0.01617721  1
  O2-  O172  1  0.90821361  0.16009043  0.21187056  1
  O2-  O173  1  0.90988389  0.13595889  0.51112727  1
  O2-  O174  1  0.90356418  0.14900407  0.76436563  1
  O2-  O175  1  0.87450998  0.61495273  0.00125884  1
  O2-  O176  1  0.86685629  0.62266476  0.24613241  1
  O2-  O177  1  0.86211454  0.63561355  0.50106637  1
  O2-  O178  1  0.85992472  0.64457761  0.75239109  1
  O2-  O179  1  0.09939191  0.38602907  0.01092623  1
  O2-  O180  1  0.10732199  0.37491726  0.25213587  1
  O2-  O181  1  0.11905379  0.37534081  0.50047508  1
  O2-  O182  1  0.14573974  0.35901952  0.75519204  1
  O2-  O183  1  0.13571792  0.87344408  -0.00023894  1
  O2-  O184  1  0.12509520  0.83923327  0.23832132  1
  O2-  O185  1  0.15811524  0.85112365  0.51670183  1
  O2-  O186  1  0.14553202  0.85278697  0.76585192  1
  O2-  O187  1  0.39961492  0.37042909  0.00095896  1
  O2-  O188  1  0.38903862  0.34769382  0.25340742  1
  O2-  O189  1  0.38488640  0.37139300  0.49615816  1
  O2-  O190  1  0.33931379  0.37910842  0.75093379  1
  O2-  O191  1  0.39392145  0.86093731  0.00785447  1
  O2-  O192  1  0.32735219  0.87755305  0.23221550  1
  O2-  O193  1  0.37058759  0.85171363  0.49968258  1
  O2-  O194  1  0.34801451  0.85900145  0.75588933  1
  O2-  O195  1  0.62395924  0.37241603  -0.00596645  1
  O2-  O196  1  0.57563710  0.36628994  0.23391953  1
  O2-  O197  1  0.56854445  0.38005278  0.50370495  1
  O2-  O198  1  0.63392946  0.38155988  0.72831201  1
  O2-  O199  1  0.60682966  0.86704708  -0.00088579  1
  O2-  O200  1  0.66968654  0.89431834  0.22686053  1
  O2-  O201  1  0.57680329  0.86654175  0.46311029  1
  O2-  O202  1  0.63029879  0.85031261  0.74503548  1
  O2-  O203  1  0.90986784  0.40962839  0.00761745  1
  O2-  O204  1  0.89612657  0.36553061  0.24184765  1
  O2-  O205  1  0.90725931  0.37747391  0.50141522  1
  O2-  O206  1  0.86575438  0.37406790  0.75333805  1
  O2-  O207  1  0.84490659  0.86803767  0.00295998  1
  O2-  O208  1  0.88353530  0.86387894  0.23553967  1
  O2-  O209  1  0.84668189  0.88543287  0.49948321  1
  O2-  O210  1  0.82549172  0.86634248  0.75963644  1
  O2-  O211  1  -0.01666195  -0.06018566  -0.03958201  1
  O2-  O212  1  -0.00060985  -0.16595769  0.37388417  1
  O2-  O213  1  0.00140737  -0.16526387  0.63115349  1
  O2-  O214  1  -0.01754498  -0.07542278  0.80499487  1
  O2-  O215  1  -0.00241615  0.37224830  -0.14187485  1
  O2-  O216  1  -0.01080235  0.64179105  0.37801363  1
  O2-  O217  1  -0.00047746  0.64483595  0.63033098  1
  O2-  O218  1  0.00698911  0.39804640  0.65349777  1
  O2-  O219  1  0.24517855  0.12371286  0.13532866  1
  O2-  O220  1  0.24445330  0.15089806  0.30624936  1
  O2-  O221  1  0.24771790  0.10299912  0.45295236  1
  O2-  O222  1  0.25735568  0.15427736  0.63336872  1
  O2-  O223  1  0.25915329  0.34884063  0.12378281  1
  O2-  O224  1  0.25500935  0.45023730  0.33453462  1
  O2-  O225  1  0.25358900  0.31039661  0.39975961  1
  O2-  O226  1  0.24716530  0.34430724  0.61530247  1
  O2-  O227  1  0.50356514  0.16572994  -0.11764551  1
  O2-  O228  1  0.49966116  -0.12196964  0.25421941  1
  O2-  O229  1  0.49407785  -0.11845448  0.64215544  1
  O2-  O230  1  0.50668203  0.11210306  0.65551886  1
  O2-  O231  1  0.49598160  0.36661989  -0.15147128  1
  O2-  O232  1  0.51194704  0.65183408  0.37199911  1
  O2-  O233  1  0.51474607  0.60656952  0.56330483  1
  O2-  O234  1  0.46394505  0.46917461  0.64531468  1
  O2-  O235  1  0.75925355  0.10209671  0.12943581  1
  O2-  O236  1  0.75383893  0.15175079  0.31538859  1
  O2-  O237  1  0.74728953  0.08752649  0.45963176  1
  O2-  O238  1  0.76340129  0.15176412  0.63455315  1
  O2-  O239  1  0.75486898  0.40116815  0.12365902  1
  O2-  O240  1  0.74032684  0.35332516  0.30834053  1
  O2-  O241  1  0.73205462  0.37721181  0.47357454  1
  O2-  O242  1  0.76904809  0.33754473  0.62758598  1
