# generated using pymatgen
data_Gd19Ta56(WO20)8
_symmetry_space_group_name_H-M   'P 1'
_cell_length_a   15.57361108
_cell_length_b   15.50962062
_cell_length_c   15.17439081
_cell_angle_alpha   90.08815602
_cell_angle_beta   89.94507723
_cell_angle_gamma   90.23746927
_symmetry_Int_Tables_number   1
_chemical_formula_structural   Gd19Ta56(WO20)8
_chemical_formula_sum   'Gd19 Ta56 W8 O160'
_cell_volume   3665.19700945
_cell_formula_units_Z   1
loop_
 _symmetry_equiv_pos_site_id
 _symmetry_equiv_pos_as_xyz
  1  'x, y, z'
loop_
 _atom_type_symbol
 _atom_type_oxidation_number
  Gd3+  3.0
  Ta5+  5.0
  W6+  6.0
  O2-  -2.0
loop_
 _atom_site_type_symbol
 _atom_site_label
 _atom_site_symmetry_multiplicity
 _atom_site_fract_x
 _atom_site_fract_y
 _atom_site_fract_z
 _atom_site_occupancy
  Gd3+  Gd0  1  0.49752018  0.25619568  0.74891025  1
  Gd3+  Gd1  1  0.48692551  0.75676214  0.49629354  1
  Gd3+  Gd2  1  0.27573039  0.76940620  0.22176043  1
  Gd3+  Gd3  1  0.00177302  0.75803984  0.49937228  1
  Gd3+  Gd4  1  0.50271993  0.75646472  0.25458911  1
  Gd3+  Gd5  1  0.72254791  0.21811447  0.74303453  1
  Gd3+  Gd6  1  0.26753135  0.74772021  0.74972299  1
  Gd3+  Gd7  1  0.00065204  0.25538690  0.23149771  1
  Gd3+  Gd8  1  0.24391144  0.26333918  0.24835225  1
  Gd3+  Gd9  1  0.30260408  0.76939146  -0.00872988  1
  Gd3+  Gd10  1  0.27656203  0.25696925  -0.04335242  1
  Gd3+  Gd11  1  0.50311404  0.26813249  0.24264397  1
  Gd3+  Gd12  1  0.51870682  0.74700471  0.72190460  1
  Gd3+  Gd13  1  0.00250057  0.74087694  0.24905303  1
  Gd3+  Gd14  1  0.26248795  0.26683093  0.52516102  1
  Gd3+  Gd15  1  0.01377783  0.74773758  0.76298739  1
  Gd3+  Gd16  1  0.73038693  0.21147082  0.48955096  1
  Gd3+  Gd17  1  0.74484374  0.23175244  0.22635359  1
  Gd3+  Gd18  1  0.73232694  0.75219337  0.48914419  1
  Ta5+  Ta19  1  0.36067607  0.58494296  0.62525593  1
  Ta5+  Ta20  1  0.85310498  0.62576912  0.11102603  1
  Ta5+  Ta21  1  0.14449343  0.87836630  0.37432031  1
  Ta5+  Ta22  1  0.58592162  0.11130684  0.34779852  1
  Ta5+  Ta23  1  0.14568315  0.88086885  0.62556209  1
  Ta5+  Ta24  1  0.86819975  0.87770429  0.66211721  1
  Ta5+  Ta25  1  0.66866884  0.61054091  0.63539030  1
  Ta5+  Ta26  1  0.81047609  0.86498446  0.85834996  1
  Ta5+  Ta27  1  0.13624364  0.12606336  0.11981651  1
  Ta5+  Ta28  1  0.79326444  0.37105153  0.87760346  1
  Ta5+  Ta29  1  0.36684499  0.13713725  0.37647141  1
  Ta5+  Ta30  1  0.86271929  0.36452636  0.63269478  1
  Ta5+  Ta31  1  0.62280702  0.89080100  0.37381979  1
  Ta5+  Ta32  1  0.90378035  0.08898156  0.10782803  1
  Ta5+  Ta33  1  0.38973330  0.39078347  0.38058129  1
  Ta5+  Ta34  1  0.59231646  0.87482451  0.86776380  1
  Ta5+  Ta35  1  0.39757840  0.11601668  0.12815946  1
  Ta5+  Ta36  1  0.43064116  0.12772525  0.89330430  1
  Ta5+  Ta37  1  0.84700488  0.11145767  0.88289112  1
  Ta5+  Ta38  1  0.63751937  0.86103449  0.11536821  1
  Ta5+  Ta39  1  0.39494087  0.37837848  0.10919871  1
  Ta5+  Ta40  1  0.59783350  0.08827138  0.12493406  1
  Ta5+  Ta41  1  0.86151251  0.36753083  0.38349133  1
  Ta5+  Ta42  1  0.45080988  0.39276892  0.89866729  1
  Ta5+  Ta43  1  0.39050530  0.92592833  0.62199377  1
  Ta5+  Ta44  1  0.61112376  0.61579026  0.11500521  1
  Ta5+  Ta45  1  0.42279181  0.89048469  0.87276354  1
  Ta5+  Ta46  1  0.08888560  0.38252582  0.89562680  1
  Ta5+  Ta47  1  0.59000114  0.61904328  0.87092268  1
  Ta5+  Ta48  1  0.40193539  0.62568944  0.12118428  1
  Ta5+  Ta49  1  0.91549166  0.39102646  0.08750719  1
  Ta5+  Ta50  1  0.82144699  0.61906846  0.85219235  1
  Ta5+  Ta51  1  0.41464567  0.90993271  0.12566734  1
  Ta5+  Ta52  1  0.62690209  0.36825984  0.60911481  1
  Ta5+  Ta53  1  0.34668268  0.62282273  0.37859962  1
  Ta5+  Ta54  1  0.90463247  0.10976197  0.39175924  1
  Ta5+  Ta55  1  0.12658852  0.39054098  0.10989181  1
  Ta5+  Ta56  1  0.14870626  0.62202993  0.13383423  1
  Ta5+  Ta57  1  0.66520591  0.89138402  0.63080594  1
  Ta5+  Ta58  1  0.39676509  0.39765389  0.63898479  1
  Ta5+  Ta59  1  0.10927560  0.12358712  0.38256667  1
  Ta5+  Ta60  1  0.57283806  0.10497880  0.60843592  1
  Ta5+  Ta61  1  0.14178660  0.61504416  0.37889672  1
  Ta5+  Ta62  1  0.61354231  0.36801672  0.09009834  1
  Ta5+  Ta63  1  0.10452254  0.38380564  0.37736064  1
  Ta5+  Ta64  1  0.09057891  0.13281550  0.88701921  1
  Ta5+  Ta65  1  0.86989510  0.10775850  0.62793429  1
  Ta5+  Ta66  1  0.87085603  0.87857449  0.35697058  1
  Ta5+  Ta67  1  0.63533630  0.37478057  0.35823064  1
  Ta5+  Ta68  1  0.09829442  0.37112626  0.64367937  1
  Ta5+  Ta69  1  0.16311633  0.89078662  0.88837476  1
  Ta5+  Ta70  1  0.62890945  0.61900485  0.37451700  1
  Ta5+  Ta71  1  0.87237715  0.84663807  0.09892476  1
  Ta5+  Ta72  1  0.35217720  0.89286109  0.37867448  1
  Ta5+  Ta73  1  0.42297422  0.63120205  0.87255006  1
  Ta5+  Ta74  1  0.62632433  0.37693681  0.87316329  1
  W6+  W75  1  0.87202177  0.61963292  0.63620312  1
  W6+  W76  1  0.40259788  0.13169194  0.62848936  1
  W6+  W77  1  0.13835561  0.12990349  0.63505911  1
  W6+  W78  1  0.12004516  0.88222550  0.13655990  1
  W6+  W79  1  0.13965068  0.62784270  0.89773758  1
  W6+  W80  1  0.12279543  0.62194420  0.63205625  1
  W6+  W81  1  0.59446343  0.11262030  0.87646942  1
  W6+  W82  1  0.88286030  0.61784455  0.37899274  1
  O2-  O83  1  0.10677489  0.01303145  0.10850094  1
  O2-  O84  1  0.13329557  0.00358857  0.38241544  1
  O2-  O85  1  0.12145162  -0.00528269  0.64030714  1
  O2-  O86  1  0.12240372  0.00385643  0.89235245  1
  O2-  O87  1  0.17590430  0.50033359  0.12662618  1
  O2-  O88  1  0.08005174  0.50258112  0.38273399  1
  O2-  O89  1  0.12056088  0.48580988  0.62619420  1
  O2-  O90  1  0.09698255  0.50207293  0.89456272  1
  O2-  O91  1  0.33418590  0.00377397  0.13774694  1
  O2-  O92  1  0.34447765  0.01715507  0.37407340  1
  O2-  O93  1  0.31615741  0.01922512  0.61256407  1
  O2-  O94  1  0.42245393  0.00840667  0.90933364  1
  O2-  O95  1  0.40215748  0.50649768  0.11565228  1
  O2-  O96  1  0.40561729  0.51168031  0.37085053  1
  O2-  O97  1  0.29984874  0.48044022  0.65225937  1
  O2-  O98  1  0.41718146  0.51036149  0.89514882  1
  O2-  O99  1  0.66376553  -0.01357385  0.11924763  1
  O2-  O100  1  0.55554440  -0.00750234  0.36718790  1
  O2-  O101  1  0.66315400  0.01052647  0.61240925  1
  O2-  O102  1  0.62628173  -0.00833118  0.86623193  1
  O2-  O103  1  0.61504133  0.49320187  0.10412864  1
  O2-  O104  1  0.64044762  0.49689365  0.37696360  1
  O2-  O105  1  0.65213232  0.49061707  0.60721356  1
  O2-  O106  1  0.62368394  0.50117462  0.86963771  1
  O2-  O107  1  0.90880713  -0.03161070  0.10542883  1
  O2-  O108  1  0.86666621  0.00501892  0.34191011  1
  O2-  O109  1  0.91080119  -0.01354530  0.62944618  1
  O2-  O110  1  0.81545439  -0.00495804  0.88393371  1
  O2-  O111  1  0.87488835  0.50258784  0.10711379  1
  O2-  O112  1  0.86674375  0.48329783  0.38077501  1
  O2-  O113  1  0.86367741  0.48189175  0.63205384  1
  O2-  O114  1  0.81126363  0.49149950  0.86340523  1
  O2-  O115  1  0.12754065  0.26478044  0.14365129  1
  O2-  O116  1  0.11951572  0.25094926  0.34591537  1
  O2-  O117  1  0.16708067  0.26938636  0.63830676  1
  O2-  O118  1  0.06995390  0.25385230  0.90416526  1
  O2-  O119  1  0.13796646  0.74880999  0.16788315  1
  O2-  O120  1  0.09496406  0.75144171  0.37236314  1
  O2-  O121  1  0.08760345  0.76328561  0.63060428  1
  O2-  O122  1  0.20129273  0.74886404  0.88780714  1
  O2-  O123  1  0.41831217  0.25016405  0.12135576  1
  O2-  O124  1  0.32084384  0.27220202  0.37725223  1
  O2-  O125  1  0.36094982  0.27384184  0.64140991  1
  O2-  O126  1  0.42602811  0.26104765  0.89446972  1
  O2-  O127  1  0.39902021  0.77017406  0.13994208  1
  O2-  O128  1  0.39720692  0.75465571  0.37525788  1
  O2-  O129  1  0.42711707  0.79605628  0.62110246  1
  O2-  O130  1  0.38137136  0.76054725  0.85154782  1
  O2-  O131  1  0.62036779  0.24025859  0.13969147  1
  O2-  O132  1  0.64141647  0.23958565  0.34335786  1
  O2-  O133  1  0.64367644  0.23060431  0.61007117  1
  O2-  O134  1  0.61111792  0.24239144  0.85333734  1
  O2-  O135  1  0.58899744  0.74423893  0.13362884  1
  O2-  O136  1  0.59393202  0.75654573  0.37894256  1
  O2-  O137  1  0.65229879  0.74544069  0.62887576  1
  O2-  O138  1  0.60485306  0.74846060  0.84666093  1
  O2-  O139  1  0.87308145  0.30472985  0.16877045  1
  O2-  O140  1  0.84618844  0.21915991  0.36727152  1
  O2-  O141  1  0.82774981  0.22836433  0.61798392  1
  O2-  O142  1  0.79764786  0.22692380  0.87526290  1
  O2-  O143  1  0.92886159  0.73533809  0.10465597  1
  O2-  O144  1  0.90505802  0.75196848  0.37221144  1
  O2-  O145  1  0.91213846  0.76253137  0.63921629  1
  O2-  O146  1  0.79413229  0.74343132  0.84360009  1
  O2-  O147  1  0.17052060  0.14905393  -0.00423152  1
  O2-  O148  1  0.16355419  0.12704819  0.24603241  1
  O2-  O149  1  0.16786054  0.15120499  0.48907326  1
  O2-  O150  1  0.12341123  0.13738801  0.77265020  1
  O2-  O151  1  0.08810320  0.63026639  0.03202974  1
  O2-  O152  1  0.09346289  0.61169938  0.25192157  1
  O2-  O153  1  0.11077433  0.64088132  0.49417279  1
  O2-  O154  1  0.13690707  0.65770687  0.76421904  1
  O2-  O155  1  0.35874510  0.13988485  0.00992141  1
  O2-  O156  1  0.34663027  0.15419517  0.24630831  1
  O2-  O157  1  0.35537864  0.15419427  0.49812290  1
  O2-  O158  1  0.41143768  0.13261117  0.76928092  1
  O2-  O159  1  0.40440940  0.66221944  -0.00153449  1
  O2-  O160  1  0.38627578  0.63676250  0.25429867  1
  O2-  O161  1  0.38485091  0.63885648  0.50230338  1
  O2-  O162  1  0.39633859  0.63252750  0.73546093  1
  O2-  O163  1  0.61052029  0.12775118  0.01153439  1
  O2-  O164  1  0.66583810  0.10448325  0.24576660  1
  O2-  O165  1  0.61223012  0.11997881  0.47650212  1
  O2-  O166  1  0.59378949  0.12246235  0.73275006  1
  O2-  O167  1  0.62034253  0.63729731  -0.00550466  1
  O2-  O168  1  0.57926595  0.62212346  0.25822695  1
  O2-  O169  1  0.59276593  0.63565143  0.49688366  1
  O2-  O170  1  0.58409400  0.61482777  0.73024278  1
  O2-  O171  1  0.83487164  0.12455154  0.01671663  1
  O2-  O172  1  0.84552888  0.12664417  0.20514684  1
  O2-  O173  1  0.83238244  0.09818715  0.49973802  1
  O2-  O174  1  0.84478061  0.11165388  0.75014377  1
  O2-  O175  1  0.84762080  0.62848079  -0.02219885  1
  O2-  O176  1  0.89483647  0.62989823  0.23185372  1
  O2-  O177  1  0.92740052  0.63215761  0.50971329  1
  O2-  O178  1  0.92152097  0.62967727  0.77802991  1
  O2-  O179  1  0.17669445  0.36098594  -0.00622285  1
  O2-  O180  1  0.17318156  0.39241828  0.27241941  1
  O2-  O181  1  0.14436942  0.36408657  0.49265926  1
  O2-  O182  1  0.08805417  0.37117527  0.76730357  1
  O2-  O183  1  0.13273218  0.85639916  0.00203575  1
  O2-  O184  1  0.07005961  0.88010375  0.27101840  1
  O2-  O185  1  0.11075568  0.87382953  0.50392072  1
  O2-  O186  1  0.13102609  0.85567435  0.76506612  1
  O2-  O187  1  0.34961799  0.37690888  -0.00683554  1
  O2-  O188  1  0.37706501  0.36923274  0.24781509  1
  O2-  O189  1  0.35732340  0.38810396  0.50218311  1
  O2-  O190  1  0.42728652  0.38947383  0.76307863  1
  O2-  O191  1  0.41351916  0.86702584  0.00671199  1
  O2-  O192  1  0.41531974  0.88662384  0.26224528  1
  O2-  O193  1  0.41781482  0.89682040  0.48550526  1
  O2-  O194  1  0.40301752  0.91391763  0.74558310  1
  O2-  O195  1  0.69000248  0.35530215  -0.00590474  1
  O2-  O196  1  0.60582729  0.37723062  0.23107673  1
  O2-  O197  1  0.66378760  0.34940555  0.48150009  1
  O2-  O198  1  0.62521860  0.36277931  0.73595929  1
  O2-  O199  1  0.61391081  0.85853567  -0.00382251  1
  O2-  O200  1  0.61026282  0.87070028  0.24872495  1
  O2-  O201  1  0.61265087  0.86657118  0.50864085  1
  O2-  O202  1  0.58699462  0.87918282  0.72641125  1
  O2-  O203  1  0.85768996  0.35323256  -0.01181413  1
  O2-  O204  1  0.75889565  0.35879719  0.31277745  1
  O2-  O205  1  0.83625963  0.34383956  0.50103838  1
  O2-  O206  1  0.81833086  0.34466478  0.74834378  1
  O2-  O207  1  0.86105470  0.84779574  -0.02432625  1
  O2-  O208  1  0.89659049  0.85222702  0.23540314  1
  O2-  O209  1  0.94358626  0.89079714  0.45259371  1
  O2-  O210  1  0.91945145  0.86537624  0.78523293  1
  O2-  O211  1  0.00728669  0.15617345  0.10938541  1
  O2-  O212  1  -0.00243915  0.12814192  0.30296132  1
  O2-  O213  1  0.00535742  0.11104485  0.46382882  1
  O2-  O214  1  -0.03128355  0.11168208  0.89042215  1
  O2-  O215  1  0.02381190  0.38920691  0.01946363  1
  O2-  O216  1  0.01691211  0.39716381  0.18006201  1
  O2-  O217  1  -0.01673790  0.34315539  0.36124593  1
  O2-  O218  1  -0.01557366  0.34161637  0.60995046  1
  O2-  O219  1  0.28241827  -0.10137671  -0.11251202  1
  O2-  O220  1  0.24181025  -0.10694854  0.28935942  1
  O2-  O221  1  0.25510150  -0.15429080  0.43939838  1
  O2-  O222  1  0.26382759  -0.14259498  0.63835494  1
  O2-  O223  1  0.26886510  0.65479697  0.11238750  1
  O2-  O224  1  0.24282417  0.68414567  0.33282395  1
  O2-  O225  1  0.24618566  0.54907095  0.40839722  1
  O2-  O226  1  0.25904711  0.66053580  0.62909405  1
  O2-  O227  1  0.48858072  0.01760479  0.09867734  1
  O2-  O228  1  0.50744267  0.12221527  0.21649452  1
  O2-  O229  1  0.48202948  0.18310277  0.37188750  1
  O2-  O230  1  0.48489975  0.01102662  0.61141213  1
  O2-  O231  1  0.50605268  0.37185942  0.02599307  1
  O2-  O232  1  0.50730096  0.36240469  0.38157586  1
  O2-  O233  1  0.50966219  0.34397663  0.59891476  1
  O2-  O234  1  0.45631401  0.50799574  0.60581939  1
  O2-  O235  1  0.75687700  -0.17150890  0.12745311  1
  O2-  O236  1  0.75017623  -0.13841097  0.37684439  1
  O2-  O237  1  0.78080500  -0.13393805  0.56860545  1
  O2-  O238  1  0.76178960  -0.10431978  0.73156739  1
  O2-  O239  1  0.73811276  0.63378865  0.13760152  1
  O2-  O240  1  0.74195505  0.65581242  0.36604520  1
  O2-  O241  1  0.76310258  0.62613209  0.54993230  1
  O2-  O242  1  0.75924056  0.60924830  0.72419300  1
