# generated using pymatgen
data_Gd19Ta56(WO20)8
_symmetry_space_group_name_H-M   'P 1'
_cell_length_a   15.54576889
_cell_length_b   15.34093277
_cell_length_c   15.34498601
_cell_angle_alpha   89.94264396
_cell_angle_beta   90.13336044
_cell_angle_gamma   89.88149024
_symmetry_Int_Tables_number   1
_chemical_formula_structural   Gd19Ta56(WO20)8
_chemical_formula_sum   'Gd19 Ta56 W8 O160'
_cell_volume   3659.55387958
_cell_formula_units_Z   1
loop_
 _symmetry_equiv_pos_site_id
 _symmetry_equiv_pos_as_xyz
  1  'x, y, z'
loop_
 _atom_type_symbol
 _atom_type_oxidation_number
  Gd3+  3.0
  Ta5+  5.0
  W6+  6.0
  O2-  -2.0
loop_
 _atom_site_type_symbol
 _atom_site_label
 _atom_site_symmetry_multiplicity
 _atom_site_fract_x
 _atom_site_fract_y
 _atom_site_fract_z
 _atom_site_occupancy
  Gd3+  Gd0  1  0.50854855  0.76750238  0.48354454  1
  Gd3+  Gd1  1  0.73705355  0.28221062  0.73464311  1
  Gd3+  Gd2  1  -0.03769485  0.74804280  0.24980864  1
  Gd3+  Gd3  1  0.24350268  0.70187942  0.22933669  1
  Gd3+  Gd4  1  0.00150610  0.26839507  0.75978289  1
  Gd3+  Gd5  1  -0.02029869  0.26614192  0.49163869  1
  Gd3+  Gd6  1  0.23387434  0.71028983  0.00642916  1
  Gd3+  Gd7  1  0.57471687  0.75183900  0.02262992  1
  Gd3+  Gd8  1  0.23721420  0.27362657  0.77724968  1
  Gd3+  Gd9  1  0.75654764  0.73491585  0.73703806  1
  Gd3+  Gd10  1  0.03205153  0.29258606  0.00162312  1
  Gd3+  Gd11  1  0.27320756  0.24260242  -0.01170916  1
  Gd3+  Gd12  1  0.50903171  0.22062305  0.26373944  1
  Gd3+  Gd13  1  0.49913806  0.24314355  0.51267998  1
  Gd3+  Gd14  1  0.24010310  0.74471810  0.74450357  1
  Gd3+  Gd15  1  -0.01907268  0.76205638  0.72556905  1
  Gd3+  Gd16  1  0.48743202  0.23697736  0.78057627  1
  Gd3+  Gd17  1  0.23550972  0.28875699  0.21306230  1
  Gd3+  Gd18  1  0.26198534  0.76263374  0.48128997  1
  Ta5+  Ta19  1  0.84793812  0.87076635  0.36838311  1
  Ta5+  Ta20  1  0.89025833  0.10394190  0.90222520  1
  Ta5+  Ta21  1  0.63334128  0.10782052  0.13840356  1
  Ta5+  Ta22  1  0.90963578  0.62056060  0.86713332  1
  Ta5+  Ta23  1  0.85434671  0.87836184  0.86271781  1
  Ta5+  Ta24  1  0.11613579  0.44580870  0.86355926  1
  Ta5+  Ta25  1  0.64575603  0.10722354  0.40453091  1
  Ta5+  Ta26  1  0.86420640  0.86746217  0.58870586  1
  Ta5+  Ta27  1  0.65462697  0.62098489  0.38938916  1
  Ta5+  Ta28  1  0.11392147  0.88003698  0.60174001  1
  Ta5+  Ta29  1  0.40239002  0.87874270  0.67478975  1
  Ta5+  Ta30  1  0.58721665  0.37700119  0.14645378  1
  Ta5+  Ta31  1  0.08946706  0.87430938  0.12321796  1
  Ta5+  Ta32  1  0.81732109  0.61886192  0.35229648  1
  Ta5+  Ta33  1  0.12912925  0.10618698  0.88181356  1
  Ta5+  Ta34  1  0.07672106  0.64794907  0.87126427  1
  Ta5+  Ta35  1  0.41398712  0.63914371  0.87639092  1
  Ta5+  Ta36  1  0.65050450  0.60796331  0.87887670  1
  Ta5+  Ta37  1  0.86568516  0.38063886  0.87568689  1
  Ta5+  Ta38  1  0.87103475  0.38367828  0.12974360  1
  Ta5+  Ta39  1  0.84525436  0.37237151  0.34474213  1
  Ta5+  Ta40  1  0.13021778  0.14629490  0.37143699  1
  Ta5+  Ta41  1  0.38542583  0.85417699  0.13327641  1
  Ta5+  Ta42  1  0.37773488  0.87130496  0.91226815  1
  Ta5+  Ta43  1  0.69673405  0.87258101  0.14596499  1
  Ta5+  Ta44  1  0.85153353  0.62708325  0.10991306  1
  Ta5+  Ta45  1  0.37067172  0.86581458  0.32401657  1
  Ta5+  Ta46  1  0.41718673  0.36773670  0.12462933  1
  Ta5+  Ta47  1  0.07053393  0.63281193  0.11930869  1
  Ta5+  Ta48  1  0.60548753  0.87284949  0.64855702  1
  Ta5+  Ta49  1  0.34861807  0.11699101  0.63868813  1
  Ta5+  Ta50  1  0.11993248  0.62764423  0.60824303  1
  Ta5+  Ta51  1  0.61493118  0.36590007  0.89725874  1
  Ta5+  Ta52  1  0.43344793  0.61352765  0.12691850  1
  Ta5+  Ta53  1  0.14634611  0.48890907  0.09460301  1
  Ta5+  Ta54  1  0.11415336  0.63364565  0.37413032  1
  Ta5+  Ta55  1  0.10330737  0.86977298  0.87031181  1
  Ta5+  Ta56  1  0.14070095  0.38689608  0.61246960  1
  Ta5+  Ta57  1  0.38312847  0.61233546  0.36387041  1
  Ta5+  Ta58  1  0.09501589  0.12917495  0.62543775  1
  Ta5+  Ta59  1  0.36845200  0.40218928  0.88283232  1
  Ta5+  Ta60  1  0.36895177  0.36610888  0.37873830  1
  Ta5+  Ta61  1  0.67905859  0.61141646  0.14224740  1
  Ta5+  Ta62  1  0.37611376  0.63067759  0.62034527  1
  Ta5+  Ta63  1  0.81622912  0.38909164  0.56030025  1
  Ta5+  Ta64  1  0.63214487  0.37422137  0.38441502  1
  Ta5+  Ta65  1  0.88172248  0.61542104  0.59358100  1
  Ta5+  Ta66  1  0.13953231  0.39707426  0.41274022  1
  Ta5+  Ta67  1  0.68581827  0.86091919  0.39957656  1
  Ta5+  Ta68  1  0.87525282  0.11804727  0.35989639  1
  Ta5+  Ta69  1  0.11024489  0.12549751  0.11918132  1
  Ta5+  Ta70  1  0.60968898  0.61589157  0.63822902  1
  Ta5+  Ta71  1  0.64575930  0.11919580  0.62656887  1
  Ta5+  Ta72  1  0.85046696  0.11681514  0.59393376  1
  Ta5+  Ta73  1  0.86231244  0.88584407  0.11436317  1
  Ta5+  Ta74  1  0.36062254  0.06024920  0.87961115  1
  W6+  W75  1  0.58715976  0.38383151  0.62946948  1
  W6+  W76  1  0.86846128  0.13118387  0.13407896  1
  W6+  W77  1  0.37691721  0.10828171  0.12516616  1
  W6+  W78  1  0.37437777  0.10947491  0.37964395  1
  W6+  W79  1  0.36753648  0.38176079  0.63011552  1
  W6+  W80  1  0.69037804  0.87360210  0.88251733  1
  W6+  W81  1  0.63108486  0.11819866  0.88799765  1
  W6+  W82  1  0.11803311  0.89025222  0.36800498  1
  O2-  O83  1  0.09943483  0.00477184  0.13296203  1
  O2-  O84  1  0.10318545  0.02999981  0.36412148  1
  O2-  O85  1  0.09535545  0.00750911  0.61982164  1
  O2-  O86  1  0.13772641  -0.01279210  0.84620587  1
  O2-  O87  1  0.21132208  0.59979158  0.11230958  1
  O2-  O88  1  0.10347711  0.50067037  0.36293757  1
  O2-  O89  1  0.12523374  0.50716530  0.64275518  1
  O2-  O90  1  0.17678860  0.54996210  0.85829039  1
  O2-  O91  1  0.38225374  -0.02745248  0.11868292  1
  O2-  O92  1  0.34666118  -0.01916733  0.34672193  1
  O2-  O93  1  0.35062167  -0.01259365  0.64647951  1
  O2-  O94  1  0.45064782  -0.02674629  0.88401130  1
  O2-  O95  1  0.44658270  0.48972560  0.11834818  1
  O2-  O96  1  0.39363954  0.48483036  0.38295321  1
  O2-  O97  1  0.34570930  0.51620487  0.62072020  1
  O2-  O98  1  0.36229932  0.52899989  0.89020131  1
  O2-  O99  1  0.63468770  -0.01607173  0.14711325  1
  O2-  O100  1  0.65602240  -0.01544529  0.41455826  1
  O2-  O101  1  0.62810660  -0.00412353  0.63541967  1
  O2-  O102  1  0.66422763  0.00508499  0.87375070  1
  O2-  O103  1  0.63869763  0.49559007  0.15777719  1
  O2-  O104  1  0.62944095  0.50043253  0.37592860  1
  O2-  O105  1  0.55148031  0.51190329  0.66020860  1
  O2-  O106  1  0.65223491  0.48475721  0.87835743  1
  O2-  O107  1  0.89351692  0.00442041  0.12211657  1
  O2-  O108  1  0.87802322  -0.00419819  0.38125563  1
  O2-  O109  1  0.86367801  -0.00235317  0.60263352  1
  O2-  O110  1  0.85591007  0.00823240  0.83343328  1
  O2-  O111  1  0.81932182  0.49400639  0.12111320  1
  O2-  O112  1  0.81976116  0.49439977  0.33831232  1
  O2-  O113  1  0.87587087  0.48946314  0.60850557  1
  O2-  O114  1  0.84912014  0.49676589  0.86036766  1
  O2-  O115  1  0.15563757  0.25327640  0.08772480  1
  O2-  O116  1  0.08904968  0.28083103  0.38027371  1
  O2-  O117  1  0.07538461  0.27138644  0.62470032  1
  O2-  O118  1  0.11347651  0.23649278  0.89164687  1
  O2-  O119  1  0.14767122  0.75887913  0.12454860  1
  O2-  O120  1  0.15681004  0.75553203  0.37066951  1
  O2-  O121  1  0.16168874  0.75413663  0.59764410  1
  O2-  O122  1  0.17151857  0.75942986  0.87604359  1
  O2-  O123  1  0.34324039  0.24705036  0.11534521  1
  O2-  O124  1  0.42322028  0.24472160  0.38384806  1
  O2-  O125  1  0.40084224  0.23799183  0.65186737  1
  O2-  O126  1  0.36334709  0.26735896  0.86462595  1
  O2-  O127  1  0.34595481  0.72032882  0.11643204  1
  O2-  O128  1  0.33626620  0.73003267  0.34025292  1
  O2-  O129  1  0.34201363  0.77413773  0.62447965  1
  O2-  O130  1  0.34450388  0.74183874  0.90671310  1
  O2-  O131  1  0.61693726  0.25640845  0.16138780  1
  O2-  O132  1  0.60690597  0.24020740  0.40028277  1
  O2-  O133  1  0.62490499  0.24702428  0.61256551  1
  O2-  O134  1  0.57852882  0.23771882  0.89886431  1
  O2-  O135  1  0.67229521  0.74703006  0.13599331  1
  O2-  O136  1  0.61919307  0.74638935  0.38532399  1
  O2-  O137  1  0.61923634  0.74037118  0.67045912  1
  O2-  O138  1  0.68227955  0.73205178  0.87350662  1
  O2-  O139  1  0.83566937  0.26794447  0.13512400  1
  O2-  O140  1  0.88978375  0.25150392  0.37180080  1
  O2-  O141  1  0.85024600  0.27087338  0.58351808  1
  O2-  O142  1  0.90234943  0.22244861  0.86777907  1
  O2-  O143  1  0.87191383  0.75216530  0.11448844  1
  O2-  O144  1  0.86419321  0.74327768  0.36447416  1
  O2-  O145  1  0.83774873  0.73908984  0.59905768  1
  O2-  O146  1  0.87136792  0.74456119  0.85243190  1
  O2-  O147  1  0.16793676  0.10735227  0.00436064  1
  O2-  O148  1  0.13830682  0.16578776  0.23921952  1
  O2-  O149  1  0.09376232  0.15380291  0.49999560  1
  O2-  O150  1  0.10130461  0.14678343  0.75355419  1
  O2-  O151  1  0.08589676  0.66283892  -0.00548446  1
  O2-  O152  1  0.08512786  0.64577264  0.25133001  1
  O2-  O153  1  0.17004937  0.61964022  0.49208100  1
  O2-  O154  1  0.10479185  0.66574429  0.73443861  1
  O2-  O155  1  0.37087523  0.12243256  -0.01586276  1
  O2-  O156  1  0.37466813  0.14671753  0.25090244  1
  O2-  O157  1  0.38597713  0.11893948  0.52409966  1
  O2-  O158  1  0.39938402  0.10697361  0.76332823  1
  O2-  O159  1  0.45183765  0.63965092  0.00191739  1
  O2-  O160  1  0.36843105  0.59511279  0.23693267  1
  O2-  O161  1  0.36016312  0.64293308  0.49011588  1
  O2-  O162  1  0.37067717  0.65167789  0.75072237  1
  O2-  O163  1  0.64448421  0.12046674  0.02050589  1
  O2-  O164  1  0.59378430  0.10344307  0.29333206  1
  O2-  O165  1  0.57326668  0.11289524  0.51530158  1
  O2-  O166  1  0.60002226  0.13923836  0.74671753  1
  O2-  O167  1  0.64830851  0.61809914  0.00559187  1
  O2-  O168  1  0.70443859  0.63506129  0.26959906  1
  O2-  O169  1  0.65180833  0.61829341  0.52413775  1
  O2-  O170  1  0.68554585  0.60259180  0.74392609  1
  O2-  O171  1  0.83099111  0.11664546  0.00298511  1
  O2-  O172  1  0.93500128  0.12450984  0.25567034  1
  O2-  O173  1  0.91471051  0.13002858  0.48338587  1
  O2-  O174  1  0.96583531  0.14704758  0.64801720  1
  O2-  O175  1  0.88074893  0.61699611  -0.01235339  1
  O2-  O176  1  0.88254680  0.62294476  0.23718297  1
  O2-  O177  1  0.85161808  0.60931450  0.47487733  1
  O2-  O178  1  0.89095890  0.63360292  0.72738728  1
  O2-  O179  1  0.09828737  0.42706243  -0.01136716  1
  O2-  O180  1  0.19116547  0.42231868  0.18684666  1
  O2-  O181  1  0.05856832  0.39225763  0.51315312  1
  O2-  O182  1  0.11881150  0.37564537  0.75124020  1
  O2-  O183  1  0.09405738  0.87386541  -0.00624125  1
  O2-  O184  1  0.06572532  0.86056885  0.24691366  1
  O2-  O185  1  0.18369969  0.89530601  0.50098806  1
  O2-  O186  1  0.12784079  0.85329172  0.72878328  1
  O2-  O187  1  0.35690515  0.37360524  0.00632026  1
  O2-  O188  1  0.38021941  0.35416563  0.24764171  1
  O2-  O189  1  0.38006959  0.34750197  0.50053284  1
  O2-  O190  1  0.33690843  0.39653602  0.76120994  1
  O2-  O191  1  0.44592600  0.83580048  0.01529811  1
  O2-  O192  1  0.28749199  0.84618069  0.22388576  1
  O2-  O193  1  0.38495095  0.83929557  0.44645304  1
  O2-  O194  1  0.33512456  0.85582265  0.78261082  1
  O2-  O195  1  0.60867283  0.37628368  0.01876252  1
  O2-  O196  1  0.55853222  0.37043691  0.28181412  1
  O2-  O197  1  0.56306152  0.37989342  0.49065597  1
  O2-  O198  1  0.60436053  0.34189081  0.76420098  1
  O2-  O199  1  0.66529043  0.86583470  0.01696781  1
  O2-  O200  1  0.68954578  0.86559305  0.27405566  1
  O2-  O201  1  0.63312575  0.83845822  0.52917016  1
  O2-  O202  1  0.69107100  0.87004584  0.74072932  1
  O2-  O203  1  0.90063486  0.37055585  0.00452238  1
  O2-  O204  1  0.92143254  0.38409237  0.24576934  1
  O2-  O205  1  0.90219509  0.39273362  0.45949122  1
  O2-  O206  1  0.87161186  0.34480587  0.75323616  1
  O2-  O207  1  0.86659508  0.88172685  -0.01791341  1
  O2-  O208  1  0.87371593  0.87173960  0.24512140  1
  O2-  O209  1  0.78955368  0.87295594  0.49179510  1
  O2-  O210  1  0.86428516  0.85610410  0.71994311  1
  O2-  O211  1  -0.01225091  -0.12792077  -0.16037414  1
  O2-  O212  1  0.00033959  0.16657064  0.08668502  1
  O2-  O213  1  -0.00609585  -0.14930895  0.59762857  1
  O2-  O214  1  0.00918862  0.08390959  0.91756698  1
  O2-  O215  1  0.01606724  0.53325192  -0.15627447  1
  O2-  O216  1  0.02916949  0.50524423  0.13161950  1
  O2-  O217  1  0.00060571  0.65120768  0.58689149  1
  O2-  O218  1  -0.00228276  0.36802893  0.87031917  1
  O2-  O219  1  0.29134049  -0.03817148  -0.07741002  1
  O2-  O220  1  0.24380804  0.15547119  0.39266834  1
  O2-  O221  1  0.22956202  0.13386975  0.63557812  1
  O2-  O222  1  0.25125518  0.13170358  0.84990069  1
  O2-  O223  1  0.22694149  0.37450393  -0.11006842  1
  O2-  O224  1  0.24660206  0.35248421  0.35436929  1
  O2-  O225  1  0.21298406  0.42216108  0.50883636  1
  O2-  O226  1  0.24141537  0.32048616  0.63898818  1
  O2-  O227  1  0.50796960  0.12726533  0.14350849  1
  O2-  O228  1  0.45808191  -0.16504468  0.23542554  1
  O2-  O229  1  0.48505627  -0.12569236  0.58117383  1
  O2-  O230  1  0.50812694  -0.12316840  0.73842920  1
  O2-  O231  1  0.48998756  0.39677446  -0.11907219  1
  O2-  O232  1  0.54254112  0.65064090  0.15597405  1
  O2-  O233  1  0.49343090  0.66582634  0.59658081  1
  O2-  O234  1  0.53136745  0.62728224  0.84397220  1
  O2-  O235  1  0.74809187  0.12037875  0.17845788  1
  O2-  O236  1  0.75644274  0.13425498  0.35761289  1
  O2-  O237  1  0.73765985  0.11885326  0.52884082  1
  O2-  O238  1  0.76576775  0.14167792  0.68837124  1
  O2-  O239  1  0.74601229  0.33512822  -0.11867638  1
  O2-  O240  1  0.73341138  0.33861855  0.30821885  1
  O2-  O241  1  0.73817187  0.38402502  0.46591556  1
  O2-  O242  1  0.72665464  0.39828680  0.64523247  1
