# generated using pymatgen
data_Gd19Ta56(WO20)8
_symmetry_space_group_name_H-M   'P 1'
_cell_length_a   15.47797171
_cell_length_b   15.44247166
_cell_length_c   15.30020268
_cell_angle_alpha   90.20972554
_cell_angle_beta   90.03611043
_cell_angle_gamma   90.20493918
_symmetry_Int_Tables_number   1
_chemical_formula_structural   Gd19Ta56(WO20)8
_chemical_formula_sum   'Gd19 Ta56 W8 O160'
_cell_volume   3656.97732998
_cell_formula_units_Z   1
loop_
 _symmetry_equiv_pos_site_id
 _symmetry_equiv_pos_as_xyz
  1  'x, y, z'
loop_
 _atom_type_symbol
 _atom_type_oxidation_number
  Gd3+  3.0
  Ta5+  5.0
  W6+  6.0
  O2-  -2.0
loop_
 _atom_site_type_symbol
 _atom_site_label
 _atom_site_symmetry_multiplicity
 _atom_site_fract_x
 _atom_site_fract_y
 _atom_site_fract_z
 _atom_site_occupancy
  Gd3+  Gd0  1  0.00271026  0.75039907  0.22225001  1
  Gd3+  Gd1  1  0.51187793  0.26710929  -0.00365717  1
  Gd3+  Gd2  1  0.75365609  0.26213492  0.02525064  1
  Gd3+  Gd3  1  0.51021898  0.25943870  0.23408567  1
  Gd3+  Gd4  1  -0.00241450  0.23933194  0.51146069  1
  Gd3+  Gd5  1  0.24235702  0.25473993  0.24435793  1
  Gd3+  Gd6  1  0.75050078  0.74828192  0.50501714  1
  Gd3+  Gd7  1  0.73161446  0.73136765  0.75177455  1
  Gd3+  Gd8  1  -0.00309289  0.25284552  0.02156916  1
  Gd3+  Gd9  1  0.24936692  0.24922181  0.48881983  1
  Gd3+  Gd10  1  0.75473502  0.24772028  0.51011833  1
  Gd3+  Gd11  1  0.70748905  0.74058072  0.26721465  1
  Gd3+  Gd12  1  0.22399985  0.75442529  0.51422936  1
  Gd3+  Gd13  1  0.45458829  0.23709442  0.77134051  1
  Gd3+  Gd14  1  0.01408352  0.71927344  0.75293932  1
  Gd3+  Gd15  1  0.27047296  0.22992196  -0.00372559  1
  Gd3+  Gd16  1  0.49394543  0.73756110  0.75879781  1
  Gd3+  Gd17  1  0.25996893  0.75830545  0.25930842  1
  Gd3+  Gd18  1  -0.00250392  0.75393585  -0.02267848  1
  Ta5+  Ta19  1  0.15709382  0.10657083  0.85613406  1
  Ta5+  Ta20  1  0.58597878  0.57155457  0.37143488  1
  Ta5+  Ta21  1  0.15391535  0.36633385  0.86269946  1
  Ta5+  Ta22  1  0.62677499  0.88913706  0.64203298  1
  Ta5+  Ta23  1  0.39263545  0.86603426  0.39921642  1
  Ta5+  Ta24  1  0.64026698  0.86088978  0.90475910  1
  Ta5+  Ta25  1  0.13171850  0.86285710  0.10250100  1
  Ta5+  Ta26  1  0.42489991  0.09656323  0.37601725  1
  Ta5+  Ta27  1  0.35444442  0.39784417  0.86842438  1
  Ta5+  Ta28  1  0.83274052  0.62270831  0.08129415  1
  Ta5+  Ta29  1  0.85589413  0.59726845  0.64607634  1
  Ta5+  Ta30  1  0.65552911  0.42735018  0.62715644  1
  Ta5+  Ta31  1  0.37334839  0.86856563  0.89373338  1
  Ta5+  Ta32  1  0.85535552  0.13309557  0.86710080  1
  Ta5+  Ta33  1  0.63029410  0.40156078  0.13719662  1
  Ta5+  Ta34  1  0.17028095  0.61025708  0.85763212  1
  Ta5+  Ta35  1  0.14294779  0.91567335  0.85335245  1
  Ta5+  Ta36  1  0.11501863  0.10976278  0.36339626  1
  Ta5+  Ta37  1  0.89314078  0.85795399  0.63505864  1
  Ta5+  Ta38  1  0.38119791  0.87469755  0.63995113  1
  Ta5+  Ta39  1  0.10774888  0.87355242  0.36937285  1
  Ta5+  Ta40  1  0.86808370  0.86571761  0.11739985  1
  Ta5+  Ta41  1  0.88235646  0.10735995  0.63654637  1
  Ta5+  Ta42  1  0.84420246  0.54984585  0.88992011  1
  Ta5+  Ta43  1  0.61975728  0.91996083  0.38857858  1
  Ta5+  Ta44  1  0.38309241  0.39495237  0.11322443  1
  Ta5+  Ta45  1  0.36842585  0.62843265  0.63220340  1
  Ta5+  Ta46  1  0.38792050  0.64300237  0.13243895  1
  Ta5+  Ta47  1  0.08615883  0.59959357  0.59921034  1
  Ta5+  Ta48  1  0.63101797  0.11654329  0.13673453  1
  Ta5+  Ta49  1  0.17034901  0.62519693  0.11219000  1
  Ta5+  Ta50  1  0.06145614  0.86457785  0.62029594  1
  Ta5+  Ta51  1  0.40967926  0.87212904  0.14131978  1
  Ta5+  Ta52  1  0.63757752  0.62955388  0.91792337  1
  Ta5+  Ta53  1  0.60034778  0.12708346  0.39402483  1
  Ta5+  Ta54  1  0.13177331  0.10907896  0.11496907  1
  Ta5+  Ta55  1  0.87500889  0.10925343  0.37413459  1
  Ta5+  Ta56  1  0.33580296  0.64448868  0.88896251  1
  Ta5+  Ta57  1  0.86313261  0.89442754  0.86709086  1
  Ta5+  Ta58  1  0.41323138  0.38344366  0.61780844  1
  Ta5+  Ta59  1  0.90051072  0.39990010  0.62357076  1
  Ta5+  Ta60  1  0.63438476  0.13043284  0.63711946  1
  Ta5+  Ta61  1  0.57807284  0.87202298  0.13866422  1
  Ta5+  Ta62  1  0.90959300  0.61824093  0.41057180  1
  Ta5+  Ta63  1  0.15883752  0.36754936  0.63087045  1
  Ta5+  Ta64  1  0.13073442  0.38132531  0.11012558  1
  Ta5+  Ta65  1  0.38121850  0.41606383  0.36971483  1
  Ta5+  Ta66  1  0.12672046  0.10642514  0.62034118  1
  Ta5+  Ta67  1  0.11319056  0.61759147  0.37755608  1
  Ta5+  Ta68  1  0.88208646  0.38951619  0.13711224  1
  Ta5+  Ta69  1  0.55623441  0.64382277  0.13857396  1
  Ta5+  Ta70  1  0.64554301  0.40161233  0.87063753  1
  Ta5+  Ta71  1  0.09557141  0.37340595  0.36968547  1
  Ta5+  Ta72  1  0.87510512  0.11596567  0.13154125  1
  Ta5+  Ta73  1  0.38165708  0.62222248  0.39076728  1
  Ta5+  Ta74  1  0.62686143  0.09425617  0.86031573  1
  W6+  W75  1  0.86020149  0.85547198  0.37189233  1
  W6+  W76  1  0.64099319  0.38816106  0.39328289  1
  W6+  W77  1  0.37308811  0.12368130  0.61847973  1
  W6+  W78  1  0.93026477  0.37889282  0.38345635  1
  W6+  W79  1  0.88890250  0.36498317  0.86768646  1
  W6+  W80  1  0.38533877  0.11240427  0.11517748  1
  W6+  W81  1  0.58376840  0.62813807  0.55231727  1
  W6+  W82  1  0.31236128  0.04762476  0.86068507  1
  O2-  O83  1  0.13503389  -0.01186395  0.12685006  1
  O2-  O84  1  0.14950014  -0.00973577  0.35756702  1
  O2-  O85  1  0.09861776  -0.01007144  0.62664824  1
  O2-  O86  1  0.06868044  0.01030634  0.86886581  1
  O2-  O87  1  0.14784520  0.50199150  0.11937273  1
  O2-  O88  1  0.11158775  0.49711629  0.35685376  1
  O2-  O89  1  0.12230572  0.48030787  0.60886208  1
  O2-  O90  1  0.14753289  0.49141932  0.85975566  1
  O2-  O91  1  0.39157088  -0.00700889  0.15648715  1
  O2-  O92  1  0.36014873  -0.01699281  0.40182631  1
  O2-  O93  1  0.35927752  -0.01005857  0.63218596  1
  O2-  O94  1  0.42992356  -0.03544999  0.85230173  1
  O2-  O95  1  0.38208935  0.51033697  0.14440445  1
  O2-  O96  1  0.30930796  0.51362698  0.38706191  1
  O2-  O97  1  0.38962163  0.50677708  0.62561128  1
  O2-  O98  1  0.34335552  0.51968316  0.87130199  1
  O2-  O99  1  0.62151107  -0.00483972  0.12688884  1
  O2-  O100  1  0.68427589  0.02472411  0.38239714  1
  O2-  O101  1  0.64499058  0.00237414  0.68548856  1
  O2-  O102  1  0.59709403  -0.01661363  0.88714268  1
  O2-  O103  1  0.59858651  0.51750723  0.13276811  1
  O2-  O104  1  0.68017330  0.50580850  0.33525272  1
  O2-  O105  1  0.64726591  0.54627911  0.64116307  1
  O2-  O106  1  0.59389644  0.50796523  0.88939174  1
  O2-  O107  1  0.87248601  -0.00745324  0.12720610  1
  O2-  O108  1  0.86846463  -0.00892676  0.37747820  1
  O2-  O109  1  0.88996620  -0.01042273  0.64651622  1
  O2-  O110  1  0.89692538  0.00951524  0.85556283  1
  O2-  O111  1  0.88477612  0.51509890  0.11141772  1
  O2-  O112  1  0.89030926  0.51099297  0.36978701  1
  O2-  O113  1  0.80120233  0.47389926  0.63256544  1
  O2-  O114  1  0.94549291  0.48985001  0.88345426  1
  O2-  O115  1  0.13179989  0.24884192  0.09600941  1
  O2-  O116  1  0.13995629  0.23936672  0.37634813  1
  O2-  O117  1  0.12838149  0.25100009  0.59346325  1
  O2-  O118  1  0.16680712  0.23531999  0.88097410  1
  O2-  O119  1  0.09566699  0.73254021  0.09966101  1
  O2-  O120  1  0.14832053  0.74633364  0.38254866  1
  O2-  O121  1  0.06675624  0.73079529  0.60566271  1
  O2-  O122  1  0.08959776  0.70324849  0.87551339  1
  O2-  O123  1  0.38906931  0.25364189  0.09345294  1
  O2-  O124  1  0.29339953  0.32550616  0.36847876  1
  O2-  O125  1  0.41897483  0.25730264  0.62708751  1
  O2-  O126  1  0.39072657  0.27356067  0.89782046  1
  O2-  O127  1  0.34102450  0.76257677  0.13386393  1
  O2-  O128  1  0.32704638  0.74987140  0.39378809  1
  O2-  O129  1  0.43201144  0.73993924  0.62241703  1
  O2-  O130  1  0.42577886  0.75057812  0.88503477  1
  O2-  O131  1  0.63884702  0.25147242  0.12538576  1
  O2-  O132  1  0.63294484  0.24601296  0.41049155  1
  O2-  O133  1  0.65146055  0.25002717  0.62104722  1
  O2-  O134  1  0.56682102  0.30647455  0.85779833  1
  O2-  O135  1  0.62189022  0.75482736  0.14404476  1
  O2-  O136  1  0.72005196  0.83843454  0.38831411  1
  O2-  O137  1  0.65141545  0.75616454  0.62135049  1
  O2-  O138  1  0.70326681  0.74434716  0.90423858  1
  O2-  O139  1  0.87225013  0.24828821  0.12505871  1
  O2-  O140  1  0.88702578  0.24340810  0.40339856  1
  O2-  O141  1  0.86968823  0.27766823  0.59882429  1
  O2-  O142  1  0.80024597  0.24731495  0.88129034  1
  O2-  O143  1  0.90291387  0.73034822  0.10692642  1
  O2-  O144  1  0.83855601  0.71511522  0.37022359  1
  O2-  O145  1  0.86831436  0.72535150  0.66025107  1
  O2-  O146  1  0.93345837  0.79264322  0.84868916  1
  O2-  O147  1  0.14588957  0.10989519  -0.00954496  1
  O2-  O148  1  0.14171073  0.13923530  0.24282952  1
  O2-  O149  1  0.09783271  0.11713183  0.48812236  1
  O2-  O150  1  0.13169086  0.14213425  0.73796232  1
  O2-  O151  1  0.18805431  0.62013551  -0.01054769  1
  O2-  O152  1  0.16117550  0.64148396  0.24504944  1
  O2-  O153  1  0.16591284  0.61831568  0.50016886  1
  O2-  O154  1  0.12417887  0.61684508  0.72303760  1
  O2-  O155  1  0.35316121  0.10835524  -0.01779048  1
  O2-  O156  1  0.40649349  0.15116596  0.26420751  1
  O2-  O157  1  0.37636776  0.15700622  0.47192509  1
  O2-  O158  1  0.36200692  0.12988963  0.75610660  1
  O2-  O159  1  0.36507947  0.63929433  0.00797411  1
  O2-  O160  1  0.36726686  0.64806826  0.26903739  1
  O2-  O161  1  0.32958632  0.64154076  0.51157755  1
  O2-  O162  1  0.36213816  0.64801948  0.75502401  1
  O2-  O163  1  0.62883729  0.16273784  -0.03915329  1
  O2-  O164  1  0.61038837  0.13524962  0.25743498  1
  O2-  O165  1  0.59428871  0.10421365  0.52577022  1
  O2-  O166  1  0.57390953  0.14335920  0.75676810  1
  O2-  O167  1  0.56234762  0.65420477  0.00581169  1
  O2-  O168  1  0.58282036  0.64924792  0.26816659  1
  O2-  O169  1  0.66084520  0.65777053  0.43616881  1
  O2-  O170  1  0.60807024  0.65526558  0.79804392  1
  O2-  O171  1  0.89275208  0.13939380  -0.01189439  1
  O2-  O172  1  0.84373595  0.12475921  0.25165926  1
  O2-  O173  1  0.87169562  0.11902508  0.50713945  1
  O2-  O174  1  0.89746105  0.15902877  0.75463984  1
  O2-  O175  1  0.89613395  0.64195094  -0.03887030  1
  O2-  O176  1  0.76887961  0.64239672  0.18087904  1
  O2-  O177  1  0.83748333  0.62049242  0.51987447  1
  O2-  O178  1  0.82051769  0.59732317  0.77511666  1
  O2-  O179  1  0.09325012  0.36951776  -0.01706072  1
  O2-  O180  1  0.13556513  0.35492716  0.24421356  1
  O2-  O181  1  0.14661850  0.36839519  0.48327852  1
  O2-  O182  1  0.10587873  0.35262644  0.74200097  1
  O2-  O183  1  0.10720399  0.86723292  -0.02503428  1
  O2-  O184  1  0.13039680  0.84057619  0.23534895  1
  O2-  O185  1  0.09909219  0.86837862  0.49431891  1
  O2-  O186  1  0.09399324  0.85135768  0.75489112  1
  O2-  O187  1  0.41534225  0.40817121  -0.00701588  1
  O2-  O188  1  0.40490379  0.36478198  0.25056485  1
  O2-  O189  1  0.41609513  0.38619892  0.48475702  1
  O2-  O190  1  0.41996638  0.38235921  0.75307527  1
  O2-  O191  1  0.40124726  0.87395680  0.01345307  1
  O2-  O192  1  0.39492151  0.85369593  0.27576759  1
  O2-  O193  1  0.33642537  0.85073215  0.52265093  1
  O2-  O194  1  0.35352125  0.83953070  0.75426774  1
  O2-  O195  1  0.64032655  0.36670017  -0.00066012  1
  O2-  O196  1  0.61011883  0.36847375  0.25616756  1
  O2-  O197  1  0.70723082  0.38449464  0.51928073  1
  O2-  O198  1  0.67667631  0.39385618  0.74614119  1
  O2-  O199  1  0.58166157  0.84976599  0.00852677  1
  O2-  O200  1  0.60582110  0.88016815  0.27029667  1
  O2-  O201  1  0.64357214  0.90864270  0.52226756  1
  O2-  O202  1  0.61827546  0.83628883  0.77456976  1
  O2-  O203  1  0.88033333  0.35285617  0.00520416  1
  O2-  O204  1  0.88252190  0.37834767  0.25474032  1
  O2-  O205  1  0.97239803  0.38995445  0.52180295  1
  O2-  O206  1  0.92573060  0.37709685  0.73662610  1
  O2-  O207  1  0.90089442  0.87131963  -0.00808760  1
  O2-  O208  1  0.82856433  0.83717443  0.23362573  1
  O2-  O209  1  0.86833428  0.84379429  0.51303657  1
  O2-  O210  1  0.81075796  0.86408314  0.75276544  1
  O2-  O211  1  0.00356566  0.12771989  0.12041201  1
  O2-  O212  1  -0.00533784  0.11193838  0.34475392  1
  O2-  O213  1  -0.00797727  -0.15806918  0.34109608  1
  O2-  O214  1  0.00015639  0.14372337  0.62084770  1
  O2-  O215  1  0.00700628  0.37265406  0.12578883  1
  O2-  O216  1  0.00167903  0.64618146  0.31905421  1
  O2-  O217  1  0.01427773  0.60536858  0.47961753  1
  O2-  O218  1  -0.03670275  0.53753492  0.63645396  1
  O2-  O219  1  0.25924872  -0.08366280  -0.08500042  1
  O2-  O220  1  0.25712808  0.14377935  0.13102788  1
  O2-  O221  1  0.24287369  0.12383304  0.58067848  1
  O2-  O222  1  0.21019942  -0.00336970  0.77875454  1
  O2-  O223  1  0.25501212  0.37331827  -0.05041103  1
  O2-  O224  1  0.26153677  0.35986229  0.12890261  1
  O2-  O225  1  0.27960454  0.35861579  0.60343872  1
  O2-  O226  1  0.25940392  0.37047124  0.78871663  1
  O2-  O227  1  0.51678203  0.13933408  0.09392542  1
  O2-  O228  1  0.52316790  0.01561944  0.36849285  1
  O2-  O229  1  0.50954809  -0.14227584  0.42760056  1
  O2-  O230  1  0.50588165  -0.11448980  0.64518444  1
  O2-  O231  1  0.50991692  0.35847140  0.11821694  1
  O2-  O232  1  0.46673644  0.51756470  0.34397097  1
  O2-  O233  1  0.49192230  0.65793294  0.43748274  1
  O2-  O234  1  0.53878278  0.39610160  0.62115229  1
  O2-  O235  1  0.75105479  -0.08845594  -0.08072460  1
  O2-  O236  1  0.75065103  0.12264172  0.09061940  1
  O2-  O237  1  0.75778651  0.12291172  0.63521038  1
  O2-  O238  1  0.74318843  0.08526706  0.83320361  1
  O2-  O239  1  0.74501213  0.58604869  -0.01303897  1
  O2-  O240  1  0.75314772  0.39262234  0.12629907  1
  O2-  O241  1  0.57786091  0.50420489  0.48118529  1
  O2-  O242  1  0.76683695  0.44347290  0.89058366  1
