# generated using pymatgen
data_Gd19Ta56(WO20)8
_symmetry_space_group_name_H-M   'P 1'
_cell_length_a   15.52135429
_cell_length_b   15.44074665
_cell_length_c   15.24089376
_cell_angle_alpha   90.06734208
_cell_angle_beta   89.91025950
_cell_angle_gamma   89.81405177
_symmetry_Int_Tables_number   1
_chemical_formula_structural   Gd19Ta56(WO20)8
_chemical_formula_sum   'Gd19 Ta56 W8 O160'
_cell_volume   3652.62613995
_cell_formula_units_Z   1
loop_
 _symmetry_equiv_pos_site_id
 _symmetry_equiv_pos_as_xyz
  1  'x, y, z'
loop_
 _atom_type_symbol
 _atom_type_oxidation_number
  Gd3+  3.0
  Ta5+  5.0
  W6+  6.0
  O2-  -2.0
loop_
 _atom_site_type_symbol
 _atom_site_label
 _atom_site_symmetry_multiplicity
 _atom_site_fract_x
 _atom_site_fract_y
 _atom_site_fract_z
 _atom_site_occupancy
  Gd3+  Gd0  1  0.28752336  0.26391535  0.22920897  1
  Gd3+  Gd1  1  0.73474826  0.74591362  0.74547510  1
  Gd3+  Gd2  1  0.03529102  0.73483219  0.54059258  1
  Gd3+  Gd3  1  0.51718189  0.75219344  -0.01476462  1
  Gd3+  Gd4  1  0.27722855  0.20071005  -0.01467981  1
  Gd3+  Gd5  1  -0.02410387  0.24496148  0.51988355  1
  Gd3+  Gd6  1  0.00575003  0.25819605  0.26749447  1
  Gd3+  Gd7  1  0.47133956  0.75418650  0.75420458  1
  Gd3+  Gd8  1  0.72286826  0.24658928  0.22849767  1
  Gd3+  Gd9  1  0.30511100  0.21721860  0.73533995  1
  Gd3+  Gd10  1  0.24441048  0.74626877  -0.00284408  1
  Gd3+  Gd11  1  0.51218480  0.25607399  -0.02317480  1
  Gd3+  Gd12  1  0.75990854  0.74813573  -0.00147724  1
  Gd3+  Gd13  1  0.76858566  0.75211684  0.25254313  1
  Gd3+  Gd14  1  0.23274089  0.73750784  0.26842629  1
  Gd3+  Gd15  1  0.75125995  0.24689185  0.76923027  1
  Gd3+  Gd16  1  0.49036495  0.24640140  0.52480371  1
  Gd3+  Gd17  1  0.23218955  0.74926863  0.75407174  1
  Gd3+  Gd18  1  0.74059716  0.76579968  0.49678958  1
  Ta5+  Ta19  1  0.85580331  0.12453442  0.10661778  1
  Ta5+  Ta20  1  0.83668925  0.12268176  0.62648922  1
  Ta5+  Ta21  1  0.42541369  0.37828876  0.12252416  1
  Ta5+  Ta22  1  0.82325299  0.37792246  0.60439507  1
  Ta5+  Ta23  1  0.60900074  0.62150838  0.60636821  1
  Ta5+  Ta24  1  0.10170795  0.88861979  0.65452039  1
  Ta5+  Ta25  1  0.61358329  0.62474092  0.13860341  1
  Ta5+  Ta26  1  0.08437006  0.13240058  0.87806127  1
  Ta5+  Ta27  1  0.15559766  0.37097285  0.42539485  1
  Ta5+  Ta28  1  0.39368170  0.62268327  0.15345481  1
  Ta5+  Ta29  1  0.59244083  0.37933159  0.12430235  1
  Ta5+  Ta30  1  0.92932818  0.64346055  0.37549292  1
  Ta5+  Ta31  1  0.61188740  0.88238916  0.36268680  1
  Ta5+  Ta32  1  0.65508361  0.12841268  0.37913320  1
  Ta5+  Ta33  1  0.90600071  0.87949276  0.88139377  1
  Ta5+  Ta34  1  0.38067488  0.38055812  0.86310051  1
  Ta5+  Ta35  1  0.06278777  0.88153573  0.38374734  1
  Ta5+  Ta36  1  0.62343700  0.38400000  0.86090404  1
  Ta5+  Ta37  1  0.89436317  0.88078337  0.11879203  1
  Ta5+  Ta38  1  0.91422186  0.13063651  0.86775761  1
  Ta5+  Ta39  1  0.40949303  0.06578895  0.62121760  1
  Ta5+  Ta40  1  0.38604866  0.62677709  0.38862036  1
  Ta5+  Ta41  1  0.85955560  0.88154395  0.63743654  1
  Ta5+  Ta42  1  0.88377327  0.61854588  0.63322597  1
  Ta5+  Ta43  1  0.32182636  0.41693144  0.61508824  1
  Ta5+  Ta44  1  0.12918252  0.57510884  0.64499434  1
  Ta5+  Ta45  1  0.36994956  0.89544776  0.89653324  1
  Ta5+  Ta46  1  0.88394922  0.38231336  0.11479756  1
  Ta5+  Ta47  1  0.61978035  0.87892782  0.12297464  1
  Ta5+  Ta48  1  0.36673941  0.61405360  0.63203013  1
  Ta5+  Ta49  1  0.89653559  0.61969122  0.12536133  1
  Ta5+  Ta50  1  0.10484429  0.88563969  0.89074094  1
  Ta5+  Ta51  1  0.86158556  0.10266328  0.40798359  1
  Ta5+  Ta52  1  0.60573792  0.89418248  0.61851397  1
  Ta5+  Ta53  1  0.37030038  0.87989241  0.37127176  1
  Ta5+  Ta54  1  0.42035838  0.12528156  0.13208327  1
  Ta5+  Ta55  1  0.60285817  0.91284807  0.86840927  1
  Ta5+  Ta56  1  0.64414354  0.38510172  0.37996939  1
  Ta5+  Ta57  1  0.11501899  0.35684214  0.07329612  1
  Ta5+  Ta58  1  0.84940772  0.41465291  0.38477157  1
  Ta5+  Ta59  1  0.14547638  0.35182455  0.87755762  1
  Ta5+  Ta60  1  0.66979588  0.13025800  0.60524341  1
  Ta5+  Ta61  1  0.09145292  0.59701239  0.88453794  1
  Ta5+  Ta62  1  0.89346482  0.62362955  0.88050774  1
  Ta5+  Ta63  1  0.60375066  0.62504253  0.35323057  1
  Ta5+  Ta64  1  0.14662243  0.11928369  0.38718791  1
  Ta5+  Ta65  1  0.35588949  0.11984224  0.38303923  1
  Ta5+  Ta66  1  0.60967157  0.11687647  0.85996596  1
  Ta5+  Ta67  1  0.38671717  0.37741069  0.38155741  1
  Ta5+  Ta68  1  0.14098411  0.12067985  0.13722033  1
  Ta5+  Ta69  1  0.43973661  0.09932677  0.86881381  1
  Ta5+  Ta70  1  0.59224115  0.12543869  0.12191047  1
  Ta5+  Ta71  1  0.37845676  0.87839974  0.14779678  1
  Ta5+  Ta72  1  0.12254875  0.13202127  0.63086037  1
  Ta5+  Ta73  1  0.16203302  0.34971354  0.63336594  1
  Ta5+  Ta74  1  0.65782593  0.37778620  0.60300347  1
  W6+  W75  1  0.13880332  0.87183925  0.13754754  1
  W6+  W76  1  0.35334686  0.88159425  0.62728886  1
  W6+  W77  1  0.36324451  0.61070448  0.89808141  1
  W6+  W78  1  0.08897625  0.60696216  0.38209245  1
  W6+  W79  1  0.88305082  0.37944263  0.85922302  1
  W6+  W80  1  0.90018248  0.87537705  0.37625252  1
  W6+  W81  1  0.63201772  0.61376467  0.86835192  1
  W6+  W82  1  0.14589575  0.60343271  0.12582832  1
  O2-  O83  1  0.12129929  0.00571176  0.13655028  1
  O2-  O84  1  0.10532704  0.00425463  0.37875202  1
  O2-  O85  1  0.10896276  0.00660739  0.62574083  1
  O2-  O86  1  0.10447387  0.01379938  0.88097295  1
  O2-  O87  1  0.12989379  0.46813025  0.10712452  1
  O2-  O88  1  0.10802788  0.46731292  0.37961820  1
  O2-  O89  1  0.09395588  0.46327250  0.65065269  1
  O2-  O90  1  0.11861389  0.47722581  0.86994494  1
  O2-  O91  1  0.40207671  -0.00160003  0.14179365  1
  O2-  O92  1  0.38166357  0.00449460  0.34954579  1
  O2-  O93  1  0.47788235  -0.04160298  0.61776333  1
  O2-  O94  1  0.33559117  0.00923756  0.90053826  1
  O2-  O95  1  0.41058281  0.49969751  0.14328668  1
  O2-  O96  1  0.40259264  0.49864637  0.38377398  1
  O2-  O97  1  0.41723355  0.50226498  0.63588543  1
  O2-  O98  1  0.32233351  0.48340450  0.87334841  1
  O2-  O99  1  0.60744507  -0.00258062  0.12088811  1
  O2-  O100  1  0.63459142  0.00231472  0.37245387  1
  O2-  O101  1  0.63341276  0.00944805  0.60009683  1
  O2-  O102  1  0.68307332  -0.00002841  0.87508460  1
  O2-  O103  1  0.62221982  0.50526836  0.12896195  1
  O2-  O104  1  0.59470347  0.50834889  0.37688507  1
  O2-  O105  1  0.61531537  0.50066029  0.59526369  1
  O2-  O106  1  0.67840405  0.48822117  0.87094373  1
  O2-  O107  1  0.88575887  0.00648677  0.11811553  1
  O2-  O108  1  0.91757467  0.01147619  0.35758021  1
  O2-  O109  1  0.86940584  -0.00217607  0.64895465  1
  O2-  O110  1  0.89386722  0.00808420  0.87100314  1
  O2-  O111  1  0.86218008  0.50035864  0.15335347  1
  O2-  O112  1  0.90807511  0.51981493  0.37545429  1
  O2-  O113  1  0.83774124  0.51082701  0.60936089  1
  O2-  O114  1  0.86797511  0.50791292  0.85217853  1
  O2-  O115  1  0.15252812  0.26808846  0.15855125  1
  O2-  O116  1  0.11661378  0.25972629  0.37317743  1
  O2-  O117  1  0.20861430  0.22501480  0.61438054  1
  O2-  O118  1  0.18113278  0.22330099  0.87365333  1
  O2-  O119  1  0.18074374  0.73924068  0.12861512  1
  O2-  O120  1  0.02287423  0.74592267  0.38773871  1
  O2-  O121  1  0.14187928  0.76601046  0.64181445  1
  O2-  O122  1  0.14863252  0.76138820  0.87890317  1
  O2-  O123  1  0.37518748  0.25468565  0.10689739  1
  O2-  O124  1  0.40027766  0.24177783  0.40164326  1
  O2-  O125  1  0.40755382  0.19664138  0.63203842  1
  O2-  O126  1  0.37275930  0.24046652  0.86981592  1
  O2-  O127  1  0.36305873  0.74930148  0.16959878  1
  O2-  O128  1  0.34693390  0.75097378  0.36834988  1
  O2-  O129  1  0.33894654  0.74569108  0.64127935  1
  O2-  O130  1  0.39602606  0.75074699  0.89824603  1
  O2-  O131  1  0.61779159  0.25372899  0.11772883  1
  O2-  O132  1  0.68145800  0.26098236  0.37780715  1
  O2-  O133  1  0.63567093  0.25398115  0.59545199  1
  O2-  O134  1  0.63759288  0.25011923  0.87052602  1
  O2-  O135  1  0.66577063  0.75047818  0.13511561  1
  O2-  O136  1  0.65293646  0.75658638  0.35858958  1
  O2-  O137  1  0.63159905  0.75424630  0.62115744  1
  O2-  O138  1  0.58465285  0.74848608  0.85167361  1
  O2-  O139  1  0.81767905  0.28029693  0.12082498  1
  O2-  O140  1  0.92905064  0.20378166  0.38365694  1
  O2-  O141  1  0.84041692  0.24858191  0.58771881  1
  O2-  O142  1  0.85371051  0.25167465  0.87349272  1
  O2-  O143  1  0.85330569  0.74792981  0.11915320  1
  O2-  O144  1  0.83802063  0.74392181  0.38470028  1
  O2-  O145  1  0.82178102  0.73141654  0.61790393  1
  O2-  O146  1  0.88784718  0.75614237  0.90888730  1
  O2-  O147  1  0.11140664  0.14822096  0.01792986  1
  O2-  O148  1  0.09347257  0.13620608  0.25708469  1
  O2-  O149  1  0.09272525  0.14750174  0.50010887  1
  O2-  O150  1  0.08650721  0.14654536  0.74667193  1
  O2-  O151  1  0.16037344  0.62299957  -0.01547963  1
  O2-  O152  1  0.13843220  0.62563368  0.25816820  1
  O2-  O153  1  0.12382609  0.61496410  0.52558813  1
  O2-  O154  1  0.15752832  0.61925663  0.76203737  1
  O2-  O155  1  0.41074637  0.13102477  -0.00294790  1
  O2-  O156  1  0.39903438  0.15339401  0.25493715  1
  O2-  O157  1  0.41757481  0.09753773  0.49511934  1
  O2-  O158  1  0.38742702  0.09038683  0.75232311  1
  O2-  O159  1  0.33641947  0.62683909  0.04288829  1
  O2-  O160  1  0.33310135  0.61284772  0.27034652  1
  O2-  O161  1  0.34220844  0.62287060  0.50222972  1
  O2-  O162  1  0.37216349  0.63691678  0.75992812  1
  O2-  O163  1  0.60087810  0.12715933  -0.00790095  1
  O2-  O164  1  0.60765712  0.14484115  0.26274528  1
  O2-  O165  1  0.58715295  0.14227298  0.48172189  1
  O2-  O166  1  0.64623509  0.13282902  0.73211130  1
  O2-  O167  1  0.63807929  0.64734644  0.00910016  1
  O2-  O168  1  0.68649094  0.62427739  0.25005861  1
  O2-  O169  1  0.65781145  0.63942968  0.48647263  1
  O2-  O170  1  0.49164330  0.65431449  0.62203159  1
  O2-  O171  1  0.90753144  0.14708578  -0.00181154  1
  O2-  O172  1  0.92522339  0.16621219  0.19446866  1
  O2-  O173  1  0.91765899  0.10236068  0.52167662  1
  O2-  O174  1  0.86994157  0.14625972  0.74353035  1
  O2-  O175  1  0.84115934  0.61937854  0.01130710  1
  O2-  O176  1  0.88276318  0.64860858  0.25235618  1
  O2-  O177  1  0.91545633  0.64611860  0.50366454  1
  O2-  O178  1  0.85197488  0.64275572  0.75019951  1
  O2-  O179  1  0.05236365  0.33470895  -0.03299189  1
  O2-  O180  1  -0.00102369  0.34366138  0.13980607  1
  O2-  O181  1  0.08280825  0.34142966  0.52448837  1
  O2-  O182  1  0.17015638  0.33456360  0.75653205  1
  O2-  O183  1  0.16970996  0.87811856  0.00108981  1
  O2-  O184  1  0.12333071  0.84635729  0.28042647  1
  O2-  O185  1  0.09366655  0.86971507  0.50530710  1
  O2-  O186  1  0.16820857  0.88928939  0.76218062  1
  O2-  O187  1  0.40941973  0.37470106  -0.01030667  1
  O2-  O188  1  0.41035690  0.35603406  0.25850407  1
  O2-  O189  1  0.38625476  0.36749572  0.51438349  1
  O2-  O190  1  0.35018250  0.36300577  0.72996725  1
  O2-  O191  1  0.34810483  0.86395810  0.02647719  1
  O2-  O192  1  0.30596446  0.88254403  0.25616471  1
  O2-  O193  1  0.34397373  0.88651273  0.48723551  1
  O2-  O194  1  0.37413037  0.86909846  0.77019801  1
  O2-  O195  1  0.60313868  0.37727662  -0.00867535  1
  O2-  O196  1  0.61139788  0.36376860  0.25859164  1
  O2-  O197  1  0.57257037  0.36605117  0.48187992  1
  O2-  O198  1  0.64952172  0.36896242  0.73033876  1
  O2-  O199  1  0.63919251  0.85518007  -0.00590438  1
  O2-  O200  1  0.66423162  0.88006274  0.24430450  1
  O2-  O201  1  0.62435663  0.86584626  0.48855677  1
  O2-  O202  1  0.58336786  0.87967780  0.74521417  1
  O2-  O203  1  0.88538031  0.39621232  -0.00201387  1
  O2-  O204  1  0.88699206  0.35585737  0.28228114  1
  O2-  O205  1  0.90642425  0.37420823  0.49007696  1
  O2-  O206  1  0.84478131  0.36229364  0.72648344  1
  O2-  O207  1  0.83364615  0.88183147  0.00443498  1
  O2-  O208  1  0.85368619  0.87468903  0.23626572  1
  O2-  O209  1  0.86272742  0.86739978  0.51164374  1
  O2-  O210  1  0.84164483  0.85218240  0.76653293  1
  O2-  O211  1  0.00253964  -0.10900100  -0.03472720  1
  O2-  O212  1  0.00629155  -0.14715043  0.13409835  1
  O2-  O213  1  -0.01571973  -0.15277128  0.63888903  1
  O2-  O214  1  0.00809901  -0.13408554  0.80666143  1
  O2-  O215  1  -0.00863191  0.57602093  -0.04489541  1
  O2-  O216  1  0.01147712  0.62433662  0.12233337  1
  O2-  O217  1  0.00595499  0.62197759  0.64774985  1
  O2-  O218  1  0.00082669  0.65633761  0.82048559  1
  O2-  O219  1  0.26322229  0.12995013  0.12427707  1
  O2-  O220  1  0.24764566  0.15613539  0.31254978  1
  O2-  O221  1  0.25036985  0.09208113  0.45235248  1
  O2-  O222  1  0.30452675  0.01271595  0.62195634  1
  O2-  O223  1  0.21634538  0.33918793  -0.00263148  1
  O2-  O224  1  0.26551155  0.35820430  0.35422779  1
  O2-  O225  1  0.22665128  0.41314419  0.52228479  1
  O2-  O226  1  0.25666258  0.54606938  0.63785820  1
  O2-  O227  1  0.49133468  -0.10955034  -0.06994951  1
  O2-  O228  1  0.50300451  -0.15706699  0.12441945  1
  O2-  O229  1  0.49313333  -0.13522315  0.35370183  1
  O2-  O230  1  0.52634367  0.01374076  0.82639667  1
  O2-  O231  1  0.49863658  0.65491870  0.09155874  1
  O2-  O232  1  0.52440541  0.62846153  0.24611068  1
  O2-  O233  1  0.49842492  0.66617187  0.41146739  1
  O2-  O234  1  0.50165303  0.37308018  0.83514311  1
  O2-  O235  1  0.73563273  0.12704979  0.12966901  1
  O2-  O236  1  0.77303754  0.12810745  0.31813453  1
  O2-  O237  1  0.75332768  0.10855006  0.48595846  1
  O2-  O238  1  0.73263120  -0.12220428  0.63523227  1
  O2-  O239  1  0.75257033  0.67386393  -0.12635798  1
  O2-  O240  1  0.74452298  0.45043398  0.33315805  1
  O2-  O241  1  0.74268269  0.39130907  0.48591563  1
  O2-  O242  1  0.65253353  0.61945670  0.72372509  1
