# generated using pymatgen
data_Gd19Ta56(WO20)8
_symmetry_space_group_name_H-M   'P 1'
_cell_length_a   15.64152776
_cell_length_b   15.40446583
_cell_length_c   15.26703124
_cell_angle_alpha   90.14004783
_cell_angle_beta   89.43739589
_cell_angle_gamma   90.27754206
_symmetry_Int_Tables_number   1
_chemical_formula_structural   Gd19Ta56(WO20)8
_chemical_formula_sum   'Gd19 Ta56 W8 O160'
_cell_volume   3678.35064969
_cell_formula_units_Z   1
loop_
 _symmetry_equiv_pos_site_id
 _symmetry_equiv_pos_as_xyz
  1  'x, y, z'
loop_
 _atom_type_symbol
 _atom_type_oxidation_number
  Gd3+  3.0
  Ta5+  5.0
  W6+  6.0
  O2-  -2.0
loop_
 _atom_site_type_symbol
 _atom_site_label
 _atom_site_symmetry_multiplicity
 _atom_site_fract_x
 _atom_site_fract_y
 _atom_site_fract_z
 _atom_site_occupancy
  Gd3+  Gd0  1  -0.02487548  0.75295490  0.48582273  1
  Gd3+  Gd1  1  0.74699170  0.77297245  0.48866697  1
  Gd3+  Gd2  1  0.49482394  0.75274319  0.74460981  1
  Gd3+  Gd3  1  0.26004329  0.74831460  0.26010329  1
  Gd3+  Gd4  1  0.24664201  0.24275337  0.25927267  1
  Gd3+  Gd5  1  0.72142078  0.22500706  0.75381916  1
  Gd3+  Gd6  1  -0.02543517  0.78595258  0.01020887  1
  Gd3+  Gd7  1  0.02311539  0.25567819  0.01060333  1
  Gd3+  Gd8  1  0.49610717  0.26324341  0.77067967  1
  Gd3+  Gd9  1  0.79623877  0.75887198  0.25312913  1
  Gd3+  Gd10  1  0.02133701  0.75090906  0.24022583  1
  Gd3+  Gd11  1  -0.02029775  0.76408149  0.75899796  1
  Gd3+  Gd12  1  0.73526087  0.77076281  0.74028659  1
  Gd3+  Gd13  1  0.51562067  0.73788212  0.23648825  1
  Gd3+  Gd14  1  0.22390618  0.75099614  0.77341954  1
  Gd3+  Gd15  1  0.24074876  0.25018757  0.73303121  1
  Gd3+  Gd16  1  0.46135071  0.26592451  0.02140217  1
  Gd3+  Gd17  1  0.49298989  0.73978843  0.49031610  1
  Gd3+  Gd18  1  0.26354648  0.24422503  0.48856448  1
  Ta5+  Ta19  1  0.35467460  0.62008289  0.61815406  1
  Ta5+  Ta20  1  0.67033144  0.57665294  0.10981314  1
  Ta5+  Ta21  1  0.14910363  0.56145555  0.87564869  1
  Ta5+  Ta22  1  0.38147013  0.60847498  0.86102155  1
  Ta5+  Ta23  1  0.14790133  0.12136574  0.87959490  1
  Ta5+  Ta24  1  0.32697227  0.11828651  0.11802952  1
  Ta5+  Ta25  1  0.12084722  0.61098891  0.11734669  1
  Ta5+  Ta26  1  0.15909049  0.12051602  0.11673560  1
  Ta5+  Ta27  1  0.39165794  0.11487152  0.36145929  1
  Ta5+  Ta28  1  0.14520930  0.36727692  0.87183744  1
  Ta5+  Ta29  1  0.58506030  0.11337507  0.59375133  1
  Ta5+  Ta30  1  0.37989903  0.88946905  0.85903539  1
  Ta5+  Ta31  1  0.32451623  0.37393504  0.87726969  1
  Ta5+  Ta32  1  0.42644711  0.36310641  0.36797088  1
  Ta5+  Ta33  1  0.88198025  0.34440491  0.14862167  1
  Ta5+  Ta34  1  0.10901482  0.62085869  0.63942481  1
  Ta5+  Ta35  1  0.31904680  0.12230434  0.88168136  1
  Ta5+  Ta36  1  0.65929166  0.90737835  0.10482237  1
  Ta5+  Ta37  1  0.16470014  0.37360159  0.12558565  1
  Ta5+  Ta38  1  0.08660778  0.12824452  0.36843154  1
  Ta5+  Ta39  1  0.36093136  0.88085787  0.61319321  1
  Ta5+  Ta40  1  0.87327520  0.14277348  0.37782819  1
  Ta5+  Ta41  1  0.38593642  0.87603571  0.10667119  1
  Ta5+  Ta42  1  0.13174238  0.62839758  0.38809629  1
  Ta5+  Ta43  1  0.88107103  0.38018141  0.60776768  1
  Ta5+  Ta44  1  0.38329613  0.37615715  0.61481427  1
  Ta5+  Ta45  1  0.33351176  0.38212876  0.13409688  1
  Ta5+  Ta46  1  0.87657988  0.90105565  0.63223806  1
  Ta5+  Ta47  1  0.65599673  0.37869487  0.87693375  1
  Ta5+  Ta48  1  0.90226007  0.94709628  0.38322085  1
  Ta5+  Ta49  1  0.12851513  0.37875648  0.38377180  1
  Ta5+  Ta50  1  0.95628629  0.36245023  0.38049543  1
  Ta5+  Ta51  1  0.15747677  0.87297552  0.09339607  1
  Ta5+  Ta52  1  0.12107811  0.88029870  0.61659393  1
  Ta5+  Ta53  1  0.86477490  0.14364814  0.89657808  1
  Ta5+  Ta54  1  0.61876041  0.89457779  0.90313931  1
  Ta5+  Ta55  1  0.37077861  0.11514406  0.62348578  1
  Ta5+  Ta56  1  0.37548882  0.61724317  0.36766101  1
  Ta5+  Ta57  1  0.62110605  0.62398193  0.87792299  1
  Ta5+  Ta58  1  0.82723845  0.89839181  0.89807542  1
  Ta5+  Ta59  1  0.63042792  0.16097410  0.11266668  1
  Ta5+  Ta60  1  0.60496108  0.14444716  0.92207970  1
  Ta5+  Ta61  1  0.62958228  0.92590540  0.60329322  1
  Ta5+  Ta62  1  0.54347213  0.52176053  0.41542150  1
  Ta5+  Ta63  1  0.12889342  0.88682828  0.36280199  1
  Ta5+  Ta64  1  0.87411027  0.59246837  0.12516195  1
  Ta5+  Ta65  1  0.15064618  0.91822320  0.89632002  1
  Ta5+  Ta66  1  0.86942442  0.62010452  0.63480709  1
  Ta5+  Ta67  1  0.80996703  0.17722066  0.13753624  1
  Ta5+  Ta68  1  0.62706116  0.36338600  0.36449005  1
  Ta5+  Ta69  1  0.70319044  0.32451276  0.12984768  1
  Ta5+  Ta70  1  0.10084826  0.12139261  0.62426450  1
  Ta5+  Ta71  1  0.62343760  0.89817127  0.34434939  1
  Ta5+  Ta72  1  0.83997723  0.37292514  0.95103649  1
  Ta5+  Ta73  1  0.63207798  0.60683453  0.60745746  1
  Ta5+  Ta74  1  0.40322259  0.88813642  0.36381613  1
  W6+  W75  1  0.84577383  0.62432065  0.90835868  1
  W6+  W76  1  0.54982283  0.13911457  0.34283402  1
  W6+  W77  1  0.63327807  0.35419967  0.60185068  1
  W6+  W78  1  0.87534934  0.93258968  0.14169897  1
  W6+  W79  1  0.11161267  0.36880013  0.60227529  1
  W6+  W80  1  0.89179796  0.60172056  0.37356441  1
  W6+  W81  1  0.39604303  0.62351823  0.10795964  1
  W6+  W82  1  0.85827247  0.15533589  0.62750784  1
  O2-  O83  1  0.17294088  -0.00933187  0.12114418  1
  O2-  O84  1  0.14067961  0.00665185  0.36540913  1
  O2-  O85  1  0.14126393  -0.00095422  0.63684523  1
  O2-  O86  1  0.08308645  0.00628265  0.84833983  1
  O2-  O87  1  0.17469561  0.50542181  0.13268813  1
  O2-  O88  1  0.12059675  0.50840314  0.38707622  1
  O2-  O89  1  0.10840872  0.50513251  0.61968695  1
  O2-  O90  1  0.06444303  0.47871242  0.86151497  1
  O2-  O91  1  0.37309458  -0.00227814  0.10613392  1
  O2-  O92  1  0.35172292  -0.00471160  0.38170656  1
  O2-  O93  1  0.33020730  -0.00173648  0.60634823  1
  O2-  O94  1  0.38931360  0.00919090  0.86567628  1
  O2-  O95  1  0.36591360  0.49756170  0.12126806  1
  O2-  O96  1  0.40380073  0.50056085  0.39265651  1
  O2-  O97  1  0.36015722  0.49836275  0.59868708  1
  O2-  O98  1  0.39530302  0.48863862  0.86510662  1
  O2-  O99  1  0.65228232  0.02471469  0.11010211  1
  O2-  O100  1  0.59905889  0.01347300  0.33485942  1
  O2-  O101  1  0.68174247  0.03610601  0.62889593  1
  O2-  O102  1  0.60882083  0.01399638  0.90855112  1
  O2-  O103  1  0.66699205  0.46105857  0.12714006  1
  O2-  O104  1  0.65686695  0.49423739  0.38600439  1
  O2-  O105  1  0.65645025  0.49026330  0.61161388  1
  O2-  O106  1  0.64999588  0.50322553  0.85364450  1
  O2-  O107  1  0.84705729  0.04904209  0.15143163  1
  O2-  O108  1  0.81510098  0.02692182  0.40628226  1
  O2-  O109  1  0.86937636  0.01784509  0.62684264  1
  O2-  O110  1  0.85637325  0.01364577  0.87484504  1
  O2-  O111  1  0.86497566  0.47727180  0.15282452  1
  O2-  O112  1  0.94306469  0.48043772  0.36573655  1
  O2-  O113  1  0.85299150  0.49659267  0.64548730  1
  O2-  O114  1  0.84740670  0.48677758  0.91349892  1
  O2-  O115  1  0.13159463  0.24863843  0.12236994  1
  O2-  O116  1  0.15698478  0.23761243  0.38326930  1
  O2-  O117  1  0.15900902  0.23357844  0.60405375  1
  O2-  O118  1  0.11400662  0.24469609  0.88110806  1
  O2-  O119  1  0.09769851  0.74950512  0.10262610  1
  O2-  O120  1  0.16774735  0.76281710  0.37754370  1
  O2-  O121  1  0.10410826  0.76107959  0.66458347  1
  O2-  O122  1  0.09772860  0.82012298  0.83354933  1
  O2-  O123  1  0.36027335  0.24931994  0.14181051  1
  O2-  O124  1  0.35392277  0.24247876  0.36206515  1
  O2-  O125  1  0.34082106  0.24873715  0.62141861  1
  O2-  O126  1  0.37045066  0.25150965  0.85913543  1
  O2-  O127  1  0.43910309  0.75849294  0.11538562  1
  O2-  O128  1  0.36374937  0.76109671  0.36748278  1
  O2-  O129  1  0.40748828  0.74785502  0.62099964  1
  O2-  O130  1  0.36754409  0.75402891  0.82277090  1
  O2-  O131  1  0.58688397  0.28575255  0.09344562  1
  O2-  O132  1  0.52473761  0.27986639  0.35907336  1
  O2-  O133  1  0.64573503  0.21648792  0.62467528  1
  O2-  O134  1  0.57100525  0.28354749  0.91060220  1
  O2-  O135  1  0.57999315  0.62780630  0.17470049  1
  O2-  O136  1  0.69550608  0.79107218  0.35221803  1
  O2-  O137  1  0.62149431  0.72376966  0.54337276  1
  O2-  O138  1  0.65731226  0.74465695  0.86977631  1
  O2-  O139  1  0.92992356  0.22526003  0.12143621  1
  O2-  O140  1  0.98451495  0.20942922  0.37158968  1
  O2-  O141  1  0.81072247  0.29137435  0.65057705  1
  O2-  O142  1  0.90697972  0.26422601  0.90700729  1
  O2-  O143  1  0.92674041  0.81004442  0.14856199  1
  O2-  O144  1  0.85573129  0.73383647  0.39656576  1
  O2-  O145  1  0.89091531  0.75807622  0.61749011  1
  O2-  O146  1  0.87334857  0.77436330  0.89663182  1
  O2-  O147  1  0.10160598  0.12006947  0.00319594  1
  O2-  O148  1  0.12537648  0.13345005  0.24857880  1
  O2-  O149  1  0.09332633  0.11105873  0.49682760  1
  O2-  O150  1  0.14640861  0.13578796  0.74610631  1
  O2-  O151  1  0.13408558  0.61211660  -0.01300315  1
  O2-  O152  1  0.14137148  0.65210450  0.24309117  1
  O2-  O153  1  0.10810944  0.65571463  0.51497857  1
  O2-  O154  1  0.11442017  0.63573138  0.77644938  1
  O2-  O155  1  0.35866809  0.15407474  -0.00297697  1
  O2-  O156  1  0.33418112  0.11253702  0.24964214  1
  O2-  O157  1  0.37617365  0.13275500  0.49622577  1
  O2-  O158  1  0.32873881  0.12172170  0.74452633  1
  O2-  O159  1  0.37337132  0.63678008  -0.02297431  1
  O2-  O160  1  0.38323592  0.64584455  0.24407619  1
  O2-  O161  1  0.37222396  0.64626411  0.49589810  1
  O2-  O162  1  0.41895391  0.61363877  0.72287478  1
  O2-  O163  1  0.53058682  0.13472350  0.02039973  1
  O2-  O164  1  0.56239019  0.15408208  0.21420831  1
  O2-  O165  1  0.57152218  0.13031306  0.47784752  1
  O2-  O166  1  0.59529424  0.15785209  0.79535654  1
  O2-  O167  1  0.61437254  0.61155270  -0.00222335  1
  O2-  O168  1  0.50741082  0.64196018  0.36862024  1
  O2-  O169  1  0.53022745  0.58589686  0.53453020  1
  O2-  O170  1  0.62071347  0.64802541  0.72538603  1
  O2-  O171  1  0.81558083  0.14679528  0.00737543  1
  O2-  O172  1  0.81508539  0.17527584  0.27983935  1
  O2-  O173  1  0.84537211  0.18036621  0.49008971  1
  O2-  O174  1  0.84467963  0.15491684  0.76936737  1
  O2-  O175  1  0.92635973  0.64687824  0.01801020  1
  O2-  O176  1  0.90319546  0.65214212  0.23875362  1
  O2-  O177  1  0.90904676  0.61421214  0.51420825  1
  O2-  O178  1  0.98841889  0.63172790  0.67371756  1
  O2-  O179  1  0.12670524  0.37406984  0.00209448  1
  O2-  O180  1  0.15484884  0.36722681  0.26093205  1
  O2-  O181  1  0.20051908  0.37811959  0.49444691  1
  O2-  O182  1  0.15053585  0.36465392  0.74109799  1
  O2-  O183  1  0.21655685  0.84835352  -0.01401258  1
  O2-  O184  1  0.13598141  0.85721927  0.23662252  1
  O2-  O185  1  0.10147557  0.87120056  0.49806751  1
  O2-  O186  1  0.00211862  0.88915023  0.65649131  1
  O2-  O187  1  0.34074199  0.36039066  0.00131266  1
  O2-  O188  1  0.35568125  0.37891742  0.26891351  1
  O2-  O189  1  0.37246872  0.35004845  0.48805384  1
  O2-  O190  1  0.34098837  0.37632607  0.73582399  1
  O2-  O191  1  0.38653156  0.86650985  -0.01960147  1
  O2-  O192  1  0.41025199  0.88023399  0.23831457  1
  O2-  O193  1  0.41694308  0.87247546  0.50096929  1
  O2-  O194  1  0.41494719  0.88856487  0.72198029  1
  O2-  O195  1  0.71392725  0.36205373  -0.00908528  1
  O2-  O196  1  0.68419873  0.33172575  0.26274166  1
  O2-  O197  1  0.67353335  0.33022219  0.47155714  1
  O2-  O198  1  0.62131940  0.34558820  0.75297908  1
  O2-  O199  1  0.57615308  0.86287600  0.02305893  1
  O2-  O200  1  0.60185382  0.86733040  0.21456952  1
  O2-  O201  1  0.64137716  0.89841050  0.48170400  1
  O2-  O202  1  0.60322762  0.83853917  0.68747598  1
  O2-  O203  1  0.93734763  0.37836620  0.02966260  1
  O2-  O204  1  0.91652972  0.33427991  0.26777129  1
  O2-  O205  1  0.87616706  0.36896745  0.48786872  1
  O2-  O206  1  0.76737661  0.34399769  0.83553245  1
  O2-  O207  1  0.89092250  0.90681525  0.00629815  1
  O2-  O208  1  0.85414051  0.90171532  0.28208765  1
  O2-  O209  1  0.89365763  0.88462961  0.49704508  1
  O2-  O210  1  0.86644592  0.86594613  0.75776209  1
  O2-  O211  1  0.07063883  -0.09674819  0.00261909  1
  O2-  O212  1  0.00394840  -0.14394553  0.36004777  1
  O2-  O213  1  -0.02599297  0.04772779  0.35520503  1
  O2-  O214  1  -0.00968763  0.14513841  0.64752470  1
  O2-  O215  1  0.00959850  0.58147060  0.13689869  1
  O2-  O216  1  0.01580071  0.66966569  0.36728001  1
  O2-  O217  1  0.04297020  0.34483492  0.47839683  1
  O2-  O218  1  -0.01497409  0.35754100  0.65383207  1
  O2-  O219  1  0.22991952  0.02401955  -0.08076947  1
  O2-  O220  1  0.27452247  -0.16592715  0.13980101  1
  O2-  O221  1  0.24551363  -0.15937054  0.63384672  1
  O2-  O222  1  0.25841374  -0.11210546  0.82055309  1
  O2-  O223  1  0.23189083  0.46846075  -0.10961310  1
  O2-  O224  1  0.25440136  0.61518237  0.36734480  1
  O2-  O225  1  0.23993813  0.64653819  0.64709570  1
  O2-  O226  1  0.26183509  0.62000077  0.83264521  1
  O2-  O227  1  0.51115933  -0.14121647  -0.14699432  1
  O2-  O228  1  0.52173309  -0.17612518  0.36887346  1
  O2-  O229  1  0.52566256  -0.00917488  0.60460924  1
  O2-  O230  1  0.48433022  0.15964381  0.65636122  1
  O2-  O231  1  0.50589734  0.64824154  -0.14158813  1
  O2-  O232  1  0.52499076  0.43460175  0.30942620  1
  O2-  O233  1  0.52198119  0.41190992  0.47072681  1
  O2-  O234  1  0.49554041  0.35197364  0.64143735  1
  O2-  O235  1  0.72820835  -0.10488889  -0.01892349  1
  O2-  O236  1  0.76159756  -0.14789805  0.14494000  1
  O2-  O237  1  0.75358864  -0.13519070  0.61453394  1
  O2-  O238  1  0.71748582  -0.10553679  0.81986156  1
  O2-  O239  1  0.77986058  0.59766890  0.03391485  1
  O2-  O240  1  0.75632299  0.62852885  0.18844958  1
  O2-  O241  1  0.75173307  0.65070473  0.59508513  1
  O2-  O242  1  0.83451962  0.65669006  0.75783141  1
