# generated using pymatgen
data_Gd19Ta56(WO20)8
_symmetry_space_group_name_H-M   'P 1'
_cell_length_a   15.40903874
_cell_length_b   15.45615873
_cell_length_c   15.35947364
_cell_angle_alpha   90.29437836
_cell_angle_beta   89.96134914
_cell_angle_gamma   90.02102658
_symmetry_Int_Tables_number   1
_chemical_formula_structural   Gd19Ta56(WO20)8
_chemical_formula_sum   'Gd19 Ta56 W8 O160'
_cell_volume   3658.03274999
_cell_formula_units_Z   1
loop_
 _symmetry_equiv_pos_site_id
 _symmetry_equiv_pos_as_xyz
  1  'x, y, z'
loop_
 _atom_type_symbol
 _atom_type_oxidation_number
  Gd3+  3.0
  Ta5+  5.0
  W6+  6.0
  O2-  -2.0
loop_
 _atom_site_type_symbol
 _atom_site_label
 _atom_site_symmetry_multiplicity
 _atom_site_fract_x
 _atom_site_fract_y
 _atom_site_fract_z
 _atom_site_occupancy
  Gd3+  Gd0  1  -0.04016243  0.73949513  0.27014574  1
  Gd3+  Gd1  1  -0.00904497  0.25948691  0.25450583  1
  Gd3+  Gd2  1  -0.02708412  0.25032048  0.00635952  1
  Gd3+  Gd3  1  0.78576698  0.23596094  0.74958514  1
  Gd3+  Gd4  1  0.23803565  0.24795126  0.48563782  1
  Gd3+  Gd5  1  0.22099838  0.75062092  -0.02938210  1
  Gd3+  Gd6  1  0.74848059  0.22857250  0.00014655  1
  Gd3+  Gd7  1  0.25866419  0.23732891  0.76046988  1
  Gd3+  Gd8  1  0.26578685  0.24281902  0.24164446  1
  Gd3+  Gd9  1  0.74867779  0.24984594  0.26319407  1
  Gd3+  Gd10  1  0.00272658  0.23515590  0.76101049  1
  Gd3+  Gd11  1  0.50558563  0.75633309  0.48565432  1
  Gd3+  Gd12  1  0.21706607  0.75655319  0.25284373  1
  Gd3+  Gd13  1  0.51405071  0.24060965  0.26234581  1
  Gd3+  Gd14  1  0.28283109  0.24877789  -0.01573367  1
  Gd3+  Gd15  1  0.52551829  0.74970400  0.25403158  1
  Gd3+  Gd16  1  0.51944958  0.24171085  -0.01540818  1
  Gd3+  Gd17  1  0.51452521  0.74815098  -0.00604718  1
  Gd3+  Gd18  1  -0.00579134  0.28667704  0.51694307  1
  Ta5+  Ta19  1  0.37543883  0.38252666  0.37461155  1
  Ta5+  Ta20  1  0.33126422  0.86504482  0.62226916  1
  Ta5+  Ta21  1  0.12077683  0.39515136  0.37403398  1
  Ta5+  Ta22  1  0.62450497  0.37335853  0.39924178  1
  Ta5+  Ta23  1  0.36548784  0.08514538  0.13744773  1
  Ta5+  Ta24  1  0.84332234  0.39687953  0.13328725  1
  Ta5+  Ta25  1  0.11264348  0.11426700  0.11405815  1
  Ta5+  Ta26  1  0.40207090  0.11009177  0.40842279  1
  Ta5+  Ta27  1  0.86799361  0.09015973  0.15487156  1
  Ta5+  Ta28  1  0.87228342  0.12528026  0.40756082  1
  Ta5+  Ta29  1  0.58215885  0.11596950  0.62566554  1
  Ta5+  Ta30  1  0.10188360  0.87789894  0.38681109  1
  Ta5+  Ta31  1  0.84495820  0.61145274  0.63388084  1
  Ta5+  Ta32  1  0.88993077  0.62860140  0.87980784  1
  Ta5+  Ta33  1  0.36662225  0.11309147  0.61218260  1
  Ta5+  Ta34  1  0.11737788  0.62998422  0.63988389  1
  Ta5+  Ta35  1  0.66659695  0.63774119  0.11516771  1
  Ta5+  Ta36  1  0.65332311  0.85851818  0.87050531  1
  Ta5+  Ta37  1  0.10661217  0.11881998  0.39015402  1
  Ta5+  Ta38  1  0.39569292  0.62769589  0.62286402  1
  Ta5+  Ta39  1  0.40358035  0.60326457  0.87307892  1
  Ta5+  Ta40  1  0.06003378  0.62780369  0.88025855  1
  Ta5+  Ta41  1  0.11986878  0.63582923  0.39061318  1
  Ta5+  Ta42  1  0.63263949  0.41135446  0.15113295  1
  Ta5+  Ta43  1  0.32856436  0.39506164  0.62180696  1
  Ta5+  Ta44  1  0.14166245  0.61729400  0.11747018  1
  Ta5+  Ta45  1  0.94431049  0.08184016  0.59659500  1
  Ta5+  Ta46  1  0.07590164  0.88026469  0.86484043  1
  Ta5+  Ta47  1  0.35130898  0.87151860  0.11498113  1
  Ta5+  Ta48  1  0.82665313  0.85922805  0.87611806  1
  Ta5+  Ta49  1  0.35746021  0.61747581  0.11425191  1
  Ta5+  Ta50  1  0.84801138  0.86099452  0.12713762  1
  Ta5+  Ta51  1  0.65810767  0.08977604  0.82535600  1
  Ta5+  Ta52  1  0.86575440  0.42208443  0.64362233  1
  Ta5+  Ta53  1  0.89151341  0.39108627  0.88072286  1
  Ta5+  Ta54  1  0.35627424  0.88008240  0.36913239  1
  Ta5+  Ta55  1  0.63654248  0.11655722  0.40043758  1
  Ta5+  Ta56  1  0.67697133  0.87187666  0.37923017  1
  Ta5+  Ta57  1  0.11673675  0.11475682  0.89848248  1
  Ta5+  Ta58  1  0.80868583  0.62537370  0.38196039  1
  Ta5+  Ta59  1  0.10973904  0.11393408  0.62247565  1
  Ta5+  Ta60  1  0.67932212  0.84804214  0.12222361  1
  Ta5+  Ta61  1  0.44292531  0.09645348  0.83887471  1
  Ta5+  Ta62  1  0.86499674  0.38863966  0.39019291  1
  Ta5+  Ta63  1  0.15986166  0.38719438  0.63339525  1
  Ta5+  Ta64  1  0.39779981  0.40689721  0.85874816  1
  Ta5+  Ta65  1  0.56611055  0.60780620  0.62784649  1
  Ta5+  Ta66  1  0.83601070  0.63626777  0.11934995  1
  Ta5+  Ta67  1  0.36791560  0.86305686  0.87085594  1
  Ta5+  Ta68  1  0.58902636  0.35919438  0.63727063  1
  Ta5+  Ta69  1  0.41745936  0.38567275  0.12164156  1
  Ta5+  Ta70  1  0.66800217  0.07455630  0.13519499  1
  Ta5+  Ta71  1  0.16167461  0.87532815  0.62958465  1
  Ta5+  Ta72  1  0.62115174  0.39400205  0.85697476  1
  Ta5+  Ta73  1  0.10391723  0.38752911  0.88120853  1
  Ta5+  Ta74  1  0.10724078  0.87438753  0.12227000  1
  W6+  W75  1  0.64529019  0.62186985  0.37754615  1
  W6+  W76  1  0.84150349  0.87442290  0.38826096  1
  W6+  W77  1  0.38073338  0.62858191  0.36197772  1
  W6+  W78  1  0.11580190  0.36852587  0.11896489  1
  W6+  W79  1  0.65008900  0.63629988  0.86040144  1
  W6+  W80  1  0.90372015  0.02354466  0.78414880  1
  W6+  W81  1  0.59563447  0.86474697  0.63010875  1
  W6+  W82  1  0.87521941  0.85438378  0.63770183  1
  O2-  O83  1  0.10624937  -0.00389225  0.14168303  1
  O2-  O84  1  0.08511365  -0.00122632  0.35997953  1
  O2-  O85  1  0.15429925  0.00160003  0.64164939  1
  O2-  O86  1  0.13427271  -0.00904231  0.88672004  1
  O2-  O87  1  0.12222474  0.50127478  0.12139934  1
  O2-  O88  1  0.14060327  0.51465238  0.36262615  1
  O2-  O89  1  0.15386709  0.50965473  0.64607919  1
  O2-  O90  1  0.10848531  0.50912832  0.87656361  1
  O2-  O91  1  0.41599779  -0.02065016  0.09821708  1
  O2-  O92  1  0.35705652  0.00587298  0.35731477  1
  O2-  O93  1  0.35438130  -0.00532890  0.62430824  1
  O2-  O94  1  0.40010437  -0.00921361  0.87917975  1
  O2-  O95  1  0.35716833  0.49477405  0.11758845  1
  O2-  O96  1  0.35464923  0.49620753  0.35381941  1
  O2-  O97  1  0.34151676  0.51648323  0.61364244  1
  O2-  O98  1  0.48738648  0.50591476  0.86903019  1
  O2-  O99  1  0.61844246  -0.03400514  0.12063398  1
  O2-  O100  1  0.66508732  -0.00620065  0.37945537  1
  O2-  O101  1  0.58688407  -0.00400337  0.61365505  1
  O2-  O102  1  0.63876064  -0.01929214  0.87918706  1
  O2-  O103  1  0.65201950  0.51472732  0.08706131  1
  O2-  O104  1  0.64679619  0.48845812  0.38575281  1
  O2-  O105  1  0.55159530  0.47501225  0.63729288  1
  O2-  O106  1  0.66702522  0.50237496  0.86761894  1
  O2-  O107  1  0.90775986  -0.01993413  0.12279512  1
  O2-  O108  1  0.86734935  0.00781634  0.38562105  1
  O2-  O109  1  0.94874408  -0.02766167  0.65553602  1
  O2-  O110  1  0.95806862  -0.08736959  0.86501022  1
  O2-  O111  1  0.87601229  0.50983586  0.11301851  1
  O2-  O112  1  0.84568752  0.50258511  0.36067167  1
  O2-  O113  1  0.94413910  0.51285936  0.62943802  1
  O2-  O114  1  0.86099086  0.50467022  0.90148209  1
  O2-  O115  1  0.13445700  0.23284098  0.16467179  1
  O2-  O116  1  0.08832041  0.25092288  0.39027435  1
  O2-  O117  1  0.12234782  0.25420181  0.59497894  1
  O2-  O118  1  0.08037674  0.24665106  0.89187237  1
  O2-  O119  1  0.15895688  0.75384139  0.11120496  1
  O2-  O120  1  0.06333552  0.75354848  0.38904782  1
  O2-  O121  1  0.16342176  0.74226423  0.63214404  1
  O2-  O122  1  0.10532255  0.75535216  0.87773247  1
  O2-  O123  1  0.30955018  0.31425266  0.11737225  1
  O2-  O124  1  0.38524230  0.23000124  0.38227391  1
  O2-  O125  1  0.31911386  0.24314112  0.61657534  1
  O2-  O126  1  0.40135576  0.19650230  0.89503374  1
  O2-  O127  1  0.37300179  0.75201031  0.08985017  1
  O2-  O128  1  0.41493001  0.76339867  0.36525057  1
  O2-  O129  1  0.35160226  0.74300918  0.61843899  1
  O2-  O130  1  0.36389969  0.73507185  0.89218675  1
  O2-  O131  1  0.52447456  0.30364348  0.12348388  1
  O2-  O132  1  0.59701907  0.23754617  0.38673774  1
  O2-  O133  1  0.54034073  0.24539031  0.64160772  1
  O2-  O134  1  0.68955998  0.20880265  0.86025327  1
  O2-  O135  1  0.58266540  0.75019703  0.12246048  1
  O2-  O136  1  0.60820537  0.75240971  0.37647413  1
  O2-  O137  1  0.54238374  0.73998378  0.62880912  1
  O2-  O138  1  0.57980302  0.75153886  0.86108030  1
  O2-  O139  1  0.97111003  0.34315407  0.12775788  1
  O2-  O140  1  0.90670879  0.25680458  0.39993095  1
  O2-  O141  1  0.92069952  0.30405833  0.64777678  1
  O2-  O142  1  0.87871959  0.25667162  0.87610833  1
  O2-  O143  1  0.90155333  0.74888385  0.12712065  1
  O2-  O144  1  0.85827965  0.74007406  0.38363292  1
  O2-  O145  1  0.82658770  0.73109928  0.63881560  1
  O2-  O146  1  0.86806490  0.75054524  0.85259134  1
  O2-  O147  1  0.18752599  0.14195871  0.01509552  1
  O2-  O148  1  0.21509203  0.14546493  0.33869301  1
  O2-  O149  1  0.15480386  0.11305778  0.50112216  1
  O2-  O150  1  0.13135171  0.16226756  0.73798996  1
  O2-  O151  1  0.07713307  0.63855382  0.01133802  1
  O2-  O152  1  0.09384274  0.65402599  0.24518447  1
  O2-  O153  1  0.09411697  0.62079063  0.50889782  1
  O2-  O154  1  0.06349625  0.63602221  0.74822619  1
  O2-  O155  1  0.39900884  0.16552569  0.05675409  1
  O2-  O156  1  0.40466843  0.13766922  0.24068696  1
  O2-  O157  1  0.31140194  0.11488384  0.49651534  1
  O2-  O158  1  0.36984229  0.13202249  0.73788246  1
  O2-  O159  1  0.43081818  0.61878859  0.00349472  1
  O2-  O160  1  0.42144871  0.64175106  0.22037851  1
  O2-  O161  1  0.41241085  0.63523390  0.49444242  1
  O2-  O162  1  0.41380927  0.62879922  0.75306723  1
  O2-  O163  1  0.62404030  0.16247692  0.05754929  1
  O2-  O164  1  0.63064645  0.14836619  0.23727227  1
  O2-  O165  1  0.64783015  0.13253112  0.52032394  1
  O2-  O166  1  0.68321049  0.13801450  0.69853104  1
  O2-  O167  1  0.63129242  0.65650450  -0.00858602  1
  O2-  O168  1  0.63393490  0.63875723  0.23934124  1
  O2-  O169  1  0.60411350  0.62352230  0.51153183  1
  O2-  O170  1  0.62339585  0.62006009  0.73385130  1
  O2-  O171  1  0.86589439  0.20238329  0.09394955  1
  O2-  O172  1  0.87779174  0.15835365  0.27026157  1
  O2-  O173  1  0.84331807  0.13643721  0.52794562  1
  O2-  O174  1  0.89106590  0.13789163  0.70345151  1
  O2-  O175  1  0.84637624  0.65075923  -0.00268390  1
  O2-  O176  1  0.85327091  0.63602299  0.25149831  1
  O2-  O177  1  0.83150411  0.60989249  0.50226655  1
  O2-  O178  1  0.86922834  0.60645437  0.75658910  1
  O2-  O179  1  0.16771728  0.36016034  -0.01314731  1
  O2-  O180  1  0.24325627  0.34161528  0.35305107  1
  O2-  O181  1  0.14517169  0.38702328  0.49933280  1
  O2-  O182  1  0.15323758  0.35357895  0.76409372  1
  O2-  O183  1  0.09092928  0.87061393  0.00123437  1
  O2-  O184  1  0.08579442  0.84517721  0.24989705  1
  O2-  O185  1  0.12573000  0.87903416  0.50622252  1
  O2-  O186  1  0.10483871  0.87215862  0.74736786  1
  O2-  O187  1  0.29803866  0.33432767  -0.13134774  1
  O2-  O188  1  0.39771719  0.34079050  0.25184825  1
  O2-  O189  1  0.34052042  0.36551985  0.49416475  1
  O2-  O190  1  0.38771534  0.39138742  0.73588573  1
  O2-  O191  1  0.30446902  0.87533631  -0.01333841  1
  O2-  O192  1  0.38709708  0.86377327  0.23857125  1
  O2-  O193  1  0.37084803  0.87228495  0.49175176  1
  O2-  O194  1  0.35001267  0.86043029  0.75265813  1
  O2-  O195  1  0.64209309  0.34082462  -0.03566274  1
  O2-  O196  1  0.62069539  0.34700045  0.26730592  1
  O2-  O197  1  0.63735412  0.35571856  0.52532895  1
  O2-  O198  1  0.65892994  0.34698753  0.74348966  1
  O2-  O199  1  0.64637414  0.84288619  -0.00254412  1
  O2-  O200  1  0.65454687  0.85289277  0.25455228  1
  O2-  O201  1  0.61706760  0.85992392  0.49823486  1
  O2-  O202  1  0.64410399  0.86176234  0.74059757  1
  O2-  O203  1  0.83773373  0.35896649  0.00798547  1
  O2-  O204  1  0.86893391  0.34677166  0.25681863  1
  O2-  O205  1  0.86148809  0.39155028  0.51624118  1
  O2-  O206  1  0.82783857  0.38488939  0.76527596  1
  O2-  O207  1  0.83642185  0.86900736  -0.00253450  1
  O2-  O208  1  0.86590439  0.85935186  0.25607722  1
  O2-  O209  1  0.86949120  0.86997659  0.51949388  1
  O2-  O210  1  0.83130376  0.90768899  0.75040998  1
  O2-  O211  1  0.03616019  0.11270664  0.00815355  1
  O2-  O212  1  0.00030556  0.13275500  0.17177868  1
  O2-  O213  1  -0.00774645  0.12291224  0.46983371  1
  O2-  O214  1  0.00474596  0.10349766  0.83601643  1
  O2-  O215  1  -0.00201294  0.38896741  -0.04148002  1
  O2-  O216  1  0.09300588  0.37387182  0.25479452  1
  O2-  O217  1  -0.00409116  0.40000440  0.40169340  1
  O2-  O218  1  -0.00695814  0.38207860  0.80174841  1
  O2-  O219  1  0.24689897  0.09830862  0.16061522  1
  O2-  O220  1  0.23722953  -0.11094487  0.15589168  1
  O2-  O221  1  0.23190089  -0.13200814  0.36043519  1
  O2-  O222  1  0.23328771  0.14809036  0.86696826  1
  O2-  O223  1  0.24823272  0.62335416  0.03471922  1
  O2-  O224  1  0.25336479  0.62673129  0.19315163  1
  O2-  O225  1  0.23450980  0.67462450  0.37917123  1
  O2-  O226  1  0.32194175  0.51317234  0.87714335  1
  O2-  O227  1  0.54998304  0.11887089  -0.09565265  1
  O2-  O228  1  0.51710181  0.08620723  0.37029268  1
  O2-  O229  1  0.46863347  0.12125916  0.53608300  1
  O2-  O230  1  0.53595190  0.08812633  0.74940233  1
  O2-  O231  1  0.42180527  0.37213232  -0.00536512  1
  O2-  O232  1  0.51530483  0.45552478  0.17173621  1
  O2-  O233  1  0.49677649  0.38029261  0.39847991  1
  O2-  O234  1  0.50831512  0.33708562  0.84931305  1
  O2-  O235  1  0.76958106  0.08155158  0.05771622  1
  O2-  O236  1  0.76550381  0.05144866  0.21566201  1
  O2-  O237  1  0.75169060  0.15494284  0.37657414  1
  O2-  O238  1  0.78105173  0.07167129  0.83184286  1
  O2-  O239  1  0.72312701  0.31126433  0.12432027  1
  O2-  O240  1  0.74519462  0.44496098  0.20262492  1
  O2-  O241  1  0.74877711  0.33711107  0.38432608  1
  O2-  O242  1  0.77046892  0.50226442  0.63712932  1
