# generated using pymatgen
data_Gd19Ta56(WO20)8
_symmetry_space_group_name_H-M   'P 1'
_cell_length_a   15.48074618
_cell_length_b   15.38028462
_cell_length_c   15.21215975
_cell_angle_alpha   90.06647300
_cell_angle_beta   89.79070017
_cell_angle_gamma   90.15098158
_symmetry_Int_Tables_number   1
_chemical_formula_structural   Gd19Ta56(WO20)8
_chemical_formula_sum   'Gd19 Ta56 W8 O160'
_cell_volume   3621.94996945
_cell_formula_units_Z   1
loop_
 _symmetry_equiv_pos_site_id
 _symmetry_equiv_pos_as_xyz
  1  'x, y, z'
loop_
 _atom_type_symbol
 _atom_type_oxidation_number
  Gd3+  3.0
  Ta5+  5.0
  W6+  6.0
  O2-  -2.0
loop_
 _atom_site_type_symbol
 _atom_site_label
 _atom_site_symmetry_multiplicity
 _atom_site_fract_x
 _atom_site_fract_y
 _atom_site_fract_z
 _atom_site_occupancy
  Gd3+  Gd0  1  0.77551881  0.26384955  0.72949821  1
  Gd3+  Gd1  1  0.25336467  0.72933028  0.00260740  1
  Gd3+  Gd2  1  0.49820168  0.25931744  0.49523884  1
  Gd3+  Gd3  1  0.43228746  0.25693264  0.26824221  1
  Gd3+  Gd4  1  0.27863097  0.26222095  -0.00664059  1
  Gd3+  Gd5  1  0.74210293  0.25151788  0.24156499  1
  Gd3+  Gd6  1  0.03188856  0.23132917  0.00050486  1
  Gd3+  Gd7  1  0.53624139  0.26756474  0.76709661  1
  Gd3+  Gd8  1  -0.03931938  0.73697036  0.24717217  1
  Gd3+  Gd9  1  0.27314338  0.24423333  0.75135277  1
  Gd3+  Gd10  1  0.73979371  0.74850725  0.03089817  1
  Gd3+  Gd11  1  0.73718511  0.74322487  0.78738088  1
  Gd3+  Gd12  1  -0.02915742  0.75174551  0.71248857  1
  Gd3+  Gd13  1  0.02428402  0.25525829  0.75654077  1
  Gd3+  Gd14  1  0.50858303  0.26809724  -0.00394114  1
  Gd3+  Gd15  1  0.78416932  0.23487125  0.50308876  1
  Gd3+  Gd16  1  0.52800604  0.74663533  0.49083790  1
  Gd3+  Gd17  1  0.50632516  0.76510851  0.75009285  1
  Gd3+  Gd18  1  0.00040613  0.73406024  -0.00892757  1
  Ta5+  Ta19  1  0.08767968  0.12901302  0.36713101  1
  Ta5+  Ta20  1  0.64416870  0.07337442  0.62615631  1
  Ta5+  Ta21  1  0.88364306  0.40673167  0.89194137  1
  Ta5+  Ta22  1  0.33317201  0.64083529  0.37918308  1
  Ta5+  Ta23  1  0.81140557  0.61576372  0.36297685  1
  Ta5+  Ta24  1  0.41145263  0.63568793  0.88696556  1
  Ta5+  Ta25  1  0.34557174  0.12098464  0.13385105  1
  Ta5+  Ta26  1  0.16144308  0.38147804  0.61903854  1
  Ta5+  Ta27  1  0.65880212  0.12354201  0.90874818  1
  Ta5+  Ta28  1  0.12437543  0.12733616  0.57616536  1
  Ta5+  Ta29  1  0.13240797  0.63058750  0.62559668  1
  Ta5+  Ta30  1  0.65616209  0.39066458  0.89483845  1
  Ta5+  Ta31  1  0.92968011  0.36821242  0.13244496  1
  Ta5+  Ta32  1  0.09695156  0.62546016  0.37470200  1
  Ta5+  Ta33  1  0.62604554  0.41454715  0.34898454  1
  Ta5+  Ta34  1  0.35728361  0.88863660  0.38577508  1
  Ta5+  Ta35  1  0.81642202  0.86931481  0.61150136  1
  Ta5+  Ta36  1  0.65001272  0.87069309  0.62366789  1
  Ta5+  Ta37  1  0.35230920  0.88074081  0.87414301  1
  Ta5+  Ta38  1  0.86537328  0.59787686  0.10946032  1
  Ta5+  Ta39  1  0.41981442  0.64959013  0.14102559  1
  Ta5+  Ta40  1  0.94104060  0.11573906  0.15868503  1
  Ta5+  Ta41  1  0.16238080  0.40108346  0.87275700  1
  Ta5+  Ta42  1  0.29272713  0.12569909  0.37806103  1
  Ta5+  Ta43  1  0.58729079  0.11424649  0.13803423  1
  Ta5+  Ta44  1  0.10617475  0.61410127  0.12457951  1
  Ta5+  Ta45  1  0.65302441  0.86144369  0.35593741  1
  Ta5+  Ta46  1  0.61240340  0.88128615  0.90999730  1
  Ta5+  Ta47  1  0.37214084  0.88136830  0.61285648  1
  Ta5+  Ta48  1  0.58688414  0.62149157  0.14207721  1
  Ta5+  Ta49  1  0.60251508  0.37730374  0.15129121  1
  Ta5+  Ta50  1  0.40447516  0.42563832  0.87476822  1
  Ta5+  Ta51  1  0.40754538  0.11951799  0.87391937  1
  Ta5+  Ta52  1  0.05789950  0.87928231  0.37558877  1
  Ta5+  Ta53  1  0.92047574  0.08449255  0.58939668  1
  Ta5+  Ta54  1  0.12671517  0.37719473  0.37486778  1
  Ta5+  Ta55  1  0.16985332  0.07462781  0.87909551  1
  Ta5+  Ta56  1  0.36808592  0.40378748  0.13483450  1
  Ta5+  Ta57  1  0.62765530  0.10361144  0.38074980  1
  Ta5+  Ta58  1  0.82302648  0.86380596  0.35740041  1
  Ta5+  Ta59  1  0.37549245  0.63662764  0.62404380  1
  Ta5+  Ta60  1  0.58460753  0.62001035  0.90049410  1
  Ta5+  Ta61  1  0.40298100  0.39263898  0.62067629  1
  Ta5+  Ta62  1  0.86789614  0.60046393  0.87161267  1
  Ta5+  Ta63  1  0.65341519  0.41705379  0.55955500  1
  Ta5+  Ta64  1  0.86552491  0.11191770  0.34953135  1
  Ta5+  Ta65  1  0.13329224  0.86797144  0.13152523  1
  Ta5+  Ta66  1  0.81682436  0.62401476  0.61365969  1
  Ta5+  Ta67  1  0.86043159  0.11274484  0.91688820  1
  Ta5+  Ta68  1  0.92556940  0.40205753  0.56606023  1
  Ta5+  Ta69  1  0.11611438  0.88129889  0.86975707  1
  Ta5+  Ta70  1  0.40280381  0.12391419  0.61523916  1
  Ta5+  Ta71  1  0.89461176  0.37951909  0.36505181  1
  Ta5+  Ta72  1  0.13589464  0.88164163  0.61286783  1
  Ta5+  Ta73  1  0.35221161  0.87868211  0.13295933  1
  Ta5+  Ta74  1  0.16969371  0.39083741  0.13202829  1
  W6+  W75  1  0.65314192  0.62914410  0.63505516  1
  W6+  W76  1  0.90390450  0.88050123  0.10632703  1
  W6+  W77  1  0.64688922  0.60446451  0.37979333  1
  W6+  W78  1  0.09964276  0.64084999  0.85064157  1
  W6+  W79  1  0.56220053  0.86274110  0.11307167  1
  W6+  W80  1  0.29304670  0.38694866  0.38345528  1
  W6+  W81  1  0.17729559  0.12058193  0.13365502  1
  W6+  W82  1  0.87329442  0.86994178  0.88536041  1
  O2-  O83  1  0.15520340  -0.01601228  0.12650026  1
  O2-  O84  1  0.07702374  0.00043829  0.36895339  1
  O2-  O85  1  0.15642957  0.01606495  0.61103643  1
  O2-  O86  1  0.06961353  -0.00229257  0.87658972  1
  O2-  O87  1  0.18170621  0.52095477  0.13918011  1
  O2-  O88  1  0.10441437  0.50101329  0.37410038  1
  O2-  O89  1  0.15841735  0.50129651  0.63105013  1
  O2-  O90  1  0.14180629  0.51042762  0.84052984  1
  O2-  O91  1  0.36699354  0.00013890  0.11050041  1
  O2-  O92  1  0.30627538  0.00121396  0.40790492  1
  O2-  O93  1  0.37860260  0.00465050  0.60397841  1
  O2-  O94  1  0.40096116  -0.00253919  0.88502631  1
  O2-  O95  1  0.38422586  0.52209412  0.13182382  1
  O2-  O96  1  0.31474296  0.52380768  0.39715374  1
  O2-  O97  1  0.38286260  0.51378270  0.60934649  1
  O2-  O98  1  0.33300610  0.52519083  0.86915376  1
  O2-  O99  1  0.57087794  -0.00260980  0.13032057  1
  O2-  O100  1  0.60926368  -0.01338374  0.38394762  1
  O2-  O101  1  0.56977581  -0.02005816  0.65161753  1
  O2-  O102  1  0.63852641  0.00317117  0.88119287  1
  O2-  O103  1  0.56852472  0.49297963  0.15286030  1
  O2-  O104  1  0.54712317  0.50212325  0.35177445  1
  O2-  O105  1  0.70235183  0.49802599  0.63456817  1
  O2-  O106  1  0.64886965  0.50798254  0.87500010  1
  O2-  O107  1  0.95533212  -0.00283347  0.15053961  1
  O2-  O108  1  0.83315487  -0.00368822  0.34122365  1
  O2-  O109  1  0.91412255  -0.02968647  0.62239258  1
  O2-  O110  1  0.87708784  0.00585112  0.87235565  1
  O2-  O111  1  0.86291764  0.47203824  0.12076866  1
  O2-  O112  1  0.86399980  0.49715909  0.34738312  1
  O2-  O113  1  0.88600719  0.50365988  0.61828857  1
  O2-  O114  1  0.95444949  0.51056461  0.91109806  1
  O2-  O115  1  0.15988371  0.26577559  0.09426430  1
  O2-  O116  1  0.08603323  0.25449564  0.37781724  1
  O2-  O117  1  0.17752685  0.22964006  0.62168271  1
  O2-  O118  1  0.06246917  0.32884865  0.89047045  1
  O2-  O119  1  0.06945435  0.74630052  0.12548939  1
  O2-  O120  1  0.04238482  0.74481602  0.37728676  1
  O2-  O121  1  0.10232470  0.75898410  0.62973600  1
  O2-  O122  1  0.04909688  0.77570730  0.84643333  1
  O2-  O123  1  0.33788249  0.25617242  0.13454010  1
  O2-  O124  1  0.31100302  0.24828198  0.36455879  1
  O2-  O125  1  0.42471447  0.25827476  0.64671209  1
  O2-  O126  1  0.41428685  0.25343510  0.85950761  1
  O2-  O127  1  0.43583346  0.78652096  0.14146716  1
  O2-  O128  1  0.31651988  0.77523273  0.40057078  1
  O2-  O129  1  0.42102275  0.76152946  0.62329375  1
  O2-  O130  1  0.40171723  0.76605959  0.86623838  1
  O2-  O131  1  0.64293314  0.24253249  0.13531958  1
  O2-  O132  1  0.52216782  0.16463316  0.38484400  1
  O2-  O133  1  0.70502408  0.31464003  0.60273092  1
  O2-  O134  1  0.62826018  0.24737738  0.90001477  1
  O2-  O135  1  0.61695962  0.74215299  0.11319496  1
  O2-  O136  1  0.62384243  0.74027704  0.37649729  1
  O2-  O137  1  0.59289765  0.75594326  0.62800849  1
  O2-  O138  1  0.64568202  0.74719985  0.91216880  1
  O2-  O139  1  0.97510856  0.24180661  0.14243751  1
  O2-  O140  1  0.88204789  0.24830451  0.38412678  1
  O2-  O141  1  0.87980320  0.30134389  0.61914803  1
  O2-  O142  1  0.95453652  0.18080150  0.86972136  1
  O2-  O143  1  0.88530345  0.73388954  0.09270344  1
  O2-  O144  1  0.85035113  0.73472162  0.36605848  1
  O2-  O145  1  0.86130599  0.74106623  0.60308966  1
  O2-  O146  1  0.84999657  0.73103991  0.89857428  1
  O2-  O147  1  0.13842849  0.12352485  -0.01195869  1
  O2-  O148  1  0.18676746  0.12560324  0.29038928  1
  O2-  O149  1  0.18697398  0.13021356  0.46182610  1
  O2-  O150  1  0.13916980  0.15566593  0.79054298  1
  O2-  O151  1  0.13210871  0.64308104  -0.00391542  1
  O2-  O152  1  0.06382029  0.62132384  0.24834323  1
  O2-  O153  1  0.10421045  0.62586905  0.50696257  1
  O2-  O154  1  0.04687018  0.62378404  0.71510922  1
  O2-  O155  1  0.39612034  0.15208371  0.00243798  1
  O2-  O156  1  0.35417459  0.11202937  0.26668812  1
  O2-  O157  1  0.36098661  0.15357893  0.50186956  1
  O2-  O158  1  0.36765313  0.12291315  0.74085307  1
  O2-  O159  1  0.39079820  0.66028916  0.01337969  1
  O2-  O160  1  0.39264951  0.65089151  0.27311737  1
  O2-  O161  1  0.40029539  0.65358576  0.49234938  1
  O2-  O162  1  0.41879445  0.63554522  0.74250356  1
  O2-  O163  1  0.57930368  0.13256558  0.01075220  1
  O2-  O164  1  0.64222727  0.11737240  0.25415075  1
  O2-  O165  1  0.66920242  0.11937368  0.50950261  1
  O2-  O166  1  0.64971806  0.16524461  0.70692570  1
  O2-  O167  1  0.62250547  0.60359115  0.01891163  1
  O2-  O168  1  0.64939281  0.61949036  0.24840887  1
  O2-  O169  1  0.60320535  0.62299864  0.50833441  1
  O2-  O170  1  0.61158773  0.65415010  0.77374020  1
  O2-  O171  1  0.92328289  0.12585578  0.02963155  1
  O2-  O172  1  0.83200775  0.13868946  0.21740242  1
  O2-  O173  1  0.86038334  0.10179155  0.47979458  1
  O2-  O174  1  0.82923738  0.14366991  0.64432826  1
  O2-  O175  1  0.81104444  0.59969369  -0.00599773  1
  O2-  O176  1  0.85189839  0.62795247  0.23100357  1
  O2-  O177  1  0.81511882  0.60898206  0.48841953  1
  O2-  O178  1  0.86257034  0.64509405  0.74634462  1
  O2-  O179  1  0.18919210  0.40246423  -0.00343448  1
  O2-  O180  1  0.17147875  0.36847144  0.25810091  1
  O2-  O181  1  0.18454484  0.37230179  0.49578708  1
  O2-  O182  1  0.14969097  0.34180977  0.74962775  1
  O2-  O183  1  0.14484744  0.84022283  -0.00893675  1
  O2-  O184  1  0.08983619  0.86116808  0.25216872  1
  O2-  O185  1  0.07524796  0.88151436  0.50536900  1
  O2-  O186  1  0.12261095  0.89195949  0.73872285  1
  O2-  O187  1  0.38452179  0.37551492  -0.00278632  1
  O2-  O188  1  0.36377484  0.38914038  0.26069422  1
  O2-  O189  1  0.39170586  0.36134664  0.49821118  1
  O2-  O190  1  0.42990632  0.40140468  0.75113326  1
  O2-  O191  1  0.32876995  0.86013890  -0.00025610  1
  O2-  O192  1  0.36522808  0.89236679  0.26300418  1
  O2-  O193  1  0.43265728  0.87743925  0.49139183  1
  O2-  O194  1  0.36513598  0.88356037  0.74019737  1
  O2-  O195  1  0.62345956  0.37676139  0.02630268  1
  O2-  O196  1  0.56403736  0.32330389  0.27937548  1
  O2-  O197  1  0.62155428  0.32713663  0.45056837  1
  O2-  O198  1  0.66342222  0.35087822  0.77400934  1
  O2-  O199  1  0.66432820  0.88359629  0.02370954  1
  O2-  O200  1  0.61919967  0.86432733  0.24027305  1
  O2-  O201  1  0.63331216  0.86266398  0.50004414  1
  O2-  O202  1  0.63223757  0.85165818  0.77231747  1
  O2-  O203  1  0.92454701  0.34475521  0.00474318  1
  O2-  O204  1  0.86984730  0.34040753  0.24304861  1
  O2-  O205  1  0.82958085  0.38079196  0.47977790  1
  O2-  O206  1  0.90006994  0.33448128  0.79369683  1
  O2-  O207  1  0.81948013  0.87042986  0.00884550  1
  O2-  O208  1  0.86634973  0.85230102  0.23301885  1
  O2-  O209  1  0.82594113  0.87621026  0.48765767  1
  O2-  O210  1  0.84783479  0.84261163  0.74650598  1
  O2-  O211  1  -0.02761761  -0.12469573  -0.01757257  1
  O2-  O212  1  -0.01892194  0.12339859  0.29205301  1
  O2-  O213  1  0.02569603  0.11829875  0.49534434  1
  O2-  O214  1  0.01666289  0.14141799  0.65512883  1
  O2-  O215  1  -0.01151081  0.59218640  0.08370209  1
  O2-  O216  1  0.04315514  0.40734772  0.13584294  1
  O2-  O217  1  -0.00693742  0.39498547  0.45180548  1
  O2-  O218  1  0.03642015  0.36171369  0.62474217  1
  O2-  O219  1  0.27720129  0.15312642  -0.11774274  1
  O2-  O220  1  0.24326567  -0.19611914  0.14040343  1
  O2-  O221  1  0.25473043  -0.14117215  0.58699454  1
  O2-  O222  1  0.23284620  -0.03959189  0.86928579  1
  O2-  O223  1  0.28152356  0.35637199  -0.14446781  1
  O2-  O224  1  0.21113234  0.65736576  0.35360595  1
  O2-  O225  1  0.25614421  0.65695363  0.62925430  1
  O2-  O226  1  0.28478108  0.36422490  0.65293280  1
  O2-  O227  1  0.50825175  -0.12621809  -0.03243891  1
  O2-  O228  1  0.47717303  0.15371167  0.16602947  1
  O2-  O229  1  0.52186069  0.13199356  0.58838225  1
  O2-  O230  1  0.52587297  0.12884431  0.83899770  1
  O2-  O231  1  0.48577999  0.52836672  -0.09268900  1
  O2-  O232  1  0.48266745  0.33556515  0.13134541  1
  O2-  O233  1  0.53659197  0.39338483  0.59802747  1
  O2-  O234  1  0.52554710  0.37193531  0.88583384  1
  O2-  O235  1  0.75003990  0.10988483  -0.00837378  1
  O2-  O236  1  0.74229565  0.16770615  0.36947858  1
  O2-  O237  1  0.73502259  -0.01566073  0.63370038  1
  O2-  O238  1  0.76970237  0.16011588  0.83786893  1
  O2-  O239  1  0.77331713  0.36164430  -0.07026159  1
  O2-  O240  1  0.69907664  0.39955580  0.23884587  1
  O2-  O241  1  0.68582249  0.47676780  0.45015759  1
  O2-  O242  1  0.81757791  0.49348797  0.82827523  1
