# generated using pymatgen
data_Gd19Ta56(WO20)8
_symmetry_space_group_name_H-M   'P 1'
_cell_length_a   15.58420095
_cell_length_b   15.49294168
_cell_length_c   15.26775881
_cell_angle_alpha   90.15663553
_cell_angle_beta   90.11714568
_cell_angle_gamma   90.22053032
_symmetry_Int_Tables_number   1
_chemical_formula_structural   Gd19Ta56(WO20)8
_chemical_formula_sum   'Gd19 Ta56 W8 O160'
_cell_volume   3686.27693866
_cell_formula_units_Z   1
loop_
 _symmetry_equiv_pos_site_id
 _symmetry_equiv_pos_as_xyz
  1  'x, y, z'
loop_
 _atom_type_symbol
 _atom_type_oxidation_number
  Gd3+  3.0
  Ta5+  5.0
  W6+  6.0
  O2-  -2.0
loop_
 _atom_site_type_symbol
 _atom_site_label
 _atom_site_symmetry_multiplicity
 _atom_site_fract_x
 _atom_site_fract_y
 _atom_site_fract_z
 _atom_site_occupancy
  Gd3+  Gd0  1  0.47924450  0.25974668  0.50100097  1
  Gd3+  Gd1  1  0.76387959  0.72199751  0.05399170  1
  Gd3+  Gd2  1  -0.02763754  0.22737939  0.77141086  1
  Gd3+  Gd3  1  0.47657972  0.26321731  0.76182770  1
  Gd3+  Gd4  1  0.72005772  0.24805903  0.49769420  1
  Gd3+  Gd5  1  0.49375567  0.76275402  0.25173112  1
  Gd3+  Gd6  1  0.75269395  0.23938278  0.22394154  1
  Gd3+  Gd7  1  0.75238056  0.75799073  0.49499451  1
  Gd3+  Gd8  1  0.77141686  0.23279182  -0.00919053  1
  Gd3+  Gd9  1  0.03915354  0.73927297  0.24923734  1
  Gd3+  Gd10  1  0.48071905  0.76418347  -0.01924549  1
  Gd3+  Gd11  1  0.50471283  0.78056185  0.50551691  1
  Gd3+  Gd12  1  0.70483057  0.22548716  0.78678713  1
  Gd3+  Gd13  1  0.27252145  0.73970307  0.23920470  1
  Gd3+  Gd14  1  -0.00455754  0.24428841  0.52051599  1
  Gd3+  Gd15  1  0.03122681  0.25352063  0.26259342  1
  Gd3+  Gd16  1  0.02327102  0.76934411  0.77395838  1
  Gd3+  Gd17  1  0.00128643  0.75015992  0.49740417  1
  Gd3+  Gd18  1  0.52669906  0.22907572  -0.01305158  1
  Ta5+  Ta19  1  0.84741336  0.64249611  0.87447055  1
  Ta5+  Ta20  1  0.41436415  0.11023285  0.13168706  1
  Ta5+  Ta21  1  0.82733444  0.08998841  0.65991198  1
  Ta5+  Ta22  1  0.59644529  0.38234313  0.31725880  1
  Ta5+  Ta23  1  0.67446066  0.66721433  0.86777544  1
  Ta5+  Ta24  1  0.34811402  0.08335338  0.87331992  1
  Ta5+  Ta25  1  0.10290318  0.39353114  0.88836229  1
  Ta5+  Ta26  1  0.91889610  0.59783252  0.12468784  1
  Ta5+  Ta27  1  0.37052722  0.13287595  0.62624465  1
  Ta5+  Ta28  1  0.12568210  0.38055108  0.38877607  1
  Ta5+  Ta29  1  0.64017229  0.42456157  0.62949953  1
  Ta5+  Ta30  1  0.59755621  0.66054818  0.64170585  1
  Ta5+  Ta31  1  0.84736366  0.83097496  0.88416509  1
  Ta5+  Ta32  1  0.33364400  0.87554019  0.86874027  1
  Ta5+  Ta33  1  0.38651100  0.40044049  0.89675201  1
  Ta5+  Ta34  1  0.11844923  0.37518441  0.64701799  1
  Ta5+  Ta35  1  0.11867648  0.11777771  0.11915073  1
  Ta5+  Ta36  1  0.87561412  0.37957931  0.37454679  1
  Ta5+  Ta37  1  0.84187411  0.41167564  0.62105675  1
  Ta5+  Ta38  1  0.90728683  0.63193240  0.63534206  1
  Ta5+  Ta39  1  0.13438663  0.87845044  0.39185182  1
  Ta5+  Ta40  1  0.16617826  0.64020108  0.87294485  1
  Ta5+  Ta41  1  0.62472073  0.39251926  0.10953835  1
  Ta5+  Ta42  1  0.62198250  0.42108474  0.86874654  1
  Ta5+  Ta43  1  0.41067552  0.36782323  0.12678441  1
  Ta5+  Ta44  1  0.15038135  0.60771590  0.10602902  1
  Ta5+  Ta45  1  0.12475590  0.11637715  0.38978119  1
  Ta5+  Ta46  1  0.86096016  0.61799059  0.37176536  1
  Ta5+  Ta47  1  0.91619001  0.09578601  0.09147830  1
  Ta5+  Ta48  1  0.35153838  0.13927770  0.36041419  1
  Ta5+  Ta49  1  0.07457102  0.61439664  0.64160338  1
  Ta5+  Ta50  1  0.63900087  0.88835380  0.36854248  1
  Ta5+  Ta51  1  0.88871492  0.85415517  0.14140863  1
  Ta5+  Ta52  1  0.87458972  0.87473053  0.63230810  1
  Ta5+  Ta53  1  0.64579217  0.90659577  0.63803106  1
  Ta5+  Ta54  1  0.85706954  0.38995044  0.86064947  1
  Ta5+  Ta55  1  0.33748226  0.88452798  0.11445838  1
  Ta5+  Ta56  1  0.36548924  0.63017227  0.39180582  1
  Ta5+  Ta57  1  0.13119616  0.36101852  0.11984226  1
  Ta5+  Ta58  1  0.16754072  0.89950890  0.87575865  1
  Ta5+  Ta59  1  0.39645343  0.61536584  0.12170808  1
  Ta5+  Ta60  1  0.58974275  0.12923201  0.35906843  1
  Ta5+  Ta61  1  0.88295108  0.85993958  0.35035178  1
  Ta5+  Ta62  1  0.37180266  0.89862891  0.37844253  1
  Ta5+  Ta63  1  0.86273445  0.03264312  0.86692503  1
  Ta5+  Ta64  1  0.35857037  0.39811769  0.63011902  1
  Ta5+  Ta65  1  0.36449916  0.38258651  0.36731164  1
  Ta5+  Ta66  1  0.14235389  0.12153488  0.64253015  1
  Ta5+  Ta67  1  0.11695394  0.11096157  0.90102892  1
  Ta5+  Ta68  1  0.89724373  0.40606843  0.11202181  1
  Ta5+  Ta69  1  0.33412130  0.62934678  0.87128865  1
  Ta5+  Ta70  1  0.65250775  0.86846507  0.13828774  1
  Ta5+  Ta71  1  0.17066601  0.62107996  0.43447820  1
  Ta5+  Ta72  1  0.67606454  0.84946773  0.88616376  1
  Ta5+  Ta73  1  0.65111255  0.03262834  0.85125728  1
  Ta5+  Ta74  1  0.87640592  0.09943352  0.37479257  1
  W6+  W75  1  0.42943404  0.63310874  0.63483513  1
  W6+  W76  1  0.61244617  0.09434543  0.62497169  1
  W6+  W77  1  0.17384828  0.87415934  0.12972891  1
  W6+  W78  1  0.60325233  0.03497506  0.14614062  1
  W6+  W79  1  0.14384256  0.87076978  0.63198932  1
  W6+  W80  1  0.59380258  0.64154569  0.11890633  1
  W6+  W81  1  0.36108858  0.88385568  0.62649071  1
  W6+  W82  1  0.61361114  0.62833089  0.37960255  1
  O2-  O83  1  0.15350558  0.00919903  0.14321475  1
  O2-  O84  1  0.09358160  -0.00362096  0.38202365  1
  O2-  O85  1  0.16318780  0.00711306  0.63165707  1
  O2-  O86  1  0.07925095  -0.00164907  0.89193680  1
  O2-  O87  1  0.16093290  0.48070192  0.11588681  1
  O2-  O88  1  0.15849702  0.49584193  0.40798212  1
  O2-  O89  1  0.06925214  0.48169256  0.65821449  1
  O2-  O90  1  0.13495192  0.50598389  0.88426108  1
  O2-  O91  1  0.34785894  0.00778247  0.11607978  1
  O2-  O92  1  0.38850927  0.01798228  0.36611496  1
  O2-  O93  1  0.35840815  0.01643745  0.63551018  1
  O2-  O94  1  0.40847391  -0.01555212  0.85202513  1
  O2-  O95  1  0.42004645  0.49808544  0.12844652  1
  O2-  O96  1  0.35872376  0.50567719  0.37663996  1
  O2-  O97  1  0.42419346  0.49554325  0.63267207  1
  O2-  O98  1  0.31856416  0.50192492  0.88966611  1
  O2-  O99  1  0.71336012  -0.02219326  0.16382523  1
  O2-  O100  1  0.60504620  0.00988584  0.37106943  1
  O2-  O101  1  0.54765747  -0.02719263  0.61941110  1
  O2-  O102  1  0.58589925  -0.04240087  0.91619418  1
  O2-  O103  1  0.62621278  0.50933254  0.12229197  1
  O2-  O104  1  0.62199548  0.48576702  0.37036226  1
  O2-  O105  1  0.59963846  0.53326202  0.60529064  1
  O2-  O106  1  0.65371795  0.53470306  0.85526581  1
  O2-  O107  1  0.89282433  -0.01336682  0.13132377  1
  O2-  O108  1  0.89683964  -0.01808916  0.37740535  1
  O2-  O109  1  0.89853978  -0.00321447  0.61667831  1
  O2-  O110  1  0.92615164  -0.06017746  0.89820063  1
  O2-  O111  1  0.82800738  0.50292497  0.13349649  1
  O2-  O112  1  0.83524190  0.49066119  0.39301184  1
  O2-  O113  1  0.90081338  0.50900353  0.59131181  1
  O2-  O114  1  0.84684287  0.50815161  0.87396427  1
  O2-  O115  1  0.15778976  0.24131180  0.14447940  1
  O2-  O116  1  0.12509169  0.25130671  0.39515935  1
  O2-  O117  1  0.06730395  0.25236180  0.65016995  1
  O2-  O118  1  0.04905599  0.21235858  0.89375216  1
  O2-  O119  1  0.15501966  0.73358332  0.14633269  1
  O2-  O120  1  0.11606515  0.73870874  0.39637961  1
  O2-  O121  1  0.10299471  0.74071703  0.62897346  1
  O2-  O122  1  0.14697036  0.76451651  0.86694711  1
  O2-  O123  1  0.41852888  0.24008474  0.11623987  1
  O2-  O124  1  0.32389717  0.26400482  0.37860163  1
  O2-  O125  1  0.39778922  0.28030605  0.63164025  1
  O2-  O126  1  0.41794971  0.27588563  0.89807203  1
  O2-  O127  1  0.37728053  0.75648097  0.12311751  1
  O2-  O128  1  0.38363253  0.76275300  0.37895207  1
  O2-  O129  1  0.40505888  0.76514777  0.61346632  1
  O2-  O130  1  0.36087547  0.75746368  0.88256740  1
  O2-  O131  1  0.66877038  0.26759897  0.09226768  1
  O2-  O132  1  0.62762645  0.27264413  0.37098219  1
  O2-  O133  1  0.72787881  0.18368089  0.64103641  1
  O2-  O134  1  0.59001114  0.28357014  0.86235028  1
  O2-  O135  1  0.55420747  0.78225757  0.11242990  1
  O2-  O136  1  0.58539144  0.76785488  0.37624247  1
  O2-  O137  1  0.58987422  0.79052250  0.64066521  1
  O2-  O138  1  0.58068434  0.76525163  0.87031123  1
  O2-  O139  1  0.84256270  0.19655491  0.10992141  1
  O2-  O140  1  0.80030339  0.28468189  0.36861819  1
  O2-  O141  1  0.90287542  0.18128687  0.62252185  1
  O2-  O142  1  0.84638259  0.25153915  0.85450448  1
  O2-  O143  1  0.91976581  0.72876628  0.15405919  1
  O2-  O144  1  0.92529057  0.73494190  0.35804151  1
  O2-  O145  1  0.93188422  0.76121039  0.63623021  1
  O2-  O146  1  0.93690906  0.73682016  0.88718441  1
  O2-  O147  1  0.18167951  0.13247323  0.00711422  1
  O2-  O148  1  0.12523003  0.13526293  0.26765457  1
  O2-  O149  1  0.09007479  0.13041137  0.52267415  1
  O2-  O150  1  0.11820980  0.12904204  0.76567715  1
  O2-  O151  1  0.11562724  0.63448309  -0.00439835  1
  O2-  O152  1  0.04347303  0.61023296  0.17140313  1
  O2-  O153  1  0.06631498  0.60941392  0.50535063  1
  O2-  O154  1  0.11814239  0.62729558  0.75984830  1
  O2-  O155  1  0.38008305  0.11976009  -0.01553926  1
  O2-  O156  1  0.34121498  0.14219319  0.23833844  1
  O2-  O157  1  0.37912581  0.14796358  0.50288686  1
  O2-  O158  1  0.37258011  0.15081249  0.76933999  1
  O2-  O159  1  0.39710340  0.63199675  -0.00590667  1
  O2-  O160  1  0.39569541  0.64256539  0.25832231  1
  O2-  O161  1  0.44977512  0.63773153  0.48335811  1
  O2-  O162  1  0.37490778  0.62669595  0.75867051  1
  O2-  O163  1  0.68060405  0.13950415  -0.08033114  1
  O2-  O164  1  0.64606576  0.14518075  0.25041085  1
  O2-  O165  1  0.60924098  0.14920406  0.48519339  1
  O2-  O166  1  0.59808277  0.11063304  0.76645880  1
  O2-  O167  1  0.64615775  0.65484802  -0.00752845  1
  O2-  O168  1  0.57766207  0.64467911  0.25447103  1
  O2-  O169  1  0.63480618  0.67167456  0.51686610  1
  O2-  O170  1  0.66959569  0.66209624  0.73661245  1
  O2-  O171  1  0.86190849  0.10331372  -0.02907961  1
  O2-  O172  1  0.83396644  0.12503017  0.26708581  1
  O2-  O173  1  0.80252512  0.13011141  0.46343229  1
  O2-  O174  1  0.76793275  0.07758539  0.77783701  1
  O2-  O175  1  0.87315258  0.63074226  0.01352266  1
  O2-  O176  1  0.89957626  0.59369909  0.25791165  1
  O2-  O177  1  0.86984563  0.65434838  0.50186548  1
  O2-  O178  1  0.86087522  0.63629239  0.74895851  1
  O2-  O179  1  0.14785710  0.34673739  -0.00512168  1
  O2-  O180  1  0.13232119  0.37231586  0.26021331  1
  O2-  O181  1  0.09489564  0.36298817  0.52147175  1
  O2-  O182  1  0.12778023  0.34756701  0.77627605  1
  O2-  O183  1  0.17847004  0.88578455  -0.00486474  1
  O2-  O184  1  0.14929618  0.85215706  0.26864609  1
  O2-  O185  1  0.08668136  0.87056869  0.50885620  1
  O2-  O186  1  0.10832988  0.88623339  0.75668462  1
  O2-  O187  1  0.34594718  0.38064764  0.02086317  1
  O2-  O188  1  0.35276744  0.37402175  0.23999703  1
  O2-  O189  1  0.36428107  0.38017044  0.50363940  1
  O2-  O190  1  0.37666814  0.37797409  0.76746445  1
  O2-  O191  1  0.38524632  0.87958469  -0.00289308  1
  O2-  O192  1  0.37265868  0.87486417  0.24710516  1
  O2-  O193  1  0.41708789  0.89614861  0.49605982  1
  O2-  O194  1  0.30980885  0.87300029  0.74637088  1
  O2-  O195  1  0.66341264  0.40180641  -0.01443587  1
  O2-  O196  1  0.68894807  0.37520548  0.22897036  1
  O2-  O197  1  0.58662441  0.33123008  0.56454245  1
  O2-  O198  1  0.58481929  0.39391618  0.73656400  1
  O2-  O199  1  0.68056640  0.84950670  0.01811042  1
  O2-  O200  1  0.58267928  0.88309544  0.25266130  1
  O2-  O201  1  0.64641182  0.87686484  0.49793668  1
  O2-  O202  1  0.66063905  0.92220842  0.76361573  1
  O2-  O203  1  0.85074554  0.36392834  0.00112633  1
  O2-  O204  1  0.88360825  0.36127783  0.23709618  1
  O2-  O205  1  0.89228639  0.35094543  0.50451795  1
  O2-  O206  1  0.89359655  0.36583193  0.72925690  1
  O2-  O207  1  0.86180594  0.83476519  0.02264376  1
  O2-  O208  1  0.96426340  0.86960822  0.25259749  1
  O2-  O209  1  0.88041566  0.84554790  0.49322838  1
  O2-  O210  1  0.87867506  0.85924892  0.75599286  1
  O2-  O211  1  0.02595408  0.09374747  0.02736634  1
  O2-  O212  1  -0.00253632  0.14404528  0.17396204  1
  O2-  O213  1  -0.01903729  0.16619795  0.38394885  1
  O2-  O214  1  -0.07767764  0.08898688  0.76676472  1
  O2-  O215  1  -0.02139967  0.48960105  0.07534498  1
  O2-  O216  1  0.01187941  0.33444335  0.12578642  1
  O2-  O217  1  -0.00147994  0.36800690  0.37086295  1
  O2-  O218  1  -0.01643866  0.38431359  0.88427465  1
  O2-  O219  1  0.23472009  0.03305843  -0.13254290  1
  O2-  O220  1  0.25425886  -0.11055753  0.40894350  1
  O2-  O221  1  0.24101585  0.10188870  0.40673180  1
  O2-  O222  1  0.24907890  0.17634090  0.63230323  1
  O2-  O223  1  0.27108879  0.61549807  0.13717429  1
  O2-  O224  1  0.24075913  0.63593328  0.32895663  1
  O2-  O225  1  0.27496905  0.63334089  0.49262866  1
  O2-  O226  1  0.23622259  0.39863680  0.63837844  1
  O2-  O227  1  0.52599234  0.10827710  0.06574421  1
  O2-  O228  1  0.49220784  0.06498504  0.21567539  1
  O2-  O229  1  0.47723397  0.17537449  0.36338133  1
  O2-  O230  1  0.49350430  0.16035098  0.63534019  1
  O2-  O231  1  0.51644497  0.36066444  0.04964383  1
  O2-  O232  1  0.52775371  0.37611709  0.20984994  1
  O2-  O233  1  0.48287959  0.36094960  0.38002344  1
  O2-  O234  1  0.49845884  0.44370756  0.89356869  1
  O2-  O235  1  0.76060360  -0.03642842  -0.10173837  1
  O2-  O236  1  0.75719787  -0.14767464  0.36134871  1
  O2-  O237  1  0.75889156  -0.16528410  0.62563404  1
  O2-  O238  1  0.72643883  0.01289142  0.61730687  1
  O2-  O239  1  0.73582913  0.36894215  -0.16751193  1
  O2-  O240  1  0.74922029  0.66115573  0.36909545  1
  O2-  O241  1  0.73902462  0.38626448  0.54604670  1
  O2-  O242  1  0.74941490  0.46204609  0.68540321  1
