# generated using pymatgen
data_Gd19Ta56(WO20)8
_symmetry_space_group_name_H-M   'P 1'
_cell_length_a   15.51563739
_cell_length_b   15.52332327
_cell_length_c   15.27467763
_cell_angle_alpha   89.99279001
_cell_angle_beta   90.00053280
_cell_angle_gamma   89.93630311
_symmetry_Int_Tables_number   1
_chemical_formula_structural   Gd19Ta56(WO20)8
_chemical_formula_sum   'Gd19 Ta56 W8 O160'
_cell_volume   3678.96879742
_cell_formula_units_Z   1
loop_
 _symmetry_equiv_pos_site_id
 _symmetry_equiv_pos_as_xyz
  1  'x, y, z'
loop_
 _atom_type_symbol
 _atom_type_oxidation_number
  Gd3+  3.0
  Ta5+  5.0
  W6+  6.0
  O2-  -2.0
loop_
 _atom_site_type_symbol
 _atom_site_label
 _atom_site_symmetry_multiplicity
 _atom_site_fract_x
 _atom_site_fract_y
 _atom_site_fract_z
 _atom_site_occupancy
  Gd3+  Gd0  1  0.00033755  0.25098210  0.25037373  1
  Gd3+  Gd1  1  0.53078192  0.25539953  0.52797765  1
  Gd3+  Gd2  1  0.72941154  0.75040128  -0.00482034  1
  Gd3+  Gd3  1  0.24583899  0.75429689  0.27501344  1
  Gd3+  Gd4  1  -0.01567843  0.76738716  0.25750100  1
  Gd3+  Gd5  1  0.73295817  0.25556150  0.26389777  1
  Gd3+  Gd6  1  0.26326396  0.76071857  0.51654847  1
  Gd3+  Gd7  1  0.00856011  0.25010183  -0.00060623  1
  Gd3+  Gd8  1  -0.01195368  0.23989104  0.49368679  1
  Gd3+  Gd9  1  0.74065031  0.24039657  0.75430879  1
  Gd3+  Gd10  1  0.24130335  0.74580796  -0.00579749  1
  Gd3+  Gd11  1  0.02034237  0.73607859  -0.02686240  1
  Gd3+  Gd12  1  0.28447597  0.24657275  0.76329356  1
  Gd3+  Gd13  1  0.23364159  0.75286741  0.75604580  1
  Gd3+  Gd14  1  0.73479591  0.24297198  -0.00563535  1
  Gd3+  Gd15  1  0.48841012  0.25752221  0.26475266  1
  Gd3+  Gd16  1  -0.02285703  0.24433233  0.74303283  1
  Gd3+  Gd17  1  0.49441090  0.25458867  -0.00274689  1
  Gd3+  Gd18  1  -0.00458706  0.76978265  0.74288050  1
  Ta5+  Ta19  1  0.63591586  0.62194064  0.61124735  1
  Ta5+  Ta20  1  0.39197301  0.61636585  0.62884441  1
  Ta5+  Ta21  1  0.86117549  0.87350668  0.87190824  1
  Ta5+  Ta22  1  0.40952654  0.87791537  0.65273180  1
  Ta5+  Ta23  1  0.85772263  0.37715746  0.61580570  1
  Ta5+  Ta24  1  0.61653967  0.11104103  0.37992831  1
  Ta5+  Ta25  1  0.64887042  0.38785255  0.12258701  1
  Ta5+  Ta26  1  0.12044672  0.60998512  0.61557173  1
  Ta5+  Ta27  1  0.15415943  0.12843661  0.12628980  1
  Ta5+  Ta28  1  0.11319254  0.38965965  0.86673335  1
  Ta5+  Ta29  1  0.39119755  0.87314502  0.87546010  1
  Ta5+  Ta30  1  0.13220338  0.89234738  0.39374066  1
  Ta5+  Ta31  1  0.39149487  0.39176008  0.87729343  1
  Ta5+  Ta32  1  0.88920985  0.87401331  0.11839730  1
  Ta5+  Ta33  1  0.57554473  0.63630781  0.37057780  1
  Ta5+  Ta34  1  0.38081486  0.61664184  0.88184513  1
  Ta5+  Ta35  1  0.68986247  0.38051330  0.61269940  1
  Ta5+  Ta36  1  0.67610224  0.10621913  0.61590378  1
  Ta5+  Ta37  1  0.35300273  0.37894790  0.12679174  1
  Ta5+  Ta38  1  0.35049028  0.12878103  0.38096872  1
  Ta5+  Ta39  1  0.36846427  0.39045249  0.38067830  1
  Ta5+  Ta40  1  0.90540137  0.61839044  0.60719395  1
  Ta5+  Ta41  1  0.64118704  0.85950521  0.61432403  1
  Ta5+  Ta42  1  0.62861393  0.38204701  0.86206913  1
  Ta5+  Ta43  1  0.87978663  0.11052458  0.87932121  1
  Ta5+  Ta44  1  0.61646216  0.39379789  0.37818815  1
  Ta5+  Ta45  1  0.40820573  0.63469619  0.38337246  1
  Ta5+  Ta46  1  0.82977303  0.63552075  0.37133675  1
  Ta5+  Ta47  1  0.15606945  0.37576441  0.12326218  1
  Ta5+  Ta48  1  0.60339013  0.87594494  0.11664167  1
  Ta5+  Ta49  1  0.62040449  0.61709571  0.86827405  1
  Ta5+  Ta50  1  0.64697167  0.11336084  0.12957874  1
  Ta5+  Ta51  1  0.86939342  0.61607208  0.86167469  1
  Ta5+  Ta52  1  0.12823800  0.12486308  0.86988157  1
  Ta5+  Ta53  1  0.09579569  0.94090853  0.89319797  1
  Ta5+  Ta54  1  0.13977099  0.12348706  0.61961994  1
  Ta5+  Ta55  1  0.37137588  0.62514705  0.13326648  1
  Ta5+  Ta56  1  0.59171880  0.86825917  0.85281892  1
  Ta5+  Ta57  1  0.61450180  0.11524653  0.86582751  1
  Ta5+  Ta58  1  0.11464215  0.61828457  0.16402683  1
  Ta5+  Ta59  1  0.60891168  0.62927183  0.12766535  1
  Ta5+  Ta60  1  0.84436953  0.11982076  0.61359613  1
  Ta5+  Ta61  1  0.09512209  0.58043760  0.81958796  1
  Ta5+  Ta62  1  0.85945437  0.38530812  0.12533147  1
  Ta5+  Ta63  1  0.15055864  0.12768648  0.37290431  1
  Ta5+  Ta64  1  0.37560626  0.11772598  0.61483889  1
  Ta5+  Ta65  1  0.84847522  0.10806201  0.36271028  1
  Ta5+  Ta66  1  0.12293704  0.38398750  0.38253583  1
  Ta5+  Ta67  1  0.36070520  0.37581049  0.61823870  1
  Ta5+  Ta68  1  0.86086405  0.38892626  0.36752431  1
  Ta5+  Ta69  1  0.87471564  0.37606468  0.87866198  1
  Ta5+  Ta70  1  0.65901185  0.86525542  0.36122953  1
  Ta5+  Ta71  1  0.85921718  0.11545096  0.12992093  1
  Ta5+  Ta72  1  0.12010439  0.89499300  0.63692481  1
  Ta5+  Ta73  1  0.87336656  0.87621745  0.61059861  1
  Ta5+  Ta74  1  0.87752262  0.62878991  0.12357938  1
  W6+  W75  1  0.82365036  0.85655563  0.36239575  1
  W6+  W76  1  0.35604735  0.87509921  0.13043910  1
  W6+  W77  1  0.13697172  0.88064648  0.13750816  1
  W6+  W78  1  0.12553723  0.36168293  0.63356547  1
  W6+  W79  1  0.09968031  0.63090822  0.40793458  1
  W6+  W80  1  0.38217081  0.88374621  0.39007638  1
  W6+  W81  1  0.40896566  0.12257259  0.87191643  1
  W6+  W82  1  0.38811397  0.11745198  0.13351855  1
  O2-  O83  1  0.16373166  0.01176623  0.11774506  1
  O2-  O84  1  0.10320499  0.01487411  0.38552057  1
  O2-  O85  1  0.09560766  0.01689778  0.65253796  1
  O2-  O86  1  0.19450008  0.01657330  0.88761900  1
  O2-  O87  1  0.13696165  0.49625632  0.13734739  1
  O2-  O88  1  0.08905608  0.49536804  0.39526671  1
  O2-  O89  1  0.12579676  0.49414521  0.61708873  1
  O2-  O90  1  0.16532498  0.50975817  0.88959492  1
  O2-  O91  1  0.38787462  -0.00252979  0.13618876  1
  O2-  O92  1  0.37583963  0.01464604  0.40745191  1
  O2-  O93  1  0.41676813  -0.00214127  0.63800339  1
  O2-  O94  1  0.40470405  -0.01197362  0.88018575  1
  O2-  O95  1  0.36004446  0.50381124  0.13335166  1
  O2-  O96  1  0.38625512  0.51069227  0.38961286  1
  O2-  O97  1  0.34990982  0.50371422  0.61110925  1
  O2-  O98  1  0.33833630  0.50188044  0.88804231  1
  O2-  O99  1  0.60107946  0.00353329  0.11259283  1
  O2-  O100  1  0.62546991  -0.00610035  0.36981062  1
  O2-  O101  1  0.65765486  -0.01714295  0.61688592  1
  O2-  O102  1  0.60051709  -0.00898999  0.87034420  1
  O2-  O103  1  0.60638888  0.50032228  0.11757466  1
  O2-  O104  1  0.57331712  0.50297432  0.36759641  1
  O2-  O105  1  0.68903888  0.51353586  0.60979299  1
  O2-  O106  1  0.66035437  0.49963312  0.88549784  1
  O2-  O107  1  0.86699729  -0.00687009  0.12466704  1
  O2-  O108  1  0.82406569  -0.00550642  0.35450460  1
  O2-  O109  1  0.85707491  -0.00193345  0.61821871  1
  O2-  O110  1  0.84386840  -0.00548069  0.88555712  1
  O2-  O111  1  0.87402657  0.50635014  0.11741972  1
  O2-  O112  1  0.84832267  0.50987957  0.36314420  1
  O2-  O113  1  0.89720802  0.49677478  0.62245380  1
  O2-  O114  1  0.85121357  0.49523396  0.88295132  1
  O2-  O115  1  0.09080211  0.26320142  0.12642982  1
  O2-  O116  1  0.08698240  0.24295924  0.37056076  1
  O2-  O117  1  0.07765718  0.23232406  0.63787605  1
  O2-  O118  1  0.08010389  0.25281082  0.86456038  1
  O2-  O119  1  0.11306915  0.74901556  0.18401695  1
  O2-  O120  1  0.14118471  0.76473970  0.40792244  1
  O2-  O121  1  0.13250410  0.76024796  0.64183035  1
  O2-  O122  1  0.12008745  0.70641265  0.85596035  1
  O2-  O123  1  0.42017944  0.26838505  0.13005751  1
  O2-  O124  1  0.38524251  0.26062072  0.37121010  1
  O2-  O125  1  0.33602151  0.25242415  0.61717530  1
  O2-  O126  1  0.38585924  0.26604698  0.87817461  1
  O2-  O127  1  0.30377131  0.73691325  0.13097254  1
  O2-  O128  1  0.33955565  0.75216032  0.39079789  1
  O2-  O129  1  0.34161251  0.73738613  0.65030063  1
  O2-  O130  1  0.32964601  0.73419987  0.86908526  1
  O2-  O131  1  0.66188498  0.25045297  0.12945703  1
  O2-  O132  1  0.58356285  0.25459507  0.38676157  1
  O2-  O133  1  0.66313585  0.24854731  0.61368270  1
  O2-  O134  1  0.60754870  0.24971750  0.86027861  1
  O2-  O135  1  0.65069823  0.74981461  0.11929526  1
  O2-  O136  1  0.59985877  0.76039949  0.35418105  1
  O2-  O137  1  0.68350019  0.73546364  0.62308000  1
  O2-  O138  1  0.64748940  0.74140487  0.87319261  1
  O2-  O139  1  0.85858769  0.25114158  0.13487494  1
  O2-  O140  1  0.88792607  0.25268638  0.35857170  1
  O2-  O141  1  0.89142541  0.24717838  0.61238316  1
  O2-  O142  1  0.90390630  0.24370444  0.88110389  1
  O2-  O143  1  0.93609769  0.74424001  0.10177390  1
  O2-  O144  1  0.90016473  0.73268873  0.37504330  1
  O2-  O145  1  0.90403360  0.74361160  0.63105116  1
  O2-  O146  1  0.90004330  0.74368458  0.86593741  1
  O2-  O147  1  0.11429573  0.14360233  0.00431706  1
  O2-  O148  1  0.10197988  0.13821756  0.24243965  1
  O2-  O149  1  0.09372353  0.13165673  0.50243211  1
  O2-  O150  1  0.17270972  0.14488358  0.75196850  1
  O2-  O151  1  0.12898326  0.65644999  0.04320685  1
  O2-  O152  1  0.16776210  0.62090145  0.27978107  1
  O2-  O153  1  0.19221743  0.63235132  0.51659396  1
  O2-  O154  1  0.18843383  0.61188802  0.73020786  1
  O2-  O155  1  0.41622942  0.13431537  0.00930123  1
  O2-  O156  1  0.41238647  0.13215077  0.26846813  1
  O2-  O157  1  0.42324269  0.15043914  0.50293003  1
  O2-  O158  1  0.39305196  0.14400886  0.73380312  1
  O2-  O159  1  0.33794329  0.63204297  0.00433117  1
  O2-  O160  1  0.36888219  0.64026904  0.25682976  1
  O2-  O161  1  0.37791795  0.65104888  0.50938425  1
  O2-  O162  1  0.38118421  0.61154296  0.75778022  1
  O2-  O163  1  0.60635255  0.14853886  0.00073705  1
  O2-  O164  1  0.59870287  0.14422046  0.25010594  1
  O2-  O165  1  0.60544099  0.12451039  0.50370648  1
  O2-  O166  1  0.64911438  0.11858780  0.74273020  1
  O2-  O167  1  0.64955900  0.62620378  0.00327329  1
  O2-  O168  1  0.62677360  0.62148341  0.24739545  1
  O2-  O169  1  0.61855539  0.63233042  0.48732170  1
  O2-  O170  1  0.62800701  0.61417987  0.74769882  1
  O2-  O171  1  0.91260296  0.12868184  0.00986775  1
  O2-  O172  1  0.91774308  0.12057913  0.25167360  1
  O2-  O173  1  0.88674807  0.12007235  0.48136747  1
  O2-  O174  1  0.86727518  0.13549531  0.74769827  1
  O2-  O175  1  0.83935745  0.64243823  -0.00156564  1
  O2-  O176  1  0.82882962  0.64256277  0.23714710  1
  O2-  O177  1  0.83829384  0.62563922  0.50465021  1
  O2-  O178  1  0.85474660  0.61846688  0.74033197  1
  O2-  O179  1  0.09945423  0.37068871  -0.00561873  1
  O2-  O180  1  0.09740126  0.37020589  0.25935797  1
  O2-  O181  1  0.08623036  0.35016656  0.49828958  1
  O2-  O182  1  0.18024889  0.35315431  0.76772014  1
  O2-  O183  1  0.12936115  0.85775275  -0.01297840  1
  O2-  O184  1  0.16419873  0.88744135  0.27424794  1
  O2-  O185  1  0.17045787  0.89807103  0.52168788  1
  O2-  O186  1  0.11538779  0.88164619  0.77497128  1
  O2-  O187  1  0.41663698  0.38489338  0.00502264  1
  O2-  O188  1  0.40791289  0.38761003  0.25902210  1
  O2-  O189  1  0.41619540  0.36884409  0.50050510  1
  O2-  O190  1  0.36421153  0.37921439  0.74539526  1
  O2-  O191  1  0.32989984  0.86189895  -0.01278031  1
  O2-  O192  1  0.35087889  0.86072247  0.26465082  1
  O2-  O193  1  0.36398469  0.86856742  0.53694369  1
  O2-  O194  1  0.32674497  0.87166394  0.75559075  1
  O2-  O195  1  0.60630302  0.35528102  0.00051539  1
  O2-  O196  1  0.60106724  0.35997777  0.24533289  1
  O2-  O197  1  0.61502828  0.38185178  0.50340326  1
  O2-  O198  1  0.66148764  0.37829493  0.74091071  1
  O2-  O199  1  0.64322411  0.87064265  -0.00800624  1
  O2-  O200  1  0.65198903  0.88415961  0.23110533  1
  O2-  O201  1  0.65548759  0.86092499  0.49086696  1
  O2-  O202  1  0.65718435  0.86242775  0.74811153  1
  O2-  O203  1  0.91388095  0.36804313  0.00554707  1
  O2-  O204  1  0.91579464  0.38036873  0.24676898  1
  O2-  O205  1  0.89629002  0.37332526  0.48551940  1
  O2-  O206  1  0.87043129  0.35705645  0.74918408  1
  O2-  O207  1  0.83781488  0.85268990  0.00191339  1
  O2-  O208  1  0.84084768  0.83247681  0.22160648  1
  O2-  O209  1  0.83686529  0.86098164  0.49979317  1
  O2-  O210  1  0.87632278  0.87022349  0.74767018  1
  O2-  O211  1  -0.01497840  -0.12320035  -0.09851842  1
  O2-  O212  1  0.00275031  -0.11263680  0.16817738  1
  O2-  O213  1  0.00079312  -0.12023012  0.61933202  1
  O2-  O214  1  0.01707839  0.05762020  0.87028865  1
  O2-  O215  1  -0.00761260  0.60681585  -0.10234732  1
  O2-  O216  1  -0.00444908  0.61149616  0.18417787  1
  O2-  O217  1  0.01639882  0.62624400  0.53683148  1
  O2-  O218  1  0.02171247  0.62667733  0.70776067  1
  O2-  O219  1  0.26294157  0.17388045  0.12797555  1
  O2-  O220  1  0.24992940  0.09709501  0.30425758  1
  O2-  O221  1  0.24646777  0.17159590  0.44406230  1
  O2-  O222  1  0.25812473  0.08758930  0.60297026  1
  O2-  O223  1  0.25558735  0.37889767  0.04533631  1
  O2-  O224  1  0.25342345  0.35000632  0.20004903  1
  O2-  O225  1  0.24582734  0.38452588  0.38785487  1
  O2-  O226  1  0.03251791  0.46302462  0.80693254  1
  O2-  O227  1  0.49254930  -0.18147296  -0.07741918  1
  O2-  O228  1  0.49131829  -0.15492002  0.12268846  1
  O2-  O229  1  0.52131009  -0.16320698  0.61399005  1
  O2-  O230  1  0.48783739  -0.12839185  0.77377395  1
  O2-  O231  1  0.50056797  0.61310519  -0.10199949  1
  O2-  O232  1  0.48894308  0.64714165  0.11149200  1
  O2-  O233  1  0.51133514  0.61480490  0.62442206  1
  O2-  O234  1  0.50828767  0.41129268  0.84835899  1
  O2-  O235  1  0.75324234  0.10894029  0.05664515  1
  O2-  O236  1  0.75649949  0.11568670  0.21504811  1
  O2-  O237  1  0.73604506  0.15965561  0.38312649  1
  O2-  O238  1  0.75128936  0.14671772  0.87850558  1
  O2-  O239  1  0.75571336  0.38461157  0.04750646  1
  O2-  O240  1  0.75459685  0.39253050  0.20415632  1
  O2-  O241  1  0.74195054  0.35798419  0.37839422  1
  O2-  O242  1  0.75327622  0.33592232  0.87678016  1
