# generated using pymatgen
data_Gd19Ta56(WO20)8
_symmetry_space_group_name_H-M   'P 1'
_cell_length_a   15.64877542
_cell_length_b   15.45359273
_cell_length_c   15.44347833
_cell_angle_alpha   89.95735040
_cell_angle_beta   90.15263487
_cell_angle_gamma   89.91338213
_symmetry_Int_Tables_number   1
_chemical_formula_structural   Gd19Ta56(WO20)8
_chemical_formula_sum   'Gd19 Ta56 W8 O160'
_cell_volume   3734.67474279
_cell_formula_units_Z   1
loop_
 _symmetry_equiv_pos_site_id
 _symmetry_equiv_pos_as_xyz
  1  'x, y, z'
loop_
 _atom_type_symbol
 _atom_type_oxidation_number
  Gd3+  3.0
  Ta5+  5.0
  W6+  6.0
  O2-  -2.0
loop_
 _atom_site_type_symbol
 _atom_site_label
 _atom_site_symmetry_multiplicity
 _atom_site_fract_x
 _atom_site_fract_y
 _atom_site_fract_z
 _atom_site_occupancy
  Gd3+  Gd0  1  0.50548572  0.75127600  0.74144579  1
  Gd3+  Gd1  1  0.00149778  0.25342865  0.50167915  1
  Gd3+  Gd2  1  0.75244576  0.25738876  0.25829765  1
  Gd3+  Gd3  1  -0.01263914  0.74843196  0.46487216  1
  Gd3+  Gd4  1  0.25857391  0.24418860  0.74353845  1
  Gd3+  Gd5  1  0.50075265  0.23809044  0.21870722  1
  Gd3+  Gd6  1  -0.00737811  0.76328209  0.00046597  1
  Gd3+  Gd7  1  0.76287522  0.71003281  0.01078963  1
  Gd3+  Gd8  1  0.02696257  0.76422417  0.74907077  1
  Gd3+  Gd9  1  0.00735230  0.25904061  0.00330480  1
  Gd3+  Gd10  1  0.26552244  0.23675253  0.49807856  1
  Gd3+  Gd11  1  0.00077299  0.25420340  0.24840247  1
  Gd3+  Gd12  1  0.26788927  0.75063712  0.51711945  1
  Gd3+  Gd13  1  0.25102452  0.24664546  0.25081100  1
  Gd3+  Gd14  1  0.75122661  0.76024717  0.50602718  1
  Gd3+  Gd15  1  0.48200333  0.73992215  0.02762489  1
  Gd3+  Gd16  1  0.25634596  0.75205633  0.75660882  1
  Gd3+  Gd17  1  0.74430564  0.76323853  0.76529569  1
  Gd3+  Gd18  1  0.49848641  0.24283182  0.74611036  1
  Ta5+  Ta19  1  0.32089471  0.62395753  0.12857962  1
  Ta5+  Ta20  1  0.38517155  0.11271760  0.36355932  1
  Ta5+  Ta21  1  0.87166002  0.38093232  0.86809575  1
  Ta5+  Ta22  1  0.37143283  0.38352407  0.62032942  1
  Ta5+  Ta23  1  0.88999514  0.38550249  0.38072091  1
  Ta5+  Ta24  1  0.84226181  0.88042843  0.12646987  1
  Ta5+  Ta25  1  0.09265037  0.62040371  0.60967145  1
  Ta5+  Ta26  1  0.85793167  0.37573753  0.62227788  1
  Ta5+  Ta27  1  0.32945893  0.87657903  0.35065393  1
  Ta5+  Ta28  1  0.15650035  0.86446384  0.12927751  1
  Ta5+  Ta29  1  0.39357768  0.90814740  0.59717194  1
  Ta5+  Ta30  1  0.62836747  0.37216110  0.86993579  1
  Ta5+  Ta31  1  0.87703422  0.12534496  0.12233719  1
  Ta5+  Ta32  1  0.66021847  0.87172371  0.35511199  1
  Ta5+  Ta33  1  0.39399097  0.57877122  0.62155196  1
  Ta5+  Ta34  1  0.12178598  0.11192681  0.12961969  1
  Ta5+  Ta35  1  0.65631638  0.61499665  0.36853990  1
  Ta5+  Ta36  1  0.38186178  0.38817878  0.87999915  1
  Ta5+  Ta37  1  0.37299502  0.62132429  0.88075499  1
  Ta5+  Ta38  1  0.12819588  0.61947842  0.87492467  1
  Ta5+  Ta39  1  0.62062494  0.37066139  0.62474342  1
  Ta5+  Ta40  1  0.10370174  0.88799488  0.60036328  1
  Ta5+  Ta41  1  0.88314147  0.88902592  0.87193267  1
  Ta5+  Ta42  1  0.61719057  0.36869421  0.37797883  1
  Ta5+  Ta43  1  0.12666790  0.11439972  0.38246284  1
  Ta5+  Ta44  1  0.88487106  0.62290657  0.61946917  1
  Ta5+  Ta45  1  0.62942406  0.62019630  0.14877671  1
  Ta5+  Ta46  1  0.59817590  0.90619917  0.60637220  1
  Ta5+  Ta47  1  0.15306850  0.63173131  0.12845025  1
  Ta5+  Ta48  1  0.67120745  0.86708571  0.15255228  1
  Ta5+  Ta49  1  0.65401282  0.88277675  0.94043192  1
  Ta5+  Ta50  1  0.37064212  0.88543242  0.88802199  1
  Ta5+  Ta51  1  0.62794868  0.61089796  0.61975406  1
  Ta5+  Ta52  1  0.17177371  0.63186507  0.37069112  1
  Ta5+  Ta53  1  0.36337580  0.37936596  0.11099016  1
  Ta5+  Ta54  1  0.38920522  0.13184315  0.89287045  1
  Ta5+  Ta55  1  0.90109910  0.62547298  0.13818969  1
  Ta5+  Ta56  1  0.86667263  0.38655343  0.12313874  1
  Ta5+  Ta57  1  0.14168758  0.38269184  0.88363739  1
  Ta5+  Ta58  1  0.13465836  0.39188876  0.12614925  1
  Ta5+  Ta59  1  0.82679323  0.88205340  0.35915962  1
  Ta5+  Ta60  1  0.16425905  0.86737230  0.36271571  1
  Ta5+  Ta61  1  0.37604653  0.37984563  0.36700766  1
  Ta5+  Ta62  1  0.65479764  0.11852563  0.11123231  1
  Ta5+  Ta63  1  0.61818494  0.61799365  0.88338274  1
  Ta5+  Ta64  1  0.60603087  0.11449680  0.88837478  1
  Ta5+  Ta65  1  0.89679061  0.88910554  0.61227464  1
  Ta5+  Ta66  1  0.35124058  0.12546069  0.10295798  1
  Ta5+  Ta67  1  0.62514566  0.11889824  0.37318685  1
  Ta5+  Ta68  1  0.14848046  0.87905064  0.91362188  1
  Ta5+  Ta69  1  0.82230169  0.62249007  0.36589003  1
  Ta5+  Ta70  1  0.32265440  0.87281743  0.11272942  1
  Ta5+  Ta71  1  0.34071170  0.62880860  0.36422265  1
  Ta5+  Ta72  1  0.88011583  0.12275205  0.38116724  1
  Ta5+  Ta73  1  0.85106207  0.13232372  0.62351020  1
  Ta5+  Ta74  1  0.12787445  0.37448729  0.63147638  1
  W6+  W75  1  0.13615738  0.12333477  0.89215185  1
  W6+  W76  1  0.11749049  0.12793157  0.64048956  1
  W6+  W77  1  0.88805212  0.13729858  0.86967181  1
  W6+  W78  1  0.87683421  0.62095347  0.86890172  1
  W6+  W79  1  0.37863282  0.11326151  0.62427364  1
  W6+  W80  1  0.14321622  0.38650606  0.37797319  1
  W6+  W81  1  0.61689323  0.37044104  0.11701224  1
  W6+  W82  1  0.61379540  0.11036089  0.62533668  1
  O2-  O83  1  0.14237449  -0.00463820  0.13273573  1
  O2-  O84  1  0.14540373  -0.00316037  0.37674501  1
  O2-  O85  1  0.13980195  0.00034257  0.61321339  1
  O2-  O86  1  0.12900981  -0.00999974  0.87714061  1
  O2-  O87  1  0.11456638  0.50873742  0.14069932  1
  O2-  O88  1  0.13897428  0.51555134  0.37699049  1
  O2-  O89  1  0.10127248  0.49446081  0.63329515  1
  O2-  O90  1  0.10610017  0.49975997  0.85327012  1
  O2-  O91  1  0.34493385  0.00553154  0.10553598  1
  O2-  O92  1  0.34200998  0.00527334  0.33797507  1
  O2-  O93  1  0.33677379  -0.01146933  0.66381605  1
  O2-  O94  1  0.37531467  0.01048213  0.88974746  1
  O2-  O95  1  0.34251294  0.49575477  0.13978086  1
  O2-  O96  1  0.36058060  0.49860365  0.36102148  1
  O2-  O97  1  0.30618640  0.49678377  0.64181348  1
  O2-  O98  1  0.41135327  0.50492272  0.84678632  1
  O2-  O99  1  0.65090904  -0.00087803  0.12676622  1
  O2-  O100  1  0.64452719  0.00126184  0.35459085  1
  O2-  O101  1  0.67597185  -0.00983964  0.63684319  1
  O2-  O102  1  0.59982246  -0.01543538  0.90221775  1
  O2-  O103  1  0.63686655  0.50171199  0.13633788  1
  O2-  O104  1  0.65397373  0.48123614  0.36108308  1
  O2-  O105  1  0.64995037  0.49593504  0.65108290  1
  O2-  O106  1  0.60098920  0.50113172  0.86562212  1
  O2-  O107  1  0.85361436  0.00716720  0.12702527  1
  O2-  O108  1  0.84245791  0.01072935  0.36476728  1
  O2-  O109  1  0.86481294  0.00548305  0.62673924  1
  O2-  O110  1  0.89749547  0.00479178  0.85437260  1
  O2-  O111  1  0.91096189  0.49752902  0.14445063  1
  O2-  O112  1  0.85697450  0.50071802  0.36826182  1
  O2-  O113  1  0.86195300  0.50109533  0.62484998  1
  O2-  O114  1  0.91566386  0.48988713  0.85957476  1
  O2-  O115  1  0.09398061  0.26007969  0.13144362  1
  O2-  O116  1  0.17299831  0.24531285  0.37922432  1
  O2-  O117  1  0.06902532  0.26482605  0.63944619  1
  O2-  O118  1  0.12110060  0.26146316  0.90202778  1
  O2-  O119  1  0.10467336  0.74576089  0.10264636  1
  O2-  O120  1  0.11381167  0.74778157  0.39236469  1
  O2-  O121  1  0.07415004  0.74853912  0.59044175  1
  O2-  O122  1  0.14908716  0.75621130  0.86980027  1
  O2-  O123  1  0.40519356  0.24856880  0.10205418  1
  O2-  O124  1  0.34794860  0.24567323  0.37055749  1
  O2-  O125  1  0.40475073  0.26000394  0.62049043  1
  O2-  O126  1  0.42083570  0.26875241  0.88134043  1
  O2-  O127  1  0.34807571  0.74575694  0.09654510  1
  O2-  O128  1  0.35205593  0.75463749  0.39169821  1
  O2-  O129  1  0.32500958  0.80835291  0.63641884  1
  O2-  O130  1  0.35436775  0.74853495  0.87709361  1
  O2-  O131  1  0.58981117  0.22979205  0.10363271  1
  O2-  O132  1  0.67018882  0.25129149  0.38671165  1
  O2-  O133  1  0.58729957  0.25173044  0.63114826  1
  O2-  O134  1  0.61060790  0.24744625  0.86494463  1
  O2-  O135  1  0.69164256  0.73210344  0.14310801  1
  O2-  O136  1  0.66525354  0.74119045  0.37947801  1
  O2-  O137  1  0.70740927  0.70314577  0.63004857  1
  O2-  O138  1  0.64655252  0.76502118  0.89159500  1
  O2-  O139  1  0.91716324  0.26357339  0.12324391  1
  O2-  O140  1  0.85399160  0.25561742  0.39198144  1
  O2-  O141  1  0.89268116  0.25463213  0.60004520  1
  O2-  O142  1  0.92813125  0.27126706  0.87859562  1
  O2-  O143  1  0.88373477  0.75409758  0.10807721  1
  O2-  O144  1  0.85597144  0.75235493  0.38624198  1
  O2-  O145  1  0.88808858  0.75533439  0.59188470  1
  O2-  O146  1  0.84814157  0.75448461  0.88995597  1
  O2-  O147  1  0.08077576  0.12670494  0.01278973  1
  O2-  O148  1  0.13043046  0.13904089  0.25517932  1
  O2-  O149  1  0.11053622  0.14476647  0.50423937  1
  O2-  O150  1  0.16171857  0.14279430  0.76599424  1
  O2-  O151  1  0.13925815  0.61494694  -0.00688251  1
  O2-  O152  1  0.15026180  0.65079560  0.25067522  1
  O2-  O153  1  0.17513685  0.63133526  0.51509907  1
  O2-  O154  1  0.14476524  0.65250195  0.72600760  1
  O2-  O155  1  0.30883705  0.15312393  -0.02164034  1
  O2-  O156  1  0.37551801  0.14375651  0.23170870  1
  O2-  O157  1  0.36434336  0.11624977  0.48535068  1
  O2-  O158  1  0.37659326  0.14909360  0.76765201  1
  O2-  O159  1  0.37310945  0.61000027  0.00097990  1
  O2-  O160  1  0.35305333  0.64629033  0.24557103  1
  O2-  O161  1  0.36168223  0.62447801  0.51305163  1
  O2-  O162  1  0.37992126  0.64726661  0.72822042  1
  O2-  O163  1  0.68366340  0.12072492  -0.01705182  1
  O2-  O164  1  0.64484510  0.14641887  0.24293002  1
  O2-  O165  1  0.61235848  0.11140459  0.49109275  1
  O2-  O166  1  0.58233002  0.11362018  0.76555796  1
  O2-  O167  1  0.60612514  0.64074304  0.01571307  1
  O2-  O168  1  0.58990298  0.62990625  0.26293402  1
  O2-  O169  1  0.63440906  0.60717010  0.49846353  1
  O2-  O170  1  0.61804782  0.64944837  0.75979037  1
  O2-  O171  1  0.90441321  0.13703840  0.00314885  1
  O2-  O172  1  0.87863312  0.15242580  0.25191293  1
  O2-  O173  1  0.90852022  0.12026925  0.50488989  1
  O2-  O174  1  0.87577192  0.14762488  0.73930759  1
  O2-  O175  1  0.88613027  0.61993497  0.00985224  1
  O2-  O176  1  0.84527047  0.64117855  0.24293601  1
  O2-  O177  1  0.82019309  0.62655165  0.50255850  1
  O2-  O178  1  0.83249995  0.64536575  0.73247528  1
  O2-  O179  1  0.09095296  0.39231539  0.00151827  1
  O2-  O180  1  0.17085673  0.37188371  0.24620032  1
  O2-  O181  1  0.11239690  0.36178292  0.50889957  1
  O2-  O182  1  0.15680191  0.35958677  0.75902636  1
  O2-  O183  1  0.07979873  0.87964799  0.01719084  1
  O2-  O184  1  0.12620223  0.85365067  0.24526865  1
  O2-  O185  1  0.17656599  0.86384853  0.49952688  1
  O2-  O186  1  0.15337757  0.83785119  0.70217452  1
  O2-  O187  1  0.41193015  0.40538405  -0.00114681  1
  O2-  O188  1  0.37452052  0.34867027  0.23837391  1
  O2-  O189  1  0.35565260  0.37400109  0.49390061  1
  O2-  O190  1  0.37007676  0.36089540  0.74982429  1
  O2-  O191  1  0.41205121  0.86727781  0.00346929  1
  O2-  O192  1  0.35002064  0.85720803  0.23050962  1
  O2-  O193  1  0.35761106  0.89981489  0.48333035  1
  O2-  O194  1  0.45543772  0.86999835  0.80638269  1
  O2-  O195  1  0.59904477  0.37930993  -0.01617977  1
  O2-  O196  1  0.62060614  0.33627972  0.25067189  1
  O2-  O197  1  0.59958499  0.38411389  0.50635951  1
  O2-  O198  1  0.57266331  0.37267175  0.75033734  1
  O2-  O199  1  0.58573136  0.84339533  0.04167679  1
  O2-  O200  1  0.59901809  0.85062661  0.24887426  1
  O2-  O201  1  0.63623176  0.86727188  0.49617763  1
  O2-  O202  1  0.62558806  0.83647043  0.70666262  1
  O2-  O203  1  0.87838487  0.38245578  -0.00148677  1
  O2-  O204  1  0.87778450  0.35675970  0.25438160  1
  O2-  O205  1  0.91613968  0.38789975  0.50734481  1
  O2-  O206  1  0.88328027  0.36475114  0.73976636  1
  O2-  O207  1  0.89830020  0.88304906  -0.00355878  1
  O2-  O208  1  0.87102364  0.86821188  0.24433938  1
  O2-  O209  1  0.82626231  0.88532684  0.49928368  1
  O2-  O210  1  0.85994620  0.85064110  0.73714096  1
  O2-  O211  1  0.00650236  -0.15025859  -0.13247988  1
  O2-  O212  1  0.00498954  0.16089757  0.36841185  1
  O2-  O213  1  -0.00576555  -0.11357058  0.52373726  1
  O2-  O214  1  0.00183637  -0.10333792  0.68173887  1
  O2-  O215  1  0.01030836  0.66306591  -0.12895205  1
  O2-  O216  1  0.01060619  0.34317939  0.36702026  1
  O2-  O217  1  -0.00987579  0.61257835  0.53144274  1
  O2-  O218  1  -0.01183024  0.62964916  0.69068441  1
  O2-  O219  1  0.24076885  -0.12491790  0.00182224  1
  O2-  O220  1  0.23657904  0.16512365  0.12564535  1
  O2-  O221  1  0.25145612  0.16536138  0.62323359  1
  O2-  O222  1  0.25928304  -0.11890472  0.83553670  1
  O2-  O223  1  0.26220250  0.39149477  -0.09944775  1
  O2-  O224  1  0.24894113  0.34551335  0.09123621  1
  O2-  O225  1  0.24639868  0.33759669  0.61837833  1
  O2-  O226  1  0.25425604  0.60830278  0.85220601  1
  O2-  O227  1  0.49946223  0.12657940  -0.05352803  1
  O2-  O228  1  0.50580162  0.15551766  0.34829102  1
  O2-  O229  1  0.50226727  -0.00784250  0.60447807  1
  O2-  O230  1  0.48940410  -0.17311786  0.61426842  1
  O2-  O231  1  0.49740533  0.66887126  -0.11606482  1
  O2-  O232  1  0.49640712  0.35877961  0.36641905  1
  O2-  O233  1  0.46485138  0.46857513  0.61568512  1
  O2-  O234  1  0.51031824  0.64018592  0.62535586  1
  O2-  O235  1  0.74212886  -0.13991441  0.03394362  1
  O2-  O236  1  0.76376848  0.17804035  0.12714512  1
  O2-  O237  1  0.73902134  0.15856772  0.61196510  1
  O2-  O238  1  0.75414644  -0.10480941  0.86625674  1
  O2-  O239  1  0.74856198  0.38043091  -0.13692028  1
  O2-  O240  1  0.75142418  0.35862743  0.13642365  1
  O2-  O241  1  0.73971567  0.35167737  0.62060672  1
  O2-  O242  1  0.73939490  0.61276503  0.89574394  1
