# generated using pymatgen
data_Gd19Ta56(WO20)8
_symmetry_space_group_name_H-M   'P 1'
_cell_length_a   15.62027640
_cell_length_b   15.51152280
_cell_length_c   15.04921613
_cell_angle_alpha   90.31502512
_cell_angle_beta   89.59912928
_cell_angle_gamma   90.41430031
_symmetry_Int_Tables_number   1
_chemical_formula_structural   Gd19Ta56(WO20)8
_chemical_formula_sum   'Gd19 Ta56 W8 O160'
_cell_volume   3646.10021131
_cell_formula_units_Z   1
loop_
 _symmetry_equiv_pos_site_id
 _symmetry_equiv_pos_as_xyz
  1  'x, y, z'
loop_
 _atom_type_symbol
 _atom_type_oxidation_number
  Gd3+  3.0
  Ta5+  5.0
  W6+  6.0
  O2-  -2.0
loop_
 _atom_site_type_symbol
 _atom_site_label
 _atom_site_symmetry_multiplicity
 _atom_site_fract_x
 _atom_site_fract_y
 _atom_site_fract_z
 _atom_site_occupancy
  Gd3+  Gd0  1  0.75755421  0.22676402  0.01733785  1
  Gd3+  Gd1  1  -0.00112560  0.25958985  0.50944339  1
  Gd3+  Gd2  1  -0.01285332  0.24974480  0.77703894  1
  Gd3+  Gd3  1  0.00463095  0.74180488  0.01147123  1
  Gd3+  Gd4  1  0.26104810  0.76368011  0.49680506  1
  Gd3+  Gd5  1  0.24692823  0.75323592  -0.00174333  1
  Gd3+  Gd6  1  0.48597007  0.75458802  0.26137280  1
  Gd3+  Gd7  1  0.22570880  0.26032502  0.46918064  1
  Gd3+  Gd8  1  0.52323413  0.23140661  -0.01421024  1
  Gd3+  Gd9  1  0.45752063  0.25239215  0.22168230  1
  Gd3+  Gd10  1  0.28741933  0.25597823  0.04133096  1
  Gd3+  Gd11  1  0.03238286  0.75010293  0.72392801  1
  Gd3+  Gd12  1  0.76042984  0.73465833  0.24860984  1
  Gd3+  Gd13  1  0.25922869  0.76341649  0.74509569  1
  Gd3+  Gd14  1  -0.00570512  0.77325629  0.25816433  1
  Gd3+  Gd15  1  0.73490749  0.74052407  0.00948860  1
  Gd3+  Gd16  1  0.74481736  0.75042673  0.74898054  1
  Gd3+  Gd17  1  0.75678094  0.25998389  0.46603561  1
  Gd3+  Gd18  1  0.51786869  0.25414615  0.74005035  1
  Ta5+  Ta19  1  0.35174554  0.61694113  0.12202878  1
  Ta5+  Ta20  1  0.88066590  0.87781133  0.87020271  1
  Ta5+  Ta21  1  0.08752406  0.89267371  0.87124960  1
  Ta5+  Ta22  1  0.64832518  0.37295011  0.13206270  1
  Ta5+  Ta23  1  0.82434442  0.37702786  0.87128485  1
  Ta5+  Ta24  1  0.84788790  0.37221137  0.14271807  1
  Ta5+  Ta25  1  0.40132897  0.87980519  0.87065854  1
  Ta5+  Ta26  1  0.62113578  0.08545102  0.15935349  1
  Ta5+  Ta27  1  0.59255076  0.61840647  0.86377319  1
  Ta5+  Ta28  1  0.92000633  0.13654486  0.12268957  1
  Ta5+  Ta29  1  0.59750038  0.37250812  0.36844768  1
  Ta5+  Ta30  1  0.62042152  0.62038306  0.37142715  1
  Ta5+  Ta31  1  0.34782266  0.62817030  0.36683958  1
  Ta5+  Ta32  1  0.62165196  0.87447423  0.61764521  1
  Ta5+  Ta33  1  0.85855427  0.12392658  0.63910045  1
  Ta5+  Ta34  1  0.41219659  0.39037231  0.59642628  1
  Ta5+  Ta35  1  0.14289789  0.61695197  0.60259315  1
  Ta5+  Ta36  1  0.66790695  0.11360261  0.84482464  1
  Ta5+  Ta37  1  0.36318021  0.14774328  0.60997434  1
  Ta5+  Ta38  1  0.59700798  0.87258647  0.87925921  1
  Ta5+  Ta39  1  0.12064689  0.61753676  0.13572066  1
  Ta5+  Ta40  1  0.14078765  0.13039715  0.89217341  1
  Ta5+  Ta41  1  0.08938850  0.14040989  0.11917145  1
  Ta5+  Ta42  1  0.89652417  0.62081924  0.63541825  1
  Ta5+  Ta43  1  0.08984532  0.12356940  0.36853796  1
  Ta5+  Ta44  1  0.86284033  0.38035735  0.65642564  1
  Ta5+  Ta45  1  0.63639936  0.90127761  0.13514550  1
  Ta5+  Ta46  1  0.66755463  0.87159677  0.37366449  1
  Ta5+  Ta47  1  0.17152960  0.37670047  0.88359994  1
  Ta5+  Ta48  1  0.10768477  0.39434737  0.36567018  1
  Ta5+  Ta49  1  0.91983736  0.11703742  0.37842470  1
  Ta5+  Ta50  1  0.83566202  0.88519917  0.38374750  1
  Ta5+  Ta51  1  0.87062548  0.88951249  0.12393297  1
  Ta5+  Ta52  1  0.39503188  0.63141453  0.86778160  1
  Ta5+  Ta53  1  0.29563411  0.04680987  0.14751655  1
  Ta5+  Ta54  1  0.62657869  0.62542784  0.61365564  1
  Ta5+  Ta55  1  0.35603133  0.38411933  0.35823563  1
  Ta5+  Ta56  1  0.83726112  0.11877657  0.86595057  1
  Ta5+  Ta57  1  0.86958801  0.60672456  0.12457774  1
  Ta5+  Ta58  1  0.10004867  0.37029096  0.12174194  1
  Ta5+  Ta59  1  0.87129887  0.62062168  0.38997165  1
  Ta5+  Ta60  1  0.64321865  0.38453308  0.61618672  1
  Ta5+  Ta61  1  0.59522942  0.11222987  0.38087477  1
  Ta5+  Ta62  1  0.34638657  0.88793156  0.35597933  1
  Ta5+  Ta63  1  0.64396050  0.11924089  0.62244306  1
  Ta5+  Ta64  1  0.36607299  0.38760126  0.84695953  1
  Ta5+  Ta65  1  0.88841811  0.61615317  0.86408873  1
  Ta5+  Ta66  1  0.17749917  0.89494813  0.35865932  1
  Ta5+  Ta67  1  0.13073511  0.13899563  0.63622627  1
  Ta5+  Ta68  1  0.13785897  0.89521559  0.61421309  1
  Ta5+  Ta69  1  0.35980517  0.10659010  0.85920644  1
  Ta5+  Ta70  1  0.34587735  0.12423291  0.35227474  1
  Ta5+  Ta71  1  0.12154948  0.89569386  0.12050034  1
  Ta5+  Ta72  1  0.89065854  0.88158232  0.62882027  1
  Ta5+  Ta73  1  0.37977120  0.63429328  0.62304940  1
  Ta5+  Ta74  1  0.18057386  0.63327546  0.34263214  1
  W6+  W75  1  0.10852260  0.61496385  0.86506802  1
  W6+  W76  1  0.37594618  0.90158802  0.62041144  1
  W6+  W77  1  0.91247296  0.39228845  0.39256575  1
  W6+  W78  1  0.60560579  0.59843981  0.11491460  1
  W6+  W79  1  0.37938308  0.88168741  0.10522554  1
  W6+  W80  1  0.43237416  0.44706573  0.11182520  1
  W6+  W81  1  0.65995294  0.37426802  0.86017317  1
  W6+  W82  1  0.12499244  0.37958140  0.64522014  1
  O2-  O83  1  0.08920025  0.01091350  0.10458182  1
  O2-  O84  1  0.14163141  0.01251368  0.36778073  1
  O2-  O85  1  0.14183107  0.01787010  0.64388812  1
  O2-  O86  1  0.09018748  0.01141930  0.87091489  1
  O2-  O87  1  0.11694153  0.49645617  0.12927333  1
  O2-  O88  1  0.13889787  0.50976906  0.35149494  1
  O2-  O89  1  0.17202317  0.50558509  0.62656589  1
  O2-  O90  1  0.16513947  0.49436675  0.87199540  1
  O2-  O91  1  0.39225704  0.01842749  0.08636313  1
  O2-  O92  1  0.37746057  0.00848930  0.35429737  1
  O2-  O93  1  0.40281890  0.03725706  0.62000097  1
  O2-  O94  1  0.42350638  0.00837948  0.85266744  1
  O2-  O95  1  0.46782942  0.58533713  0.09897506  1
  O2-  O96  1  0.35796156  0.50321869  0.38237739  1
  O2-  O97  1  0.39070423  0.50811544  0.61103728  1
  O2-  O98  1  0.38073194  0.50454632  0.86832426  1
  O2-  O99  1  0.54970300  -0.01159944  0.17662731  1
  O2-  O100  1  0.62020845  -0.00688074  0.36965152  1
  O2-  O101  1  0.65301971  -0.00534925  0.62169814  1
  O2-  O102  1  0.63934791  -0.01313634  0.86128710  1
  O2-  O103  1  0.56648909  0.46455217  0.12543930  1
  O2-  O104  1  0.61559851  0.49078773  0.34629321  1
  O2-  O105  1  0.66605849  0.50851362  0.61550796  1
  O2-  O106  1  0.61776940  0.50361619  0.87020011  1
  O2-  O107  1  0.88956212  0.00618249  0.11358297  1
  O2-  O108  1  0.87345328  0.00330808  0.38983299  1
  O2-  O109  1  0.86625635  0.00132837  0.62752184  1
  O2-  O110  1  0.84222218  -0.00930525  0.87557889  1
  O2-  O111  1  0.89340702  0.48828424  0.10719304  1
  O2-  O112  1  0.93903894  0.52655759  0.40109758  1
  O2-  O113  1  0.87595322  0.50113034  0.64050475  1
  O2-  O114  1  0.84763264  0.50445050  0.88017663  1
  O2-  O115  1  0.15750469  0.26189706  0.12086910  1
  O2-  O116  1  0.09618860  0.25520067  0.38464031  1
  O2-  O117  1  0.06627791  0.25076461  0.64217180  1
  O2-  O118  1  0.20657525  0.23527213  0.91248521  1
  O2-  O119  1  0.12539961  0.76094580  0.11225788  1
  O2-  O120  1  0.18071826  0.76144912  0.35771742  1
  O2-  O121  1  0.15139558  0.76223445  0.60822861  1
  O2-  O122  1  0.07818650  0.75319912  0.87286597  1
  O2-  O123  1  0.42678657  0.30604256  0.08405579  1
  O2-  O124  1  0.35863886  0.25273949  0.34980147  1
  O2-  O125  1  0.43635538  0.24471833  0.60085029  1
  O2-  O126  1  0.45795927  0.31169370  0.87722102  1
  O2-  O127  1  0.34024812  0.74727536  0.11241640  1
  O2-  O128  1  0.36967203  0.75777593  0.36306264  1
  O2-  O129  1  0.34954611  0.76282290  0.62611320  1
  O2-  O130  1  0.34368684  0.75272604  0.86758981  1
  O2-  O131  1  0.54494476  0.17565502  0.12440673  1
  O2-  O132  1  0.63333040  0.23895402  0.38808405  1
  O2-  O133  1  0.62291365  0.24869983  0.62238950  1
  O2-  O134  1  0.63404089  0.23930000  0.83782631  1
  O2-  O135  1  0.73952386  0.64237202  0.13313793  1
  O2-  O136  1  0.67244455  0.73348653  0.37737025  1
  O2-  O137  1  0.67035383  0.74362116  0.61103306  1
  O2-  O138  1  0.66103621  0.75732948  0.87696154  1
  O2-  O139  1  0.90665366  0.26474942  0.11472325  1
  O2-  O140  1  0.88725059  0.24818236  0.39906073  1
  O2-  O141  1  0.88839734  0.24917358  0.65665115  1
  O2-  O142  1  0.84060711  0.25020400  0.85750924  1
  O2-  O143  1  0.88255351  0.74357173  0.15318954  1
  O2-  O144  1  0.87895880  0.75077779  0.36286477  1
  O2-  O145  1  0.89953240  0.75164718  0.65622294  1
  O2-  O146  1  0.86100614  0.74723101  0.86081933  1
  O2-  O147  1  0.06373610  0.15433956  -0.01554404  1
  O2-  O148  1  0.10604058  0.13734277  0.24384669  1
  O2-  O149  1  0.12025216  0.14028772  0.50795896  1
  O2-  O150  1  0.11339482  0.15623503  0.77222043  1
  O2-  O151  1  0.14350128  0.63586840  0.00838070  1
  O2-  O152  1  0.07645949  0.65349523  0.25830109  1
  O2-  O153  1  0.16633495  0.63361768  0.47900537  1
  O2-  O154  1  0.14968920  0.65432242  0.73514791  1
  O2-  O155  1  0.38731049  0.16850293  -0.03743917  1
  O2-  O156  1  0.34965719  0.14072084  0.21634604  1
  O2-  O157  1  0.33318908  0.14178135  0.48401778  1
  O2-  O158  1  0.37856482  0.16760528  0.75136208  1
  O2-  O159  1  0.32968080  0.62800344  -0.01399129  1
  O2-  O160  1  0.39575901  0.63332265  0.24534415  1
  O2-  O161  1  0.35759670  0.64376298  0.49986123  1
  O2-  O162  1  0.33164712  0.63282890  0.74573249  1
  O2-  O163  1  0.64606328  0.13774683  -0.02964192  1
  O2-  O164  1  0.66613463  0.12254742  0.26690159  1
  O2-  O165  1  0.58400206  0.11234577  0.50967737  1
  O2-  O166  1  0.57787464  0.11562658  0.73208345  1
  O2-  O167  1  0.64570225  0.62510512  -0.01449144  1
  O2-  O168  1  0.58253368  0.63953007  0.24963400  1
  O2-  O169  1  0.58586361  0.61948420  0.49420067  1
  O2-  O170  1  0.64392103  0.64074629  0.74645108  1
  O2-  O171  1  0.86552632  0.13307893  -0.00992309  1
  O2-  O172  1  0.90948242  0.13236052  0.25011573  1
  O2-  O173  1  0.92333373  0.13141082  0.52443974  1
  O2-  O174  1  0.91797817  0.11445432  0.75536572  1
  O2-  O175  1  0.85128318  0.64531645  -0.00091330  1
  O2-  O176  1  0.85590825  0.60747877  0.25808251  1
  O2-  O177  1  0.85012463  0.63823518  0.52046897  1
  O2-  O178  1  0.82077100  0.62488845  0.74353290  1
  O2-  O179  1  0.10162399  0.36794162  -0.00900817  1
  O2-  O180  1  0.06983704  0.36834073  0.24781685  1
  O2-  O181  1  0.12533205  0.37058805  0.50082762  1
  O2-  O182  1  0.09575382  0.34699067  0.79103472  1
  O2-  O183  1  0.14657378  0.87564538  -0.01533034  1
  O2-  O184  1  0.10578134  0.87703755  0.24801341  1
  O2-  O185  1  0.16608599  0.89359245  0.49289903  1
  O2-  O186  1  0.14579272  0.86677487  0.75327022  1
  O2-  O187  1  0.29081860  0.37423329  -0.04690898  1
  O2-  O188  1  0.39629062  0.38837690  0.23876050  1
  O2-  O189  1  0.33524441  0.35866723  0.50194134  1
  O2-  O190  1  0.41329470  0.36782821  0.72061951  1
  O2-  O191  1  0.32635254  0.88035745  -0.02706739  1
  O2-  O192  1  0.40752835  0.87458669  0.23995035  1
  O2-  O193  1  0.35564844  0.88334402  0.48496695  1
  O2-  O194  1  0.33844132  0.89187308  0.75949099  1
  O2-  O195  1  0.63318933  0.33319416  0.00943360  1
  O2-  O196  1  0.58942130  0.33055600  0.24081436  1
  O2-  O197  1  0.66300368  0.37663329  0.47434919  1
  O2-  O198  1  0.59347787  0.38189854  0.73153790  1
  O2-  O199  1  0.64053657  0.85818677  0.01319013  1
  O2-  O200  1  0.61564744  0.83710865  0.24768943  1
  O2-  O201  1  0.66841167  0.86980100  0.49821637  1
  O2-  O202  1  0.64547351  0.85995186  0.74176664  1
  O2-  O203  1  0.81768100  0.36195069  -0.00253828  1
  O2-  O204  1  0.87597736  0.38260079  0.25848428  1
  O2-  O205  1  0.92200766  0.37560684  0.53998219  1
  O2-  O206  1  0.92342638  0.38003059  0.77006802  1
  O2-  O207  1  0.83754499  0.85357565  -0.00196582  1
  O2-  O208  1  0.87227839  0.88335744  0.25530821  1
  O2-  O209  1  0.84718506  0.85966652  0.51652307  1
  O2-  O210  1  0.82427689  0.87506781  0.74226070  1
  O2-  O211  1  -0.01637604  -0.11998780  -0.05331461  1
  O2-  O212  1  -0.00752214  -0.14155857  0.12173130  1
  O2-  O213  1  0.01301777  -0.11641378  0.61272726  1
  O2-  O214  1  -0.01964502  -0.12076115  0.78545347  1
  O2-  O215  1  -0.00718128  0.61218382  -0.06686169  1
  O2-  O216  1  -0.00763369  0.63139408  0.11669652  1
  O2-  O217  1  0.01802479  0.62888014  0.60102388  1
  O2-  O218  1  -0.02222213  0.61927235  0.76962675  1
  O2-  O219  1  0.22886303  0.11583747  0.07255490  1
  O2-  O220  1  0.24316964  -0.07189965  0.13945555  1
  O2-  O221  1  0.24554066  0.18928928  0.62968954  1
  O2-  O222  1  0.24904102  0.06501387  0.88045749  1
  O2-  O223  1  0.31301153  0.50102660  0.12030927  1
  O2-  O224  1  0.22792522  0.63197715  0.19979025  1
  O2-  O225  1  0.23321160  0.36370268  0.35332603  1
  O2-  O226  1  0.26378069  0.35887945  0.78630267  1
  O2-  O227  1  0.49908602  -0.10002451  -0.04536162  1
  O2-  O228  1  0.48638875  0.13750303  0.33683251  1
  O2-  O229  1  0.50641996  -0.12819157  0.60763111  1
  O2-  O230  1  0.49979162  -0.17358845  0.81149723  1
  O2-  O231  1  0.49385076  0.67233909  -0.07048236  1
  O2-  O232  1  0.48221268  0.36587824  0.39317274  1
  O2-  O233  1  0.52749556  0.39819126  0.56573100  1
  O2-  O234  1  0.49002268  0.60447220  0.78404308  1
  O2-  O235  1  0.70158789  0.01011462  0.10286145  1
  O2-  O236  1  0.74914743  -0.15799416  0.14297153  1
  O2-  O237  1  0.75526543  0.14654070  0.56206912  1
  O2-  O238  1  0.75080351  0.11943078  0.73220234  1
  O2-  O239  1  0.73663234  0.45111418  0.14939673  1
  O2-  O240  1  0.74146168  0.28685291  0.15246499  1
  O2-  O241  1  0.76069032  0.34204618  0.59247464  1
  O2-  O242  1  0.76228690  0.39199184  0.75206343  1
