# generated using pymatgen
data_Gd19Ta56(WO20)8
_symmetry_space_group_name_H-M   'P 1'
_cell_length_a   15.53633448
_cell_length_b   15.47820492
_cell_length_c   15.24378132
_cell_angle_alpha   90.04555566
_cell_angle_beta   90.18695002
_cell_angle_gamma   89.98911627
_symmetry_Int_Tables_number   1
_chemical_formula_structural   Gd19Ta56(WO20)8
_chemical_formula_sum   'Gd19 Ta56 W8 O160'
_cell_volume   3665.72100310
_cell_formula_units_Z   1
loop_
 _symmetry_equiv_pos_site_id
 _symmetry_equiv_pos_as_xyz
  1  'x, y, z'
loop_
 _atom_type_symbol
 _atom_type_oxidation_number
  Gd3+  3.0
  Ta5+  5.0
  W6+  6.0
  O2-  -2.0
loop_
 _atom_site_type_symbol
 _atom_site_label
 _atom_site_symmetry_multiplicity
 _atom_site_fract_x
 _atom_site_fract_y
 _atom_site_fract_z
 _atom_site_occupancy
  Gd3+  Gd0  1  0.73916056  0.25897365  0.72892790  1
  Gd3+  Gd1  1  -0.01438821  0.75485009  0.49016586  1
  Gd3+  Gd2  1  0.50515150  0.24684042  0.24638830  1
  Gd3+  Gd3  1  0.75149812  0.25212389  -0.01174585  1
  Gd3+  Gd4  1  -0.01231823  0.25486869  -0.01511786  1
  Gd3+  Gd5  1  0.50134653  0.75177651  -0.01005298  1
  Gd3+  Gd6  1  0.00552290  0.24002646  0.51750210  1
  Gd3+  Gd7  1  0.51682720  0.76067874  0.23267598  1
  Gd3+  Gd8  1  0.26962683  0.24115188  0.74105368  1
  Gd3+  Gd9  1  0.23456192  0.73684574  0.24660936  1
  Gd3+  Gd10  1  0.25200121  0.75333610  0.73909513  1
  Gd3+  Gd11  1  0.76896227  0.76625104  0.01071513  1
  Gd3+  Gd12  1  0.51742076  0.73797516  0.75011828  1
  Gd3+  Gd13  1  0.50705436  0.25463824  0.48368300  1
  Gd3+  Gd14  1  0.22848319  0.74940645  0.49144281  1
  Gd3+  Gd15  1  0.22453264  0.25173590  -0.01493010  1
  Gd3+  Gd16  1  0.27699802  0.25385475  0.50409006  1
  Gd3+  Gd17  1  -0.00430265  0.24591457  0.27112309  1
  Gd3+  Gd18  1  0.77677158  0.75653838  0.28073705  1
  Ta5+  Ta19  1  0.92319173  0.89107367  0.35865251  1
  Ta5+  Ta20  1  0.08353543  0.86894830  0.14249229  1
  Ta5+  Ta21  1  0.41376999  0.12041971  0.87190424  1
  Ta5+  Ta22  1  0.64468982  0.39491073  0.37315648  1
  Ta5+  Ta23  1  0.85228176  0.12423917  0.39579831  1
  Ta5+  Ta24  1  0.60981662  0.12324590  0.86556535  1
  Ta5+  Ta25  1  0.61730139  0.88250322  0.61611769  1
  Ta5+  Ta26  1  0.64541119  0.63394127  0.60552110  1
  Ta5+  Ta27  1  0.13201311  0.61930996  0.87277252  1
  Ta5+  Ta28  1  0.62425543  0.89626774  0.87097998  1
  Ta5+  Ta29  1  0.63802658  0.13281497  0.12494184  1
  Ta5+  Ta30  1  0.64297039  0.62567540  0.87312074  1
  Ta5+  Ta31  1  0.36062727  0.88732906  0.87174243  1
  Ta5+  Ta32  1  0.11100365  0.89184115  0.62683434  1
  Ta5+  Ta33  1  0.14291783  0.10668515  0.38426244  1
  Ta5+  Ta34  1  0.92161334  0.41754506  0.63832772  1
  Ta5+  Ta35  1  0.08623735  0.61649720  0.36605534  1
  Ta5+  Ta36  1  0.38815205  0.62244845  0.12080444  1
  Ta5+  Ta37  1  0.88373850  0.11680181  0.13283923  1
  Ta5+  Ta38  1  0.38219365  0.61983333  0.86441685  1
  Ta5+  Ta39  1  0.35677426  0.87742302  0.37070819  1
  Ta5+  Ta40  1  0.92040064  0.08943058  0.65358792  1
  Ta5+  Ta41  1  0.39304217  0.62963858  0.37748692  1
  Ta5+  Ta42  1  0.41767142  0.38323095  0.62566247  1
  Ta5+  Ta43  1  0.61886137  0.38135010  0.86986585  1
  Ta5+  Ta44  1  0.07949997  0.05878108  0.85023076  1
  Ta5+  Ta45  1  0.12514891  0.86289905  0.89476285  1
  Ta5+  Ta46  1  0.10249348  0.38056045  0.80385234  1
  Ta5+  Ta47  1  0.35911287  0.37928825  0.11717837  1
  Ta5+  Ta48  1  0.13424506  0.38196422  0.39755324  1
  Ta5+  Ta49  1  0.37824469  0.37306373  0.87663187  1
  Ta5+  Ta50  1  0.35194994  0.12141425  0.11157666  1
  Ta5+  Ta51  1  0.87834757  0.63740846  0.63508073  1
  Ta5+  Ta52  1  0.12522304  0.37138713  0.15345648  1
  Ta5+  Ta53  1  0.64049250  0.62341514  0.12939693  1
  Ta5+  Ta54  1  0.38895408  0.62709602  0.58887262  1
  Ta5+  Ta55  1  0.37025252  0.89057565  0.60902989  1
  Ta5+  Ta56  1  0.58845548  0.12874485  0.62367138  1
  Ta5+  Ta57  1  0.38027673  0.88381523  0.12257537  1
  Ta5+  Ta58  1  0.12904352  0.09273363  0.62455102  1
  Ta5+  Ta59  1  0.56056247  0.62751016  0.38300830  1
  Ta5+  Ta60  1  0.09121648  0.87373833  0.35612114  1
  Ta5+  Ta61  1  0.91522920  0.87350423  0.13948511  1
  Ta5+  Ta62  1  0.13227664  0.42638487  0.60304599  1
  Ta5+  Ta63  1  0.58413933  0.39048463  0.61977285  1
  Ta5+  Ta64  1  0.37267652  0.38390330  0.36329028  1
  Ta5+  Ta65  1  0.85806451  0.86793759  0.62653323  1
  Ta5+  Ta66  1  0.65631225  0.12628367  0.38043658  1
  Ta5+  Ta67  1  0.42079109  0.12730817  0.62016393  1
  Ta5+  Ta68  1  0.62882614  0.88841302  0.11497900  1
  Ta5+  Ta69  1  0.85980965  0.63513124  0.87088130  1
  Ta5+  Ta70  1  0.35016656  0.11989314  0.35685244  1
  Ta5+  Ta71  1  0.85963078  0.36679822  0.13934319  1
  Ta5+  Ta72  1  0.09569314  0.61747450  0.12450629  1
  Ta5+  Ta73  1  0.89642529  0.87596474  0.87403537  1
  Ta5+  Ta74  1  0.10586664  0.61810801  0.62452975  1
  W6+  W75  1  0.85012263  0.61900771  0.13436954  1
  W6+  W76  1  0.91978161  0.60720033  0.37077904  1
  W6+  W77  1  0.14109751  0.10855293  0.17449380  1
  W6+  W78  1  0.85734067  0.11493213  0.86280955  1
  W6+  W79  1  0.61912527  0.37959575  0.12284167  1
  W6+  W80  1  0.84392035  0.37917013  0.39398146  1
  W6+  W81  1  0.61080730  0.88413391  0.36831623  1
  W6+  W82  1  0.86151645  0.38476321  0.86633353  1
  O2-  O83  1  0.10309096  -0.01142673  0.13939316  1
  O2-  O84  1  0.14102508  -0.01404529  0.38418661  1
  O2-  O85  1  0.19322959  -0.01690358  0.60944662  1
  O2-  O86  1  0.16736269  -0.01474883  0.89573446  1
  O2-  O87  1  0.08931461  0.48607360  0.12831976  1
  O2-  O88  1  0.13269723  0.50386388  0.39223581  1
  O2-  O89  1  0.19529470  0.53303018  0.61999601  1
  O2-  O90  1  0.13397492  0.48490506  0.85578032  1
  O2-  O91  1  0.33496291  -0.00237223  0.12184536  1
  O2-  O92  1  0.38303708  0.00388020  0.36351362  1
  O2-  O93  1  0.37305866  0.01046984  0.61905409  1
  O2-  O94  1  0.34601287  0.00758259  0.87234352  1
  O2-  O95  1  0.39047666  0.49660380  0.10539325  1
  O2-  O96  1  0.38261189  0.50240334  0.37285686  1
  O2-  O97  1  0.40095011  0.50792172  0.61413442  1
  O2-  O98  1  0.36653672  0.49854316  0.86400159  1
  O2-  O99  1  0.62330801  0.01270655  0.11822070  1
  O2-  O100  1  0.63609666  0.01167622  0.35296965  1
  O2-  O101  1  0.61743351  0.00204961  0.63274223  1
  O2-  O102  1  0.67189370  0.00630113  0.86164940  1
  O2-  O103  1  0.65808077  0.50670539  0.13364833  1
  O2-  O104  1  0.58096770  0.50908062  0.37509500  1
  O2-  O105  1  0.60678624  0.51971705  0.61954296  1
  O2-  O106  1  0.64120444  0.50173947  0.87043990  1
  O2-  O107  1  0.90033150  -0.00203751  0.12409170  1
  O2-  O108  1  0.90440691  0.01479383  0.38383787  1
  O2-  O109  1  0.85266016  -0.01009808  0.63254913  1
  O2-  O110  1  0.84386691  -0.02047367  0.88302777  1
  O2-  O111  1  0.86337992  0.48345485  0.13486403  1
  O2-  O112  1  0.92391245  0.47461762  0.39009754  1
  O2-  O113  1  0.85001061  0.51542005  0.64049749  1
  O2-  O114  1  0.85011971  0.51646099  0.86661945  1
  O2-  O115  1  0.12570993  0.24555598  0.18236426  1
  O2-  O116  1  0.11964166  0.24648653  0.40622591  1
  O2-  O117  1  0.20087588  0.19329816  0.61511109  1
  O2-  O118  1  0.17607572  0.29450809  0.85095539  1
  O2-  O119  1  0.13624496  0.73848270  0.13386366  1
  O2-  O120  1  0.13360912  0.74214097  0.36293503  1
  O2-  O121  1  0.14948149  0.74746438  0.62879268  1
  O2-  O122  1  0.10260649  0.74108240  0.86956928  1
  O2-  O123  1  0.35459841  0.25310292  0.10698691  1
  O2-  O124  1  0.39074339  0.24445634  0.36005804  1
  O2-  O125  1  0.37196788  0.25417387  0.62202391  1
  O2-  O126  1  0.33996600  0.24030384  0.88605897  1
  O2-  O127  1  0.39833509  0.75436045  0.11894158  1
  O2-  O128  1  0.34152358  0.75121835  0.38556698  1
  O2-  O129  1  0.33686496  0.75544606  0.60617178  1
  O2-  O130  1  0.41308695  0.76273223  0.86154463  1
  O2-  O131  1  0.57470563  0.24388739  0.11315874  1
  O2-  O132  1  0.59051907  0.24302015  0.36932811  1
  O2-  O133  1  0.60300054  0.25873307  0.61660263  1
  O2-  O134  1  0.66667322  0.25793120  0.86141122  1
  O2-  O135  1  0.60986427  0.75885535  0.10152589  1
  O2-  O136  1  0.55975636  0.76202148  0.37472020  1
  O2-  O137  1  0.58622755  0.74440414  0.61823543  1
  O2-  O138  1  0.61322857  0.76038598  0.88233246  1
  O2-  O139  1  0.93404739  0.24749850  0.12963949  1
  O2-  O140  1  0.91722519  0.23652257  0.39996797  1
  O2-  O141  1  1.02548239  0.16742915  0.65140156  1
  O2-  O142  1  0.83821736  0.24911135  0.86421701  1
  O2-  O143  1  0.83916138  0.75880020  0.14427205  1
  O2-  O144  1  0.89594445  0.75716663  0.37007242  1
  O2-  O145  1  0.93008320  0.75832885  0.62533531  1
  O2-  O146  1  0.82319868  0.76691560  0.86951983  1
  O2-  O147  1  0.08248718  0.15138179  -0.07227135  1
  O2-  O148  1  0.06513542  0.11575881  0.28766785  1
  O2-  O149  1  0.08854938  0.10719827  0.50273815  1
  O2-  O150  1  0.14985976  0.09935327  0.75699451  1
  O2-  O151  1  0.12018961  0.61019631  -0.00372652  1
  O2-  O152  1  0.14385772  0.61091833  0.24697090  1
  O2-  O153  1  0.10158288  0.64756568  0.49633246  1
  O2-  O154  1  0.09518620  0.61989351  0.74846003  1
  O2-  O155  1  0.41202997  0.11658010  0.00530063  1
  O2-  O156  1  0.40570905  0.13033744  0.22782360  1
  O2-  O157  1  0.40810115  0.13984892  0.48938442  1
  O2-  O158  1  0.38008202  0.13663926  0.75003566  1
  O2-  O159  1  0.37010729  0.64001478  -0.01224834  1
  O2-  O160  1  0.36201767  0.63214122  0.24480751  1
  O2-  O161  1  0.30617796  0.62165253  0.49510760  1
  O2-  O162  1  0.38919177  0.64903255  0.72971595  1
  O2-  O163  1  0.64725147  0.14005165  -0.01224636  1
  O2-  O164  1  0.60642193  0.13735967  0.24464723  1
  O2-  O165  1  0.59189546  0.12910714  0.49414558  1
  O2-  O166  1  0.64270215  0.14120770  0.74514928  1
  O2-  O167  1  0.66650623  0.63670289  -0.00079953  1
  O2-  O168  1  0.61451786  0.64763341  0.25706057  1
  O2-  O169  1  0.64988133  0.63934109  0.48370144  1
  O2-  O170  1  0.63104797  0.64296879  0.74717082  1
  O2-  O171  1  0.88421388  0.14267409  0.00034516  1
  O2-  O172  1  0.89779920  0.13132036  0.25498750  1
  O2-  O173  1  0.90365311  0.13177776  0.53595066  1
  O2-  O174  1  0.83350237  0.14525455  0.71880929  1
  O2-  O175  1  0.85707627  0.64826706  -0.00401777  1
  O2-  O176  1  0.83672732  0.62564981  0.26830707  1
  O2-  O177  1  0.91439084  0.62733616  0.51499568  1
  O2-  O178  1  0.91445985  0.64661797  0.75519963  1
  O2-  O179  1  0.10808713  0.33077557  0.03297578  1
  O2-  O180  1  0.08104927  0.37641122  0.27900732  1
  O2-  O181  1  0.05589474  0.37981106  0.50255210  1
  O2-  O182  1  0.19032984  0.36974491  0.70144609  1
  O2-  O183  1  0.10321966  0.85431102  0.01256956  1
  O2-  O184  1  0.16437357  0.86394575  0.24873726  1
  O2-  O185  1  0.10361642  0.85362382  0.50165974  1
  O2-  O186  1  0.14084438  0.86880532  0.74687816  1
  O2-  O187  1  0.31076646  0.37571866  -0.01346374  1
  O2-  O188  1  0.40525751  0.37041728  0.23778465  1
  O2-  O189  1  0.39093838  0.36193501  0.49087529  1
  O2-  O190  1  0.36688332  0.35832477  0.75297317  1
  O2-  O191  1  0.40053808  0.87769463  -0.00870935  1
  O2-  O192  1  0.34704856  0.86291290  0.24577094  1
  O2-  O193  1  0.31195259  0.88648081  0.49535721  1
  O2-  O194  1  0.34682224  0.87117135  0.73724819  1
  O2-  O195  1  0.65811646  0.36814984  -0.01045145  1
  O2-  O196  1  0.59694226  0.36866269  0.25904014  1
  O2-  O197  1  0.58238597  0.38643859  0.48825196  1
  O2-  O198  1  0.63588067  0.37697563  0.74235560  1
  O2-  O199  1  0.58132165  0.89096105  -0.01114146  1
  O2-  O200  1  0.64971711  0.85443542  0.23941024  1
  O2-  O201  1  0.63464688  0.88233913  0.49692407  1
  O2-  O202  1  0.58089605  0.87226547  0.75211204  1
  O2-  O203  1  0.87477534  0.35147747  0.00671988  1
  O2-  O204  1  0.88110431  0.34720053  0.26135437  1
  O2-  O205  1  0.89144664  0.35020278  0.54372474  1
  O2-  O206  1  0.85451326  0.36154512  0.72412339  1
  O2-  O207  1  0.89838923  0.85027141  0.00503600  1
  O2-  O208  1  0.84589879  0.88590838  0.25371143  1
  O2-  O209  1  0.89873857  0.87492184  0.50325844  1
  O2-  O210  1  0.89980272  0.86831718  0.74652057  1
  O2-  O211  1  0.01707780  -0.07218968  -0.13008036  1
  O2-  O212  1  -0.00016426  -0.17011801  0.24543543  1
  O2-  O213  1  0.03133322  -0.00865287  0.63674692  1
  O2-  O214  1  -0.03005868  0.07071880  0.78544353  1
  O2-  O215  1  0.00300798  0.34459779  -0.13571634  1
  O2-  O216  1  -0.01667543  0.63852006  0.13590200  1
  O2-  O217  1  0.02662258  0.51134388  0.61194624  1
  O2-  O218  1  0.03406160  0.36824978  0.68722095  1
  O2-  O219  1  0.23507119  0.13265636  0.07166833  1
  O2-  O220  1  0.24078425  0.12596092  0.28504146  1
  O2-  O221  1  0.25621706  0.12053442  0.44549208  1
  O2-  O222  1  0.25145720  -0.16791223  0.88156829  1
  O2-  O223  1  0.24288784  0.39310545  0.15770365  1
  O2-  O224  1  0.25167248  0.35801267  0.35320824  1
  O2-  O225  1  0.21196853  0.38465199  0.51507929  1
  O2-  O226  1  0.25237174  0.64230071  0.84616081  1
  O2-  O227  1  0.51292431  0.03957076  -0.13472789  1
  O2-  O228  1  0.49932655  -0.10812226  0.14974285  1
  O2-  O229  1  0.48647778  -0.12594428  0.60153644  1
  O2-  O230  1  0.50913657  0.20003344  0.86829146  1
  O2-  O231  1  0.50829918  0.62326223  -0.12337911  1
  O2-  O232  1  0.51153386  0.62809097  0.10522908  1
  O2-  O233  1  0.47169280  0.64205847  0.49605415  1
  O2-  O234  1  0.49723922  0.37571823  0.89248685  1
  O2-  O235  1  0.75978135  0.14117607  0.12728043  1
  O2-  O236  1  0.75799788  0.16781374  0.32140584  1
  O2-  O237  1  0.75298951  0.09660294  0.46332017  1
  O2-  O238  1  0.73959257  -0.15008432  0.64013534  1
  O2-  O239  1  0.74747563  0.32308695  0.13206684  1
  O2-  O240  1  0.74302437  0.45767162  0.34562089  1
  O2-  O241  1  0.73312351  0.32145549  0.42939551  1
  O2-  O242  1  0.76193068  0.66763825  0.62914169  1
