# generated using pymatgen
data_Gd19Ta56(WO20)8
_symmetry_space_group_name_H-M   'P 1'
_cell_length_a   15.57035667
_cell_length_b   15.46567619
_cell_length_c   15.32974567
_cell_angle_alpha   89.98093302
_cell_angle_beta   89.96750378
_cell_angle_gamma   89.85571533
_symmetry_Int_Tables_number   1
_chemical_formula_structural   Gd19Ta56(WO20)8
_chemical_formula_sum   'Gd19 Ta56 W8 O160'
_cell_volume   3691.48368093
_cell_formula_units_Z   1
loop_
 _symmetry_equiv_pos_site_id
 _symmetry_equiv_pos_as_xyz
  1  'x, y, z'
loop_
 _atom_type_symbol
 _atom_type_oxidation_number
  Gd3+  3.0
  Ta5+  5.0
  W6+  6.0
  O2-  -2.0
loop_
 _atom_site_type_symbol
 _atom_site_label
 _atom_site_symmetry_multiplicity
 _atom_site_fract_x
 _atom_site_fract_y
 _atom_site_fract_z
 _atom_site_occupancy
  Gd3+  Gd0  1  0.01863721  0.25781303  0.01433030  1
  Gd3+  Gd1  1  0.22574683  0.76257080  -0.01299852  1
  Gd3+  Gd2  1  -0.00928650  0.25071550  0.50780215  1
  Gd3+  Gd3  1  0.23266580  0.25166804  0.49854465  1
  Gd3+  Gd4  1  0.74468047  0.24855423  0.50006748  1
  Gd3+  Gd5  1  0.48769454  0.26318913  0.24213550  1
  Gd3+  Gd6  1  -0.00980260  0.74801457  -0.01369580  1
  Gd3+  Gd7  1  0.23656033  0.24000887  0.25398120  1
  Gd3+  Gd8  1  0.48218888  0.27208267  0.52013071  1
  Gd3+  Gd9  1  0.24037991  0.70890529  0.74597189  1
  Gd3+  Gd10  1  0.21932732  0.74191836  0.50031083  1
  Gd3+  Gd11  1  0.52040863  0.74865225  0.01748152  1
  Gd3+  Gd12  1  0.50058036  0.75079229  0.25119810  1
  Gd3+  Gd13  1  0.26161291  0.24713640  -0.02046349  1
  Gd3+  Gd14  1  0.76957280  0.74201328  0.51339000  1
  Gd3+  Gd15  1  0.52667580  0.75790623  0.49098748  1
  Gd3+  Gd16  1  0.23193053  0.77934305  0.25259091  1
  Gd3+  Gd17  1  0.76190928  0.24861498  0.74090553  1
  Gd3+  Gd18  1  0.27701666  0.27476364  0.72853490  1
  Ta5+  Ta19  1  0.62115397  0.37287624  0.87140375  1
  Ta5+  Ta20  1  0.90454206  0.86324003  0.38310784  1
  Ta5+  Ta21  1  0.16671838  0.37856543  0.12189346  1
  Ta5+  Ta22  1  0.07431417  0.87300335  0.61602487  1
  Ta5+  Ta23  1  0.37926274  0.62168692  0.37013885  1
  Ta5+  Ta24  1  0.62722896  0.62237936  0.86778743  1
  Ta5+  Ta25  1  0.15373457  0.62404551  0.12884219  1
  Ta5+  Ta26  1  0.38033396  0.12482605  0.11925143  1
  Ta5+  Ta27  1  0.88434619  0.11841448  0.12638169  1
  Ta5+  Ta28  1  0.40242697  0.63392186  0.61974996  1
  Ta5+  Ta29  1  0.13180276  0.11621683  0.12376297  1
  Ta5+  Ta30  1  0.35993017  0.39596697  0.37989291  1
  Ta5+  Ta31  1  0.65786578  0.90264927  0.14781841  1
  Ta5+  Ta32  1  0.88063236  0.41198274  0.63458212  1
  Ta5+  Ta33  1  0.37090531  0.87948646  0.86620829  1
  Ta5+  Ta34  1  0.88721899  0.12353381  0.87417886  1
  Ta5+  Ta35  1  0.12182483  0.10039282  0.62864328  1
  Ta5+  Ta36  1  0.12389895  0.88439664  0.86019079  1
  Ta5+  Ta37  1  0.11440536  0.10933272  0.37804512  1
  Ta5+  Ta38  1  0.63294460  0.37068120  0.11478916  1
  Ta5+  Ta39  1  0.41010670  0.46419854  0.62350546  1
  Ta5+  Ta40  1  0.63013937  0.88240369  0.35830763  1
  Ta5+  Ta41  1  0.61624192  0.11585751  0.63702255  1
  Ta5+  Ta42  1  0.90694671  0.86218925  0.63496193  1
  Ta5+  Ta43  1  0.86864836  0.11541975  0.37397425  1
  Ta5+  Ta44  1  0.62193630  0.87187161  0.63131746  1
  Ta5+  Ta45  1  0.07090459  0.86479506  0.37409781  1
  Ta5+  Ta46  1  0.88859742  0.36619405  0.88172314  1
  Ta5+  Ta47  1  0.12088904  0.39195183  0.37416172  1
  Ta5+  Ta48  1  0.89389387  0.06370065  0.63090426  1
  Ta5+  Ta49  1  0.58064955  0.61839833  0.62403443  1
  Ta5+  Ta50  1  0.37941161  0.10717030  0.62055942  1
  Ta5+  Ta51  1  0.37170050  0.89267097  0.11161780  1
  Ta5+  Ta52  1  0.39491544  0.12582213  0.86166565  1
  Ta5+  Ta53  1  0.12550419  0.12019197  0.86439940  1
  Ta5+  Ta54  1  0.37190828  0.87902973  0.36934426  1
  Ta5+  Ta55  1  0.36446833  0.61935904  0.12694166  1
  Ta5+  Ta56  1  0.37779841  0.85847267  0.61698800  1
  Ta5+  Ta57  1  0.87727860  0.38608854  0.38117655  1
  Ta5+  Ta58  1  0.62402131  0.37704657  0.37503922  1
  Ta5+  Ta59  1  0.33520489  0.37733736  0.12223359  1
  Ta5+  Ta60  1  0.63214770  0.12369910  0.87897213  1
  Ta5+  Ta61  1  0.63639351  0.38801435  0.63082187  1
  Ta5+  Ta62  1  0.07007740  0.63849483  0.36508810  1
  Ta5+  Ta63  1  0.39038366  0.39245917  0.86825993  1
  Ta5+  Ta64  1  0.86878616  0.61579656  0.87268463  1
  Ta5+  Ta65  1  0.61360537  0.12651413  0.37613525  1
  Ta5+  Ta66  1  0.90404928  0.63789650  0.37632617  1
  Ta5+  Ta67  1  0.37047419  0.12373230  0.38566608  1
  Ta5+  Ta68  1  0.09022473  0.41798927  0.62282091  1
  Ta5+  Ta69  1  0.88236814  0.86703032  0.13064825  1
  Ta5+  Ta70  1  0.62953062  0.61979626  0.37023882  1
  Ta5+  Ta71  1  0.87411796  0.35965240  0.13793695  1
  Ta5+  Ta72  1  0.65644937  0.60723412  0.12297800  1
  Ta5+  Ta73  1  0.91677987  0.62577747  0.63214900  1
  Ta5+  Ta74  1  0.08300789  0.62950800  0.61759035  1
  W6+  W75  1  0.85994285  0.87671875  0.87628602  1
  W6+  W76  1  0.90866158  0.60951508  0.12642942  1
  W6+  W77  1  0.62380565  0.87226527  0.88792365  1
  W6+  W78  1  0.11555474  0.89064241  0.12095924  1
  W6+  W79  1  0.13637963  0.37990175  0.86169557  1
  W6+  W80  1  0.62634839  0.14473637  0.12063603  1
  W6+  W81  1  0.38252172  0.62699143  0.87897334  1
  W6+  W82  1  0.12174355  0.60492195  0.87310233  1
  O2-  O83  1  0.06989318  0.01653518  0.10748978  1
  O2-  O84  1  0.09538064  -0.00741880  0.39389756  1
  O2-  O85  1  0.14870190  -0.01088021  0.59221780  1
  O2-  O86  1  0.10877389  0.00426797  0.89739921  1
  O2-  O87  1  0.14857175  0.50303150  0.11256043  1
  O2-  O88  1  0.09516927  0.50954405  0.37756431  1
  O2-  O89  1  0.14039608  0.51646309  0.57658414  1
  O2-  O90  1  0.07179578  0.49117881  0.88056075  1
  O2-  O91  1  0.42113851  0.00520216  0.12473880  1
  O2-  O92  1  0.37990622  0.00246331  0.37616857  1
  O2-  O93  1  0.35797644  -0.01086402  0.61517727  1
  O2-  O94  1  0.39957377  0.00456285  0.85924197  1
  O2-  O95  1  0.35889263  0.50013821  0.13110191  1
  O2-  O96  1  0.32629592  0.51337135  0.35482142  1
  O2-  O97  1  0.31098060  0.53047435  0.61644745  1
  O2-  O98  1  0.43056513  0.50348903  0.87939687  1
  O2-  O99  1  0.67123947  0.01711497  0.13297101  1
  O2-  O100  1  0.60087771  0.00724695  0.38327201  1
  O2-  O101  1  0.63374897  -0.00008851  0.60689808  1
  O2-  O102  1  0.62616369  0.00647052  0.88981452  1
  O2-  O103  1  0.60772441  0.49083398  0.11594168  1
  O2-  O104  1  0.60457646  0.49300927  0.39165092  1
  O2-  O105  1  0.64486633  0.50355954  0.60772749  1
  O2-  O106  1  0.61933530  0.49763957  0.88100053  1
  O2-  O107  1  0.88020677  -0.00043377  0.12713324  1
  O2-  O108  1  0.87784646  -0.00347191  0.38873560  1
  O2-  O109  1  0.81948899  -0.02871495  0.63711390  1
  O2-  O110  1  0.84085279  0.01499136  0.87900986  1
  O2-  O111  1  0.91069341  0.47127913  0.13321202  1
  O2-  O112  1  0.88207133  0.50489985  0.38179087  1
  O2-  O113  1  0.83011813  0.52016788  0.63920291  1
  O2-  O114  1  0.85285790  0.48130803  0.88603478  1
  O2-  O115  1  0.12532716  0.24882695  0.14266685  1
  O2-  O116  1  0.14614444  0.25063809  0.36823670  1
  O2-  O117  1  0.18923869  0.20685591  0.63298932  1
  O2-  O118  1  0.18244653  0.23916577  0.84769490  1
  O2-  O119  1  0.15916495  0.75998904  0.12721659  1
  O2-  O120  1  0.14214604  0.74933748  0.36204550  1
  O2-  O121  1  0.12755326  0.75240707  0.63513959  1
  O2-  O122  1  0.14591747  0.75300215  0.85449766  1
  O2-  O123  1  0.37832384  0.25228482  0.11687816  1
  O2-  O124  1  0.36410947  0.25858124  0.40855095  1
  O2-  O125  1  0.35528863  0.23558192  0.59837868  1
  O2-  O126  1  0.35650761  0.25628267  0.85956601  1
  O2-  O127  1  0.40573824  0.76687804  0.13184604  1
  O2-  O128  1  0.35724317  0.74904932  0.33941993  1
  O2-  O129  1  0.30988111  0.75253309  0.62188212  1
  O2-  O130  1  0.33940079  0.75601416  0.88620710  1
  O2-  O131  1  0.56053852  0.27162776  0.11331331  1
  O2-  O132  1  0.55698175  0.25626878  0.38177590  1
  O2-  O133  1  0.65051862  0.24127207  0.64037791  1
  O2-  O134  1  0.66187135  0.25350990  0.84679501  1
  O2-  O135  1  0.59094971  0.71334692  0.14500865  1
  O2-  O136  1  0.62845351  0.75190740  0.34693028  1
  O2-  O137  1  0.60872551  0.74455801  0.62658559  1
  O2-  O138  1  0.57633244  0.73912073  0.87976582  1
  O2-  O139  1  0.93593439  0.24410861  0.13808883  1
  O2-  O140  1  0.86779753  0.24559867  0.41735605  1
  O2-  O141  1  0.76677024  0.34932678  0.61244707  1
  O2-  O142  1  0.83704728  0.24243234  0.87128512  1
  O2-  O143  1  0.92527801  0.74809262  0.11752215  1
  O2-  O144  1  0.83761379  0.75053562  0.38031320  1
  O2-  O145  1  0.87427186  0.74060132  0.64598957  1
  O2-  O146  1  0.88996516  0.73950395  0.87741716  1
  O2-  O147  1  0.13285444  0.15508027  -0.00644238  1
  O2-  O148  1  0.14551515  0.11227034  0.25591214  1
  O2-  O149  1  0.10833708  0.15209221  0.50224246  1
  O2-  O150  1  0.15614893  0.08863387  0.74878043  1
  O2-  O151  1  0.10400721  0.64987300  0.00865528  1
  O2-  O152  1  0.08819017  0.63267644  0.23378418  1
  O2-  O153  1  0.09075137  0.65658224  0.49144323  1
  O2-  O154  1  0.12808738  0.60942486  0.73624025  1
  O2-  O155  1  0.36684966  0.13040727  -0.01502666  1
  O2-  O156  1  0.37051686  0.15067164  0.25726929  1
  O2-  O157  1  0.43365936  0.12336241  0.49611069  1
  O2-  O158  1  0.34309136  0.13318214  0.74347297  1
  O2-  O159  1  0.42955089  0.63218428  0.01827065  1
  O2-  O160  1  0.42967014  0.62258226  0.23880308  1
  O2-  O161  1  0.35164053  0.65125532  0.48907449  1
  O2-  O162  1  0.38074667  0.65200908  0.74435065  1
  O2-  O163  1  0.66785973  0.15117856  -0.01021930  1
  O2-  O164  1  0.58129257  0.14406142  0.25753461  1
  O2-  O165  1  0.61773267  0.15143252  0.50779496  1
  O2-  O166  1  0.67426056  0.11399777  0.75051744  1
  O2-  O167  1  0.62052933  0.63051313  0.00035368  1
  O2-  O168  1  0.66137799  0.59699190  0.25373707  1
  O2-  O169  1  0.64492726  0.64712320  0.49744772  1
  O2-  O170  1  0.59006189  0.61318949  0.74987063  1
  O2-  O171  1  0.90964653  0.13696810  -0.00066967  1
  O2-  O172  1  0.85891161  0.12899070  0.25376589  1
  O2-  O173  1  0.86064939  0.12380928  0.52795358  1
  O2-  O174  1  0.86082936  0.12957521  0.73584932  1
  O2-  O175  1  0.92258589  0.61037753  -0.01503699  1
  O2-  O176  1  0.89524728  0.63083955  0.25584898  1
  O2-  O177  1  0.88085634  0.63724991  0.50958608  1
  O2-  O178  1  0.92294519  0.60356384  0.76632765  1
  O2-  O179  1  0.14106346  0.34457634  -0.00446130  1
  O2-  O180  1  0.15605476  0.38337050  0.25651821  1
  O2-  O181  1  0.10951337  0.34829435  0.51587079  1
  O2-  O182  1  0.15726674  0.38145788  0.71803246  1
  O2-  O183  1  0.10097871  0.85097075  -0.01379005  1
  O2-  O184  1  0.11781291  0.88101461  0.25493832  1
  O2-  O185  1  0.10430076  0.84421099  0.49531685  1
  O2-  O186  1  0.09900425  0.89431574  0.74219860  1
  O2-  O187  1  0.34664126  0.37690013  -0.01424519  1
  O2-  O188  1  0.35215347  0.35198729  0.25918893  1
  O2-  O189  1  0.41185784  0.40344253  0.49837562  1
  O2-  O190  1  0.36630767  0.39775304  0.74073001  1
  O2-  O191  1  0.41845612  0.87349686  -0.01014211  1
  O2-  O192  1  0.34372553  0.88816597  0.24116090  1
  O2-  O193  1  0.34149376  0.85548655  0.48947916  1
  O2-  O194  1  0.39281339  0.86102576  0.74621885  1
  O2-  O195  1  0.65496894  0.36373318  -0.00985446  1
  O2-  O196  1  0.60769910  0.36306674  0.25071643  1
  O2-  O197  1  0.62298116  0.34449619  0.50473734  1
  O2-  O198  1  0.67215369  0.38731665  0.75267063  1
  O2-  O199  1  0.60788963  0.86849273  0.03831056  1
  O2-  O200  1  0.56234065  0.88398997  0.22776947  1
  O2-  O201  1  0.65108784  0.85261461  0.48810440  1
  O2-  O202  1  0.62630788  0.87886366  0.74915412  1
  O2-  O203  1  0.88743002  0.34268993  0.00662799  1
  O2-  O204  1  0.87027539  0.35108095  0.26341152  1
  O2-  O205  1  0.89251764  0.38056805  0.51197168  1
  O2-  O206  1  0.86382298  0.36157791  0.75217191  1
  O2-  O207  1  0.91171533  0.87565591  0.00357215  1
  O2-  O208  1  0.90860994  0.86890156  0.25132899  1
  O2-  O209  1  0.86874089  0.85324060  0.50868162  1
  O2-  O210  1  0.90934076  0.88336438  0.75982109  1
  O2-  O211  1  0.00540074  0.14578002  -0.14975078  1
  O2-  O212  1  -0.00719790  0.14055144  0.37619976  1
  O2-  O213  1  -0.01863852  -0.02475351  0.59769024  1
  O2-  O214  1  0.00590071  0.13968272  0.63735839  1
  O2-  O215  1  0.00361988  0.33020315  -0.12252153  1
  O2-  O216  1  0.00178744  0.35206972  0.38210231  1
  O2-  O217  1  -0.01024427  0.49562691  0.63737735  1
  O2-  O218  1  -0.00938891  0.33193518  0.63562505  1
  O2-  O219  1  0.25752629  -0.10682912  0.07680313  1
  O2-  O220  1  0.25657454  0.12264547  0.12101020  1
  O2-  O221  1  0.24780972  0.12101189  0.40787764  1
  O2-  O222  1  0.24999821  -0.10002245  0.87379933  1
  O2-  O223  1  0.26465630  0.63778841  0.04991064  1
  O2-  O224  1  0.25965171  0.64016357  0.21048279  1
  O2-  O225  1  0.23998023  0.38535038  0.42295770  1
  O2-  O226  1  0.25162764  0.60942623  0.86008850  1
  O2-  O227  1  0.51304006  0.15170934  -0.14268260  1
  O2-  O228  1  0.49615407  -0.14450235  0.38283146  1
  O2-  O229  1  0.49889205  -0.12457515  0.59229863  1
  O2-  O230  1  0.49974229  0.12759041  0.66010257  1
  O2-  O231  1  0.50616096  0.34319540  -0.13479842  1
  O2-  O232  1  0.50422024  0.64550196  0.38814165  1
  O2-  O233  1  0.49220456  0.54621307  0.55919239  1
  O2-  O234  1  0.51554433  0.36614591  0.63903421  1
  O2-  O235  1  0.76488693  -0.15872353  0.12461991  1
  O2-  O236  1  0.71603602  -0.09670304  0.27737030  1
  O2-  O237  1  0.73588698  0.13970720  0.38374772  1
  O2-  O238  1  0.74617225  -0.15785564  0.91042219  1
  O2-  O239  1  0.77121697  0.60958360  0.10558959  1
  O2-  O240  1  0.75198518  0.36103637  0.13472093  1
  O2-  O241  1  0.74660072  0.36389596  0.39314937  1
  O2-  O242  1  0.74686530  0.63054979  0.85779936  1
