# generated using pymatgen
data_Gd19Ta56(WO20)8
_symmetry_space_group_name_H-M   'P 1'
_cell_length_a   15.53602321
_cell_length_b   15.38821496
_cell_length_c   15.41636806
_cell_angle_alpha   90.12183478
_cell_angle_beta   89.98009271
_cell_angle_gamma   90.12872779
_symmetry_Int_Tables_number   1
_chemical_formula_structural   Gd19Ta56(WO20)8
_chemical_formula_sum   'Gd19 Ta56 W8 O160'
_cell_volume   3685.59892530
_cell_formula_units_Z   1
loop_
 _symmetry_equiv_pos_site_id
 _symmetry_equiv_pos_as_xyz
  1  'x, y, z'
loop_
 _atom_type_symbol
 _atom_type_oxidation_number
  Gd3+  3.0
  Ta5+  5.0
  W6+  6.0
  O2-  -2.0
loop_
 _atom_site_type_symbol
 _atom_site_label
 _atom_site_symmetry_multiplicity
 _atom_site_fract_x
 _atom_site_fract_y
 _atom_site_fract_z
 _atom_site_occupancy
  Gd3+  Gd0  1  0.48385709  0.26253437  0.50723697  1
  Gd3+  Gd1  1  0.26813871  0.73309029  0.24827884  1
  Gd3+  Gd2  1  0.79723474  0.24567337  0.75386387  1
  Gd3+  Gd3  1  0.73866582  0.76736500  0.75247208  1
  Gd3+  Gd4  1  0.71684269  0.75752638  0.53177990  1
  Gd3+  Gd5  1  0.49351114  0.25906148  -0.00543555  1
  Gd3+  Gd6  1  0.48647157  0.73581718  0.74594891  1
  Gd3+  Gd7  1  0.00385141  0.74621923  -0.00847367  1
  Gd3+  Gd8  1  0.21218162  0.25578499  0.01850266  1
  Gd3+  Gd9  1  0.01072606  0.75300568  0.49669492  1
  Gd3+  Gd10  1  0.45176578  0.25327149  0.75513837  1
  Gd3+  Gd11  1  0.75374459  0.73603942  0.24613094  1
  Gd3+  Gd12  1  0.26045428  0.73628434  0.74240410  1
  Gd3+  Gd13  1  0.01006381  0.75144027  0.25012801  1
  Gd3+  Gd14  1  0.03383488  0.71575865  0.73184868  1
  Gd3+  Gd15  1  0.47751524  0.26848039  0.26125958  1
  Gd3+  Gd16  1  0.75829237  0.22019669  0.50101080  1
  Gd3+  Gd17  1  0.50492447  0.73569219  0.23582919  1
  Gd3+  Gd18  1  0.76110660  0.76082971  -0.00967690  1
  Ta5+  Ta19  1  0.38012137  0.87782152  0.62117582  1
  Ta5+  Ta20  1  0.09781893  0.13184513  0.14576278  1
  Ta5+  Ta21  1  0.67807392  0.57629255  0.11089039  1
  Ta5+  Ta22  1  0.12426847  0.61085258  0.13340942  1
  Ta5+  Ta23  1  0.84854967  0.59609137  0.39079005  1
  Ta5+  Ta24  1  0.13703291  0.87463650  0.88128017  1
  Ta5+  Ta25  1  0.88281371  0.60214246  0.09939479  1
  Ta5+  Ta26  1  0.12217350  0.12728397  0.88489192  1
  Ta5+  Ta27  1  0.85685337  0.90276967  0.36987183  1
  Ta5+  Ta28  1  0.62172016  0.93016632  0.62990047  1
  Ta5+  Ta29  1  0.38754401  0.59412522  0.36880141  1
  Ta5+  Ta30  1  0.32165107  0.12445815  0.87696429  1
  Ta5+  Ta31  1  0.62108417  0.59315973  0.88662323  1
  Ta5+  Ta32  1  0.88010804  0.88551079  0.12370331  1
  Ta5+  Ta33  1  0.93203681  0.13554108  0.10541776  1
  Ta5+  Ta34  1  0.86224302  0.61225636  0.59922049  1
  Ta5+  Ta35  1  0.62290241  0.59852487  0.64738202  1
  Ta5+  Ta36  1  0.38041650  0.88052979  0.87743188  1
  Ta5+  Ta37  1  0.92049687  0.12447160  0.61100122  1
  Ta5+  Ta38  1  0.34514157  0.12348757  0.62556769  1
  Ta5+  Ta39  1  0.13621613  0.14869437  0.38937594  1
  Ta5+  Ta40  1  0.07971081  0.36646475  0.15470905  1
  Ta5+  Ta41  1  0.60674018  0.13241138  0.37974817  1
  Ta5+  Ta42  1  0.35395245  0.37292813  0.12312453  1
  Ta5+  Ta43  1  0.36457724  0.60785567  0.10203623  1
  Ta5+  Ta44  1  0.40464524  0.86480034  0.38009488  1
  Ta5+  Ta45  1  0.63529993  0.36114172  0.63267260  1
  Ta5+  Ta46  1  0.90246098  0.36664850  0.59733584  1
  Ta5+  Ta47  1  0.09678034  0.37515603  0.89405276  1
  Ta5+  Ta48  1  0.61506199  0.12928670  0.63709855  1
  Ta5+  Ta49  1  0.89214198  0.14625185  0.35261641  1
  Ta5+  Ta50  1  0.37428242  0.61144416  0.61708558  1
  Ta5+  Ta51  1  0.62903849  0.37743759  0.12920354  1
  Ta5+  Ta52  1  0.92553999  0.37914895  0.86104677  1
  Ta5+  Ta53  1  0.84893604  0.36925122  0.10149225  1
  Ta5+  Ta54  1  0.62989219  0.61202639  0.40295692  1
  Ta5+  Ta55  1  0.31536906  0.37122859  0.62486071  1
  Ta5+  Ta56  1  0.34869966  0.11854623  0.12973357  1
  Ta5+  Ta57  1  0.37613838  0.11462478  0.37954410  1
  Ta5+  Ta58  1  0.65547912  0.35581769  0.88060177  1
  Ta5+  Ta59  1  0.88527470  0.88876229  0.86748250  1
  Ta5+  Ta60  1  0.14322349  0.61398327  0.88030390  1
  Ta5+  Ta61  1  0.37764951  0.62339756  0.90278813  1
  Ta5+  Ta62  1  0.88184429  0.87719517  0.61470188  1
  Ta5+  Ta63  1  0.95031500  0.12700334  0.85781363  1
  Ta5+  Ta64  1  0.34019270  0.38059526  0.87886048  1
  Ta5+  Ta65  1  0.13080152  0.89546749  0.62999316  1
  Ta5+  Ta66  1  0.81308569  0.36273295  0.35047548  1
  Ta5+  Ta67  1  0.64762631  0.88215655  0.38133686  1
  Ta5+  Ta68  1  0.64368768  0.16557100  0.87681047  1
  Ta5+  Ta69  1  0.62404442  0.88764540  0.12569579  1
  Ta5+  Ta70  1  0.64851951  0.36781792  0.38118703  1
  Ta5+  Ta71  1  0.62922430  0.91712958  0.87998161  1
  Ta5+  Ta72  1  0.13190135  0.88589182  0.13278668  1
  Ta5+  Ta73  1  0.15045420  0.55095363  0.36339273  1
  Ta5+  Ta74  1  0.37732570  0.87508439  0.12115312  1
  W6+  W75  1  0.05388824  0.37945597  0.64693364  1
  W6+  W76  1  0.08696394  0.37365125  0.40626543  1
  W6+  W77  1  0.89193215  0.60755228  0.85607696  1
  W6+  W78  1  0.12082320  0.89899039  0.37971574  1
  W6+  W79  1  0.61568446  0.14084958  0.13028698  1
  W6+  W80  1  0.07937846  0.14275643  0.63519205  1
  W6+  W81  1  0.14748290  0.57659552  0.54968600  1
  W6+  W82  1  0.29918476  0.35470786  0.37191339  1
  O2-  O83  1  0.10728613  0.00446527  0.12595513  1
  O2-  O84  1  0.11377971  0.01884093  0.39701632  1
  O2-  O85  1  0.11823027  0.01203240  0.63716390  1
  O2-  O86  1  0.13674599  -0.00346738  0.87746010  1
  O2-  O87  1  0.10951677  0.48895393  0.13760441  1
  O2-  O88  1  0.19787347  0.43995991  0.34356426  1
  O2-  O89  1  0.07259006  0.49637791  0.62857177  1
  O2-  O90  1  0.15180380  0.49264969  0.89639778  1
  O2-  O91  1  0.38993907  0.00086571  0.13219195  1
  O2-  O92  1  0.39971995  -0.00563750  0.36480695  1
  O2-  O93  1  0.35670439  0.00267839  0.63511312  1
  O2-  O94  1  0.35301488  0.00631811  0.86583057  1
  O2-  O95  1  0.39366648  0.48929077  0.13148132  1
  O2-  O96  1  0.38211030  0.47503842  0.36409947  1
  O2-  O97  1  0.35484781  0.48685532  0.63277637  1
  O2-  O98  1  0.37590921  0.49695293  0.87302046  1
  O2-  O99  1  0.62695117  0.00401849  0.12872196  1
  O2-  O100  1  0.62440451  0.00266607  0.38137509  1
  O2-  O101  1  0.69205690  0.03089627  0.60151809  1
  O2-  O102  1  0.64971218  0.03349271  0.88415215  1
  O2-  O103  1  0.58637285  0.49480384  0.14012439  1
  O2-  O104  1  0.62872604  0.49012388  0.40806625  1
  O2-  O105  1  0.64872418  0.48315263  0.60720481  1
  O2-  O106  1  0.66753581  0.47774088  0.89867057  1
  O2-  O107  1  0.89503352  0.00466517  0.12599832  1
  O2-  O108  1  0.87736250  0.01927726  0.35885569  1
  O2-  O109  1  0.89486459  -0.00189519  0.60522723  1
  O2-  O110  1  0.89393616  0.00714564  0.85197947  1
  O2-  O111  1  0.90928811  0.48207221  0.11803181  1
  O2-  O112  1  0.87121379  0.48311575  0.35961162  1
  O2-  O113  1  0.86638393  0.49034407  0.59725902  1
  O2-  O114  1  0.86685850  0.48750527  0.83242445  1
  O2-  O115  1  0.14283651  0.25927361  0.15030122  1
  O2-  O116  1  0.17973143  0.27305048  0.38215123  1
  O2-  O117  1  0.09517942  0.26486985  0.66982763  1
  O2-  O118  1  0.13601746  0.25809863  0.87451992  1
  O2-  O119  1  0.13806120  0.74607159  0.16220392  1
  O2-  O120  1  0.08182450  0.77176019  0.37361880  1
  O2-  O121  1  0.07847544  0.68483861  0.59915506  1
  O2-  O122  1  0.10326476  0.74574702  0.88405813  1
  O2-  O123  1  0.38411466  0.24512101  0.10184884  1
  O2-  O124  1  0.39423294  0.25127863  0.38832286  1
  O2-  O125  1  0.37730027  0.25529579  0.61875677  1
  O2-  O126  1  0.37620609  0.25140021  0.89240800  1
  O2-  O127  1  0.35721730  0.74248965  0.12670886  1
  O2-  O128  1  0.37021391  0.74410164  0.36992753  1
  O2-  O129  1  0.39401972  0.74471219  0.62323293  1
  O2-  O130  1  0.40783343  0.75304011  0.88211654  1
  O2-  O131  1  0.56080323  0.26723268  0.13483151  1
  O2-  O132  1  0.57017567  0.26009574  0.37859504  1
  O2-  O133  1  0.56155023  0.25372366  0.65043716  1
  O2-  O134  1  0.56182524  0.26525249  0.85236808  1
  O2-  O135  1  0.74824087  0.85346195  0.13025718  1
  O2-  O136  1  0.66686600  0.74707589  0.38457889  1
  O2-  O137  1  0.61793856  0.73248685  0.67483250  1
  O2-  O138  1  0.75272842  0.86839761  0.86806187  1
  O2-  O139  1  0.89299076  0.25600645  0.09803453  1
  O2-  O140  1  0.80421541  0.22915808  0.34769914  1
  O2-  O141  1  0.85222123  0.24132552  0.61239904  1
  O2-  O142  1  0.91749815  0.24893566  0.85096842  1
  O2-  O143  1  0.86321121  0.73969005  0.10984861  1
  O2-  O144  1  0.88563127  0.69043804  0.31881428  1
  O2-  O145  1  0.86618381  0.75128167  0.57696961  1
  O2-  O146  1  0.87774102  0.74482312  0.88970034  1
  O2-  O147  1  0.12290289  0.13822415  0.01003662  1
  O2-  O148  1  0.09328896  0.14471949  0.27432019  1
  O2-  O149  1  0.08983079  0.16203362  0.50114809  1
  O2-  O150  1  0.05533760  0.12216471  0.77300207  1
  O2-  O151  1  0.11715441  0.63628888  0.01205803  1
  O2-  O152  1  0.10034620  0.61371162  0.27090218  1
  O2-  O153  1  0.26183256  0.61567051  0.35770824  1
  O2-  O154  1  0.15473330  0.63915952  0.75798512  1
  O2-  O155  1  0.32006164  0.12396143  0.00390039  1
  O2-  O156  1  0.39434510  0.14269864  0.25142460  1
  O2-  O157  1  0.39932473  0.12473173  0.50476376  1
  O2-  O158  1  0.32906622  0.14993113  0.74888168  1
  O2-  O159  1  0.44439974  0.63928257  0.01226553  1
  O2-  O160  1  0.39611413  0.62960693  0.24035029  1
  O2-  O161  1  0.39862805  0.60683263  0.49375081  1
  O2-  O162  1  0.36942142  0.64039598  0.75370761  1
  O2-  O163  1  0.61117973  0.16337842  -0.00075065  1
  O2-  O164  1  0.58179310  0.14010614  0.25957360  1
  O2-  O165  1  0.59017019  0.14939251  0.50900891  1
  O2-  O166  1  0.66875038  0.15592592  0.75005146  1
  O2-  O167  1  0.61333286  0.61020173  0.01057308  1
  O2-  O168  1  0.63181476  0.67510494  0.17750651  1
  O2-  O169  1  0.61079084  0.64703386  0.51963912  1
  O2-  O170  1  0.68376798  0.70133667  0.87425993  1
  O2-  O171  1  0.93544045  0.12169745  -0.01909330  1
  O2-  O172  1  0.91662738  0.14553727  0.23520470  1
  O2-  O173  1  0.89078649  0.14402986  0.48440410  1
  O2-  O174  1  0.88510699  0.12880431  0.73254164  1
  O2-  O175  1  0.77200981  0.61212827  0.02399938  1
  O2-  O176  1  0.78592970  0.59908151  0.18266464  1
  O2-  O177  1  0.93149088  0.62257664  0.48692801  1
  O2-  O178  1  0.90709906  0.63701490  0.71387788  1
  O2-  O179  1  0.09346305  0.35627993  0.01805717  1
  O2-  O180  1  0.05367229  0.36651112  0.27098495  1
  O2-  O181  1  0.01118570  0.34804437  0.52352886  1
  O2-  O182  1  0.04128823  0.39625436  0.78059816  1
  O2-  O183  1  0.14193664  0.86211008  0.00782710  1
  O2-  O184  1  0.09056863  0.88618851  0.25228533  1
  O2-  O185  1  0.12698615  0.86462960  0.51062179  1
  O2-  O186  1  0.24962376  0.85763864  0.64235195  1
  O2-  O187  1  0.30287053  0.37944221  0.00379829  1
  O2-  O188  1  0.34085436  0.34032774  0.24105242  1
  O2-  O189  1  0.29040918  0.36598538  0.50791720  1
  O2-  O190  1  0.32405677  0.35258243  0.75662239  1
  O2-  O191  1  0.35699251  0.88130948  0.00090048  1
  O2-  O192  1  0.39991585  0.85272016  0.25011366  1
  O2-  O193  1  0.36575155  0.87784168  0.49700551  1
  O2-  O194  1  0.38759069  0.85529100  0.75129833  1
  O2-  O195  1  0.61018627  0.35494192  0.00237061  1
  O2-  O196  1  0.63008502  0.36822483  0.25453394  1
  O2-  O197  1  0.64475546  0.33091393  0.50957908  1
  O2-  O198  1  0.67619354  0.35869383  0.75145006  1
  O2-  O199  1  0.50461901  0.84609285  0.11157127  1
  O2-  O200  1  0.60769943  0.84693010  0.24530499  1
  O2-  O201  1  0.61948778  0.87396061  0.51661816  1
  O2-  O202  1  0.63372933  0.88989561  0.75466515  1
  O2-  O203  1  0.88350862  0.38012359  -0.02479423  1
  O2-  O204  1  0.82524020  0.36216766  0.22688719  1
  O2-  O205  1  0.83577575  0.34469335  0.47850682  1
  O2-  O206  1  0.88563334  0.35990904  0.72273750  1
  O2-  O207  1  0.86090375  0.88019368  -0.00196801  1
  O2-  O208  1  0.90031575  0.85851004  0.25456013  1
  O2-  O209  1  0.92301455  0.87476198  0.47326082  1
  O2-  O210  1  0.88005868  0.85320551  0.74287903  1
  O2-  O211  1  0.00304156  -0.12739974  -0.10553546  1
  O2-  O212  1  -0.00022460  -0.15410550  0.10868875  1
  O2-  O213  1  0.00550896  -0.15318204  0.62739456  1
  O2-  O214  1  0.11697598  -0.15288287  0.74957662  1
  O2-  O215  1  -0.06812974  0.61389733  -0.01488291  1
  O2-  O216  1  -0.00359016  0.64190444  0.14424682  1
  O2-  O217  1  0.06565934  0.50963730  0.44335861  1
  O2-  O218  1  0.02072860  0.61073812  0.84473522  1
  O2-  O219  1  0.25330162  -0.11880427  0.15792545  1
  O2-  O220  1  0.23571909  0.12101431  0.15796417  1
  O2-  O221  1  0.25788486  0.11787243  0.38345649  1
  O2-  O222  1  0.25538126  -0.14877615  0.85650471  1
  O2-  O223  1  0.29801679  0.57848121  0.00483519  1
  O2-  O224  1  0.24476653  0.61287277  0.16349518  1
  O2-  O225  1  0.25598886  0.63938926  0.61106005  1
  O2-  O226  1  0.26002721  0.66725687  0.88003877  1
  O2-  O227  1  0.50737824  -0.09569236  -0.11671183  1
  O2-  O228  1  0.52172363  -0.15524833  0.38542611  1
  O2-  O229  1  0.50239360  -0.11880294  0.63152842  1
  O2-  O230  1  0.54933970  0.03253750  0.67200150  1
  O2-  O231  1  0.50648749  0.61742583  -0.14552864  1
  O2-  O232  1  0.52010430  0.63226428  0.35159255  1
  O2-  O233  1  0.50103581  0.60394549  0.65448624  1
  O2-  O234  1  0.64780715  0.57162592  0.76274062  1
  O2-  O235  1  0.64232840  -0.13842608  -0.00323637  1
  O2-  O236  1  0.74922312  -0.11591002  0.30109687  1
  O2-  O237  1  0.76173538  -0.11806129  0.45319547  1
  O2-  O238  1  0.75166883  -0.13374029  0.63408528  1
  O2-  O239  1  0.73425939  0.44637260  0.09537890  1
  O2-  O240  1  0.73314077  0.60763549  0.33159362  1
  O2-  O241  1  0.77177349  0.61461550  0.48911811  1
  O2-  O242  1  0.75007588  0.64742125  0.64617477  1
