# generated using pymatgen
data_Gd19Ta56(WO20)8
_symmetry_space_group_name_H-M   'P 1'
_cell_length_a   15.49285272
_cell_length_b   15.48677683
_cell_length_c   15.27439994
_cell_angle_alpha   90.08160241
_cell_angle_beta   89.97010053
_cell_angle_gamma   89.84461580
_symmetry_Int_Tables_number   1
_chemical_formula_structural   Gd19Ta56(WO20)8
_chemical_formula_sum   'Gd19 Ta56 W8 O160'
_cell_volume   3664.83556121
_cell_formula_units_Z   1
loop_
 _symmetry_equiv_pos_site_id
 _symmetry_equiv_pos_as_xyz
  1  'x, y, z'
loop_
 _atom_type_symbol
 _atom_type_oxidation_number
  Gd3+  3.0
  Ta5+  5.0
  W6+  6.0
  O2-  -2.0
loop_
 _atom_site_type_symbol
 _atom_site_label
 _atom_site_symmetry_multiplicity
 _atom_site_fract_x
 _atom_site_fract_y
 _atom_site_fract_z
 _atom_site_occupancy
  Gd3+  Gd0  1  0.50191697  0.23455049  0.75590431  1
  Gd3+  Gd1  1  0.75196749  0.27199112  0.78795735  1
  Gd3+  Gd2  1  0.75904596  0.26371824  0.23989244  1
  Gd3+  Gd3  1  0.03544095  0.75712757  0.26503509  1
  Gd3+  Gd4  1  0.73560036  0.74901627  0.47356556  1
  Gd3+  Gd5  1  0.48191006  0.23574721  0.01330429  1
  Gd3+  Gd6  1  -0.03285175  0.72979262  0.77030852  1
  Gd3+  Gd7  1  0.22004468  0.23968402  0.49920248  1
  Gd3+  Gd8  1  0.51727450  0.24098521  0.48430415  1
  Gd3+  Gd9  1  0.26368659  0.74916755  0.21959773  1
  Gd3+  Gd10  1  0.75991955  0.76273945  -0.02012502  1
  Gd3+  Gd11  1  -0.01320357  0.23974173  0.46409343  1
  Gd3+  Gd12  1  0.51645919  0.72078629  0.06590766  1
  Gd3+  Gd13  1  0.25804600  0.75005169  0.48741203  1
  Gd3+  Gd14  1  0.74802793  0.74401482  0.73365452  1
  Gd3+  Gd15  1  -0.02635414  0.77794430  0.48771381  1
  Gd3+  Gd16  1  0.23943260  0.22839102  0.75675177  1
  Gd3+  Gd17  1  0.24683448  0.75456426  0.75107550  1
  Gd3+  Gd18  1  0.49607644  0.74061706  0.49722643  1
  Ta5+  Ta19  1  0.29317822  0.33474588  0.13242062  1
  Ta5+  Ta20  1  0.88177166  0.62651170  0.35344908  1
  Ta5+  Ta21  1  0.87090407  0.39010428  0.37773621  1
  Ta5+  Ta22  1  0.12750750  0.10650585  0.36487855  1
  Ta5+  Ta23  1  0.36933991  0.88251262  0.35983362  1
  Ta5+  Ta24  1  0.18376650  0.10801407  0.12045653  1
  Ta5+  Ta25  1  0.92631722  0.36236758  0.88628876  1
  Ta5+  Ta26  1  0.37717939  0.10119030  0.87340116  1
  Ta5+  Ta27  1  0.19403662  0.96624427  0.49668978  1
  Ta5+  Ta28  1  0.65757911  0.36713684  0.08742764  1
  Ta5+  Ta29  1  0.35629035  0.57484112  0.11396447  1
  Ta5+  Ta30  1  0.65926913  0.12236666  0.61720164  1
  Ta5+  Ta31  1  0.60587555  0.87665942  0.34993564  1
  Ta5+  Ta32  1  0.86082345  0.87180396  0.14002576  1
  Ta5+  Ta33  1  0.37853408  0.61049865  0.88599422  1
  Ta5+  Ta34  1  0.34810866  0.37138144  0.62400839  1
  Ta5+  Ta35  1  0.37705149  0.89422162  0.10719547  1
  Ta5+  Ta36  1  0.12727906  0.60969323  0.87030408  1
  Ta5+  Ta37  1  0.08465355  0.12464980  0.63826903  1
  Ta5+  Ta38  1  0.63642321  0.88403158  0.61648343  1
  Ta5+  Ta39  1  0.62519693  0.61909669  0.34246457  1
  Ta5+  Ta40  1  0.09310935  0.62237206  0.63199370  1
  Ta5+  Ta41  1  0.86006676  0.61181249  0.10858513  1
  Ta5+  Ta42  1  0.10275996  0.86903046  0.08804893  1
  Ta5+  Ta43  1  0.90682809  0.88491127  0.90096192  1
  Ta5+  Ta44  1  0.83290997  0.14817956  0.62984593  1
  Ta5+  Ta45  1  0.85203798  0.94761581  0.53602052  1
  Ta5+  Ta46  1  0.60637601  0.38181079  0.89105014  1
  Ta5+  Ta47  1  0.88641354  0.61371381  0.59740571  1
  Ta5+  Ta48  1  0.39940539  0.60971448  0.67593482  1
  Ta5+  Ta49  1  0.11551165  0.87419998  0.88440746  1
  Ta5+  Ta50  1  0.36364901  0.11627830  0.37651994  1
  Ta5+  Ta51  1  0.37298173  0.86841880  0.90892371  1
  Ta5+  Ta52  1  0.86743357  0.12837226  0.88582185  1
  Ta5+  Ta53  1  0.65617437  0.11985575  0.36761080  1
  Ta5+  Ta54  1  0.65510563  0.12230484  0.11544796  1
  Ta5+  Ta55  1  0.65628983  0.87600126  0.13344252  1
  Ta5+  Ta56  1  0.88625731  0.60601802  0.91003230  1
  Ta5+  Ta57  1  0.36272165  0.36239907  0.88344444  1
  Ta5+  Ta58  1  0.92061869  0.37458621  0.12625758  1
  Ta5+  Ta59  1  0.35274434  0.10694945  0.12514135  1
  Ta5+  Ta60  1  0.11770300  0.37269417  0.12153221  1
  Ta5+  Ta61  1  0.58849196  0.62863846  0.86388375  1
  Ta5+  Ta62  1  0.08411957  0.62178012  0.10616503  1
  Ta5+  Ta63  1  0.62477206  0.37532413  0.35746164  1
  Ta5+  Ta64  1  0.37285470  0.61613274  0.36077496  1
  Ta5+  Ta65  1  0.36724102  0.10929663  0.61584344  1
  Ta5+  Ta66  1  0.13220946  0.38060211  0.62983748  1
  Ta5+  Ta67  1  0.62680134  0.11893443  0.87891841  1
  Ta5+  Ta68  1  0.89491996  0.12673049  0.13436025  1
  Ta5+  Ta69  1  0.09367354  0.37111827  0.87052613  1
  Ta5+  Ta70  1  0.69216814  0.60861051  0.10416151  1
  Ta5+  Ta71  1  0.82514891  0.13186928  0.38886355  1
  Ta5+  Ta72  1  0.11487457  0.61428359  0.41748131  1
  Ta5+  Ta73  1  0.63309567  0.61261548  0.61264566  1
  Ta5+  Ta74  1  0.39694048  0.90698062  0.62009182  1
  W6+  W75  1  0.89910576  1.00263227  0.27549562  1
  W6+  W76  1  0.61969131  0.36243923  0.61973849  1
  W6+  W77  1  0.12357473  0.12314135  0.89288663  1
  W6+  W78  1  0.62892346  0.87513611  0.87224907  1
  W6+  W79  1  0.08116193  0.88931823  0.66385531  1
  W6+  W80  1  0.11717205  0.37020377  0.37004628  1
  W6+  W81  1  0.37169184  0.36368266  0.37450900  1
  W6+  W82  1  0.88993765  0.37109423  0.63862235  1
  O2-  O83  1  0.13925974  -0.01560007  0.10201964  1
  O2-  O84  1  0.10318906  -0.01169857  0.41546025  1
  O2-  O85  1  0.12684774  0.01087075  0.60417149  1
  O2-  O86  1  0.13400635  -0.00969536  0.90153948  1
  O2-  O87  1  0.09766149  0.49924578  0.11705413  1
  O2-  O88  1  0.11990361  0.49526260  0.41458746  1
  O2-  O89  1  0.11179933  0.49846303  0.61357102  1
  O2-  O90  1  0.14575544  0.48845363  0.86470151  1
  O2-  O91  1  0.43170619  -0.00178263  0.12838568  1
  O2-  O92  1  0.40692533  -0.00450196  0.38476370  1
  O2-  O93  1  0.30603243  -0.00509580  0.56989807  1
  O2-  O94  1  0.37806409  -0.02172041  0.85146354  1
  O2-  O95  1  0.32170332  0.46253151  0.11777700  1
  O2-  O96  1  0.38266478  0.49944891  0.37009855  1
  O2-  O97  1  0.37290041  0.49749535  0.63782187  1
  O2-  O98  1  0.38618699  0.48790623  0.88813448  1
  O2-  O99  1  0.66505954  -0.00053960  0.12188063  1
  O2-  O100  1  0.64610845  -0.00886450  0.35095370  1
  O2-  O101  1  0.62085117  0.00407857  0.63067790  1
  O2-  O102  1  0.65685703  0.00484520  0.87413021  1
  O2-  O103  1  0.68520661  0.48535162  0.09356292  1
  O2-  O104  1  0.60459959  0.50074716  0.35987147  1
  O2-  O105  1  0.62181228  0.49605871  0.61083084  1
  O2-  O106  1  0.59710969  0.50680595  0.87538075  1
  O2-  O107  1  0.86214213  0.00039858  0.13531881  1
  O2-  O108  1  0.87576817  0.01511572  0.42493724  1
  O2-  O109  1  0.96626076  0.12482194  0.64423647  1
  O2-  O110  1  0.90115387  0.00728954  0.87888287  1
  O2-  O111  1  0.88891392  0.48762046  0.10140994  1
  O2-  O112  1  0.88895648  0.51049137  0.40049107  1
  O2-  O113  1  0.88256269  0.49343472  0.59922250  1
  O2-  O114  1  0.89339377  0.48536821  0.90612193  1
  O2-  O115  1  0.19429646  0.25572074  0.13068603  1
  O2-  O116  1  0.12471701  0.23145250  0.36547915  1
  O2-  O117  1  0.14471115  0.23852527  0.63964492  1
  O2-  O118  1  0.13050386  0.25350114  0.85403182  1
  O2-  O119  1  0.04048494  0.74669802  0.10644376  1
  O2-  O120  1  0.09869382  0.74983799  0.40891996  1
  O2-  O121  1  0.06860385  0.75001095  0.65853124  1
  O2-  O122  1  0.12648795  0.74005424  0.85260782  1
  O2-  O123  1  0.37181713  0.23214213  0.11736734  1
  O2-  O124  1  0.33135089  0.23562421  0.40091224  1
  O2-  O125  1  0.32460400  0.23397718  0.61336472  1
  O2-  O126  1  0.40455907  0.23967318  0.88124209  1
  O2-  O127  1  0.37519683  0.76098273  0.12154686  1
  O2-  O128  1  0.34104218  0.75453038  0.34658303  1
  O2-  O129  1  0.32727939  0.69987031  0.63475072  1
  O2-  O130  1  0.33747246  0.75484248  0.87200544  1
  O2-  O131  1  0.69748686  0.24391238  0.09647362  1
  O2-  O132  1  0.62579001  0.24707265  0.36192533  1
  O2-  O133  1  0.57836041  0.22949676  0.62058065  1
  O2-  O134  1  0.58044029  0.25305753  0.88764906  1
  O2-  O135  1  0.65990167  0.74357811  0.11921301  1
  O2-  O136  1  0.65364246  0.76120359  0.34527690  1
  O2-  O137  1  0.65799269  0.74960404  0.60559986  1
  O2-  O138  1  0.66108905  0.73591936  0.86681478  1
  O2-  O139  1  0.88067568  0.25127050  0.15612913  1
  O2-  O140  1  0.86285057  0.25493746  0.35676167  1
  O2-  O141  1  0.80271826  0.26924557  0.64693648  1
  O2-  O142  1  0.92732691  0.23005205  0.85921617  1
  O2-  O143  1  0.85045596  0.74880925  0.11043617  1
  O2-  O144  1  0.91555100  0.74748347  0.35053894  1
  O2-  O145  1  0.87785267  0.73403438  0.65041321  1
  O2-  O146  1  0.90656101  0.74383357  0.92243838  1
  O2-  O147  1  0.12765500  0.14726458  0.01928886  1
  O2-  O148  1  0.16100143  0.09571598  0.24998568  1
  O2-  O149  1  0.09495754  0.14429125  0.50506144  1
  O2-  O150  1  0.13081519  0.11014378  0.75321343  1
  O2-  O151  1  0.13786601  0.62594255  -0.00605255  1
  O2-  O152  1  0.14906735  0.65541334  0.20405857  1
  O2-  O153  1  0.17459155  0.64281625  0.53737865  1
  O2-  O154  1  0.15600249  0.61971426  0.74033552  1
  O2-  O155  1  0.39572294  0.10778945  -0.00354311  1
  O2-  O156  1  0.35595096  0.11595503  0.25614414  1
  O2-  O157  1  0.42273274  0.12655816  0.50311469  1
  O2-  O158  1  0.36922387  0.14100505  0.74168580  1
  O2-  O159  1  0.47325384  0.58826166  0.11030459  1
  O2-  O160  1  0.33454888  0.61820322  0.23017172  1
  O2-  O161  1  0.37875091  0.65252215  0.48000823  1
  O2-  O162  1  0.31370479  0.61291692  0.77928655  1
  O2-  O163  1  0.58861858  0.12750251  0.00382008  1
  O2-  O164  1  0.65039089  0.13928074  0.23642668  1
  O2-  O165  1  0.62506205  0.12268877  0.49492340  1
  O2-  O166  1  0.64972049  0.15340527  0.75182943  1
  O2-  O167  1  0.62395698  0.63408992  -0.00517781  1
  O2-  O168  1  0.63756037  0.60755231  0.22162684  1
  O2-  O169  1  0.61861073  0.64383319  0.48194636  1
  O2-  O170  1  0.63742896  0.63221055  0.74111652  1
  O2-  O171  1  0.89713961  0.13345198  0.01026909  1
  O2-  O172  1  0.82555359  0.12063707  0.25609463  1
  O2-  O173  1  0.86605778  0.16914271  0.50601693  1
  O2-  O174  1  0.82965142  0.13101284  0.75784521  1
  O2-  O175  1  0.78692524  0.61439625  -0.00769442  1
  O2-  O176  1  0.87111079  0.61068316  0.23342565  1
  O2-  O177  1  0.86246682  0.67190610  0.48572842  1
  O2-  O178  1  0.83116192  0.63936296  0.80546260  1
  O2-  O179  1  0.10564867  0.36040157  -0.00590865  1
  O2-  O180  1  0.09769008  0.36483611  0.24483736  1
  O2-  O181  1  0.09124159  0.33651589  0.51244851  1
  O2-  O182  1  0.06219628  0.37260791  0.73196628  1
  O2-  O183  1  0.17086630  0.82925392  -0.00573704  1
  O2-  O184  1  0.14707332  0.83940480  0.20333566  1
  O2-  O185  1  0.17819409  0.85956965  0.55959968  1
  O2-  O186  1  0.17227852  0.87976500  0.76774309  1
  O2-  O187  1  0.32156944  0.34460579  -0.00464865  1
  O2-  O188  1  0.31896715  0.34592928  0.25109178  1
  O2-  O189  1  0.42007782  0.35170403  0.52391613  1
  O2-  O190  1  0.39852562  0.34468421  0.74412146  1
  O2-  O191  1  0.45783398  0.84904004  -0.00146163  1
  O2-  O192  1  0.34350226  0.88875051  0.23742166  1
  O2-  O193  1  0.37766742  0.84144690  0.50704459  1
  O2-  O194  1  0.35355636  0.86003011  0.72155656  1
  O2-  O195  1  0.55052380  0.37352671  0.01944956  1
  O2-  O196  1  0.64382415  0.36291049  0.22107409  1
  O2-  O197  1  0.60469602  0.36330112  0.48129863  1
  O2-  O198  1  0.62820674  0.35658270  0.76320465  1
  O2-  O199  1  0.64664512  0.86396960  0.00891368  1
  O2-  O200  1  0.57049750  0.87330548  0.22354558  1
  O2-  O201  1  0.63205130  0.86693752  0.48067176  1
  O2-  O202  1  0.64219262  0.85832101  0.73753110  1
  O2-  O203  1  0.91508117  0.33550350  0.00603351  1
  O2-  O204  1  0.90442681  0.39282861  0.25846761  1
  O2-  O205  1  0.90507024  0.35541776  0.49596556  1
  O2-  O206  1  0.85901119  0.37002760  0.77336458  1
  O2-  O207  1  0.83809886  0.88831977  0.00846380  1
  O2-  O208  1  0.95311752  0.87833227  0.22352381  1
  O2-  O209  1  0.84005377  0.85266479  0.46111442  1
  O2-  O210  1  0.81993195  0.84600147  0.82228937  1
  O2-  O211  1  0.01523826  -0.11799385  -0.02106122  1
  O2-  O212  1  -0.01596501  0.09118550  0.20984028  1
  O2-  O213  1  -0.03811911  -0.08919129  0.57542493  1
  O2-  O214  1  0.00497570  -0.12838036  0.80570542  1
  O2-  O215  1  0.00689258  0.60986356  -0.13690013  1
  O2-  O216  1  0.01686989  0.61676921  0.33777097  1
  O2-  O217  1  0.01192220  0.63162064  0.52341737  1
  O2-  O218  1  -0.02100632  0.60372319  0.68722568  1
  O2-  O219  1  0.30806630  -0.08599142  0.00330319  1
  O2-  O220  1  0.25329425  -0.10538578  0.40611485  1
  O2-  O221  1  0.24414796  0.08294095  0.42894682  1
  O2-  O222  1  0.25897289  0.13012214  0.87677180  1
  O2-  O223  1  0.32275922  0.61820235  0.00041798  1
  O2-  O224  1  0.23207148  0.63280634  0.37539908  1
  O2-  O225  1  0.24778301  0.37955587  0.54557333  1
  O2-  O226  1  0.23649050  0.37218844  0.70544827  1
  O2-  O227  1  0.50604201  0.10639152  -0.15691273  1
  O2-  O228  1  0.49041016  -0.15804487  0.37903305  1
  O2-  O229  1  0.50958104  -0.15093417  0.60880371  1
  O2-  O230  1  0.44737752  0.01406463  0.65015212  1
  O2-  O231  1  0.48291121  0.67097572  -0.07002881  1
  O2-  O232  1  0.49634194  0.64884265  0.34834937  1
  O2-  O233  1  0.50358376  0.64364320  0.61440904  1
  O2-  O234  1  0.47455793  0.61289290  0.78384470  1
  O2-  O235  1  0.74659618  0.16756761  -0.09558682  1
  O2-  O236  1  0.75839954  -0.13119551  0.20973322  1
  O2-  O237  1  0.77444646  0.04490105  0.58688851  1
  O2-  O238  1  0.76412947  -0.11365153  0.60880339  1
  O2-  O239  1  0.70614815  0.36271702  -0.04217721  1
  O2-  O240  1  0.75133112  0.62790276  0.36585652  1
  O2-  O241  1  0.74861726  0.38658492  0.36768167  1
  O2-  O242  1  0.75964613  0.61656759  0.61347636  1
