# generated using pymatgen
data_Gd19Ta56(WO20)8
_symmetry_space_group_name_H-M   'P 1'
_cell_length_a   15.49338615
_cell_length_b   15.52806233
_cell_length_c   15.25120886
_cell_angle_alpha   89.98973578
_cell_angle_beta   89.92960316
_cell_angle_gamma   89.92902129
_symmetry_Int_Tables_number   1
_chemical_formula_structural   Gd19Ta56(WO20)8
_chemical_formula_sum   'Gd19 Ta56 W8 O160'
_cell_volume   3669.16473993
_cell_formula_units_Z   1
loop_
 _symmetry_equiv_pos_site_id
 _symmetry_equiv_pos_as_xyz
  1  'x, y, z'
loop_
 _atom_type_symbol
 _atom_type_oxidation_number
  Gd3+  3.0
  Ta5+  5.0
  W6+  6.0
  O2-  -2.0
loop_
 _atom_site_type_symbol
 _atom_site_label
 _atom_site_symmetry_multiplicity
 _atom_site_fract_x
 _atom_site_fract_y
 _atom_site_fract_z
 _atom_site_occupancy
  Gd3+  Gd0  1  0.03805105  0.75744783  0.75843766  1
  Gd3+  Gd1  1  0.26614331  0.75760300  0.01922972  1
  Gd3+  Gd2  1  0.25460912  0.74994799  0.50538007  1
  Gd3+  Gd3  1  0.74958085  0.74141935  0.48385964  1
  Gd3+  Gd4  1  0.50381210  0.24790273  0.74607314  1
  Gd3+  Gd5  1  0.49162360  0.74873691  0.26943291  1
  Gd3+  Gd6  1  0.51376837  0.25108669  0.49043140  1
  Gd3+  Gd7  1  0.24221387  0.26543414  0.51563660  1
  Gd3+  Gd8  1  0.49396216  0.25775892  0.24496719  1
  Gd3+  Gd9  1  0.23170082  0.22105108  0.26371081  1
  Gd3+  Gd10  1  0.02141624  0.77576110  -0.00091367  1
  Gd3+  Gd11  1  0.74908113  0.73776164  0.76386709  1
  Gd3+  Gd12  1  0.49711122  0.24310093  -0.00224712  1
  Gd3+  Gd13  1  0.00074423  0.24118519  0.24765855  1
  Gd3+  Gd14  1  -0.03074410  0.26958950  0.54697402  1
  Gd3+  Gd15  1  0.25311377  0.76128665  0.26067902  1
  Gd3+  Gd16  1  0.77303771  0.24825308  -0.00447466  1
  Gd3+  Gd17  1  0.01482648  0.78230897  0.22309995  1
  Gd3+  Gd18  1  0.01083000  0.22748751  0.00359297  1
  Ta5+  Ta19  1  0.37885174  0.38224735  0.63200719  1
  Ta5+  Ta20  1  0.87393594  0.12733937  0.41174768  1
  Ta5+  Ta21  1  0.64870837  0.37000317  0.61733476  1
  Ta5+  Ta22  1  0.38473205  0.88067643  0.63743201  1
  Ta5+  Ta23  1  0.17672544  0.92204222  0.13191707  1
  Ta5+  Ta24  1  0.87683049  0.88209464  0.63073473  1
  Ta5+  Ta25  1  0.13910147  0.61860041  0.88591518  1
  Ta5+  Ta26  1  0.35956365  0.89957914  0.13825489  1
  Ta5+  Ta27  1  0.11801139  0.61671368  0.61979502  1
  Ta5+  Ta28  1  0.37669184  0.62380541  0.13470021  1
  Ta5+  Ta29  1  0.39460061  0.89543314  0.39190324  1
  Ta5+  Ta30  1  0.10742893  0.62432351  0.38170610  1
  Ta5+  Ta31  1  0.81554974  0.39202704  0.62153603  1
  Ta5+  Ta32  1  0.16390572  0.88420543  0.87643058  1
  Ta5+  Ta33  1  0.34547117  0.37798829  0.10819918  1
  Ta5+  Ta34  1  0.36647651  0.38423310  0.87364980  1
  Ta5+  Ta35  1  0.86723654  0.13711439  0.83311475  1
  Ta5+  Ta36  1  0.37212149  0.12204244  0.38977204  1
  Ta5+  Ta37  1  0.63058735  0.11636285  0.13165917  1
  Ta5+  Ta38  1  0.60759927  0.87266007  0.88142040  1
  Ta5+  Ta39  1  0.17222672  0.61377257  0.13407203  1
  Ta5+  Ta40  1  0.84786317  0.40265687  0.12666961  1
  Ta5+  Ta41  1  0.10084557  0.87927336  0.39257889  1
  Ta5+  Ta42  1  0.63616782  0.38501068  0.87131468  1
  Ta5+  Ta43  1  0.36610325  0.11844594  0.11888502  1
  Ta5+  Ta44  1  0.39468828  0.62796715  0.63298639  1
  Ta5+  Ta45  1  0.86800096  0.38773240  0.86008068  1
  Ta5+  Ta46  1  0.12836580  0.37524621  0.65168642  1
  Ta5+  Ta47  1  0.12755681  0.08821801  0.12676691  1
  Ta5+  Ta48  1  0.62836116  0.86734992  0.62798186  1
  Ta5+  Ta49  1  0.16993153  0.12732567  0.87923525  1
  Ta5+  Ta50  1  0.33887565  0.13178565  0.86698159  1
  Ta5+  Ta51  1  0.62505326  0.61292915  0.37043836  1
  Ta5+  Ta52  1  0.87206517  0.61678284  0.62467760  1
  Ta5+  Ta53  1  0.65777294  0.37410044  0.36536433  1
  Ta5+  Ta54  1  0.83512634  0.11665312  0.17462459  1
  Ta5+  Ta55  1  0.13926640  0.37082558  0.12051490  1
  Ta5+  Ta56  1  0.36280564  0.38633914  0.37019863  1
  Ta5+  Ta57  1  0.35615716  0.12725977  0.64663737  1
  Ta5+  Ta58  1  0.89308325  0.88289885  0.38388320  1
  Ta5+  Ta59  1  0.54915194  0.61135625  0.12125072  1
  Ta5+  Ta60  1  0.13404888  0.37225490  0.88691857  1
  Ta5+  Ta61  1  0.37095662  0.63186478  0.87682631  1
  Ta5+  Ta62  1  0.90727951  0.63173018  0.37326665  1
  Ta5+  Ta63  1  0.86212372  0.62646845  0.12571854  1
  Ta5+  Ta64  1  0.90434895  0.89325781  0.86926134  1
  Ta5+  Ta65  1  0.12303076  0.88923553  0.62452988  1
  Ta5+  Ta66  1  0.36034251  0.88659546  0.87923722  1
  Ta5+  Ta67  1  0.90361126  0.62015705  0.88973027  1
  Ta5+  Ta68  1  0.64197229  0.38799151  0.12588433  1
  Ta5+  Ta69  1  0.60527517  0.62167135  0.88199270  1
  Ta5+  Ta70  1  0.15863876  0.13309198  0.66416303  1
  Ta5+  Ta71  1  0.64550515  0.12473712  0.35593874  1
  Ta5+  Ta72  1  0.39288225  0.57671246  0.38603316  1
  Ta5+  Ta73  1  0.12068574  0.11952609  0.40401897  1
  Ta5+  Ta74  1  0.59518884  0.90252012  0.38616528  1
  W6+  W75  1  0.60852894  0.86388139  0.13109906  1
  W6+  W76  1  0.86045175  0.87329300  0.13099633  1
  W6+  W77  1  0.11033368  0.37482664  0.37937028  1
  W6+  W78  1  0.64638683  0.60100708  0.63103998  1
  W6+  W79  1  0.83104639  0.13259221  0.64642196  1
  W6+  W80  1  0.62820402  0.12093860  0.86832299  1
  W6+  W81  1  0.62441515  0.11530723  0.61554436  1
  W6+  W82  1  0.89692001  0.38268021  0.37450039  1
  O2-  O83  1  0.05945707  -0.01521038  0.13455505  1
  O2-  O84  1  0.13395865  -0.00235376  0.39797558  1
  O2-  O85  1  0.14042575  0.00584913  0.63940628  1
  O2-  O86  1  0.16379949  0.00286332  0.87243233  1
  O2-  O87  1  0.15371331  0.49363558  0.12927216  1
  O2-  O88  1  0.10642275  0.50672371  0.37665804  1
  O2-  O89  1  0.14602590  0.49903796  0.63430959  1
  O2-  O90  1  0.13790772  0.49826202  0.88884793  1
  O2-  O91  1  0.42340490  0.01179604  0.12670504  1
  O2-  O92  1  0.33612292  0.00517997  0.38286993  1
  O2-  O93  1  0.36588126  -0.00005075  0.63890962  1
  O2-  O94  1  0.35214537  0.00667324  0.87081623  1
  O2-  O95  1  0.35941618  0.49537315  0.12483074  1
  O2-  O96  1  0.29917832  0.49606026  0.37119156  1
  O2-  O97  1  0.36901992  0.50781406  0.62051778  1
  O2-  O98  1  0.35665920  0.50834652  0.88462048  1
  O2-  O99  1  0.63098363  -0.00043291  0.13708211  1
  O2-  O100  1  0.66673657  0.00320705  0.36337595  1
  O2-  O101  1  0.65583875  -0.01830741  0.61960843  1
  O2-  O102  1  0.63638250  -0.01276319  0.86887436  1
  O2-  O103  1  0.56448857  0.47923671  0.10794861  1
  O2-  O104  1  0.66995915  0.49710974  0.36036366  1
  O2-  O105  1  0.60247726  0.48005966  0.62317811  1
  O2-  O106  1  0.57793899  0.48990207  0.87379679  1
  O2-  O107  1  0.85842430  0.00864678  0.14096649  1
  O2-  O108  1  0.87226175  0.00401870  0.40901222  1
  O2-  O109  1  0.85497238  -0.00463609  0.64266865  1
  O2-  O110  1  0.88517464  0.01073399  0.85453668  1
  O2-  O111  1  0.90877410  0.51317664  0.11529523  1
  O2-  O112  1  0.88841268  0.51517586  0.36155373  1
  O2-  O113  1  0.78410361  0.53030502  0.63240795  1
  O2-  O114  1  0.91937192  0.49866816  0.89117093  1
  O2-  O115  1  0.09845452  0.24015716  0.12738719  1
  O2-  O116  1  0.10174953  0.24050173  0.36609446  1
  O2-  O117  1  0.17815955  0.26273575  0.66153684  1
  O2-  O118  1  0.12082538  0.24831860  0.89888119  1
  O2-  O119  1  0.09687499  0.71743705  0.11888210  1
  O2-  O120  1  0.14162787  0.75657326  0.38863580  1
  O2-  O121  1  0.12338775  0.74477545  0.61623302  1
  O2-  O122  1  0.12431784  0.75244848  0.88658613  1
  O2-  O123  1  0.40027515  0.25365415  0.11914029  1
  O2-  O124  1  0.41260516  0.25351446  0.37866807  1
  O2-  O125  1  0.36181198  0.25807349  0.64873874  1
  O2-  O126  1  0.39499309  0.25598851  0.86644427  1
  O2-  O127  1  0.35982000  0.76261496  0.14758185  1
  O2-  O128  1  0.32247082  0.78813361  0.38148094  1
  O2-  O129  1  0.35129834  0.74920735  0.61821737  1
  O2-  O130  1  0.32946858  0.75297469  0.88406857  1
  O2-  O131  1  0.58739371  0.25439447  0.12834801  1
  O2-  O132  1  0.59898755  0.25213574  0.35908213  1
  O2-  O133  1  0.59522547  0.24994219  0.61663244  1
  O2-  O134  1  0.58322982  0.26372989  0.87283299  1
  O2-  O135  1  0.55553388  0.73873429  0.13003062  1
  O2-  O136  1  0.68754287  0.71338097  0.35304714  1
  O2-  O137  1  0.68229520  0.74732556  0.62632458  1
  O2-  O138  1  0.64868320  0.74261051  0.87601761  1
  O2-  O139  1  0.91425873  0.19982165  0.12765768  1
  O2-  O140  1  0.92565782  0.24807788  0.40221027  1
  O2-  O141  1  0.83883468  0.27019793  0.62755696  1
  O2-  O142  1  0.83072035  0.26771316  0.85174911  1
  O2-  O143  1  0.91820359  0.73750362  0.11118914  1
  O2-  O144  1  0.87310133  0.75474100  0.39176406  1
  O2-  O145  1  0.85912882  0.74070114  0.63519160  1
  O2-  O146  1  0.92765239  0.75187059  0.86979917  1
  O2-  O147  1  0.11399730  0.11607229  0.00090160  1
  O2-  O148  1  0.11691559  0.11780428  0.26017612  1
  O2-  O149  1  0.12776307  0.15355729  0.53046318  1
  O2-  O150  1  0.09996972  0.13548375  0.76958833  1
  O2-  O151  1  0.18786694  0.62546878  0.00338384  1
  O2-  O152  1  0.17681685  0.63423408  0.26635629  1
  O2-  O153  1  0.17300394  0.62269627  0.50056929  1
  O2-  O154  1  0.12214158  0.63320946  0.75524619  1
  O2-  O155  1  0.38063413  0.13861750  -0.00680117  1
  O2-  O156  1  0.36754078  0.14336115  0.25618084  1
  O2-  O157  1  0.39104529  0.13942999  0.51718092  1
  O2-  O158  1  0.42056636  0.12809460  0.75432685  1
  O2-  O159  1  0.37046238  0.64154293  0.00508631  1
  O2-  O160  1  0.37154093  0.63795594  0.27652477  1
  O2-  O161  1  0.36363874  0.62941170  0.49557933  1
  O2-  O162  1  0.34902866  0.63015687  0.74899920  1
  O2-  O163  1  0.58832890  0.12647932  0.01112714  1
  O2-  O164  1  0.56451610  0.12337525  0.25120992  1
  O2-  O165  1  0.59455107  0.12734461  0.47227414  1
  O2-  O166  1  0.59317569  0.13340734  0.74219505  1
  O2-  O167  1  0.61286974  0.61503261  0.00372166  1
  O2-  O168  1  0.58526316  0.60854591  0.24042085  1
  O2-  O169  1  0.65109696  0.62143858  0.49350992  1
  O2-  O170  1  0.66957664  0.61036388  0.77199157  1
  O2-  O171  1  0.89063638  0.15802302  -0.04274107  1
  O2-  O172  1  0.90376684  0.12666419  0.28414003  1
  O2-  O173  1  0.91597105  0.13604375  0.53034953  1
  O2-  O174  1  0.93571895  0.15658758  0.73673733  1
  O2-  O175  1  0.83425777  0.63150856  -0.00828022  1
  O2-  O176  1  0.84646539  0.63829247  0.24514990  1
  O2-  O177  1  0.84731635  0.62645333  0.50052004  1
  O2-  O178  1  0.86419012  0.62686854  0.76809686  1
  O2-  O179  1  0.07269717  0.36974643  0.00783698  1
  O2-  O180  1  0.08762904  0.36801814  0.23778742  1
  O2-  O181  1  0.11141023  0.35101760  0.52193277  1
  O2-  O182  1  0.08501762  0.37628438  0.77231916  1
  O2-  O183  1  0.15158379  0.87442458  0.00836192  1
  O2-  O184  1  0.14079874  0.85796334  0.25759050  1
  O2-  O185  1  0.17504971  0.87579678  0.51124737  1
  O2-  O186  1  0.15418132  0.85620431  0.74316181  1
  O2-  O187  1  0.41744297  0.37411025  -0.00589920  1
  O2-  O188  1  0.39519012  0.37264688  0.24791896  1
  O2-  O189  1  0.36825878  0.36236979  0.50357296  1
  O2-  O190  1  0.42096360  0.39129074  0.76024146  1
  O2-  O191  1  0.36166173  0.87959336  0.00894704  1
  O2-  O192  1  0.41126352  0.87674230  0.26464852  1
  O2-  O193  1  0.35598682  0.87935419  0.51390497  1
  O2-  O194  1  0.34534089  0.86381011  0.75188207  1
  O2-  O195  1  0.63911211  0.35152613  0.00100265  1
  O2-  O196  1  0.60230380  0.37512682  0.24789312  1
  O2-  O197  1  0.61867566  0.36329903  0.48461018  1
  O2-  O198  1  0.64826846  0.36007624  0.75031171  1
  O2-  O199  1  0.62989903  0.86426905  -0.00031795  1
  O2-  O200  1  0.59852099  0.85939683  0.26994918  1
  O2-  O201  1  0.64612953  0.85537239  0.49303160  1
  O2-  O202  1  0.65169440  0.85436844  0.75213215  1
  O2-  O203  1  0.87818765  0.35611945  0.01022827  1
  O2-  O204  1  0.90382878  0.36191869  0.22755380  1
  O2-  O205  1  0.87904485  0.39129838  0.51187600  1
  O2-  O206  1  0.85827165  0.41123790  0.74185443  1
  O2-  O207  1  0.89763507  0.87673391  -0.00907769  1
  O2-  O208  1  0.84128526  0.87348473  0.27361120  1
  O2-  O209  1  0.83349687  0.86681666  0.51352102  1
  O2-  O210  1  0.84270587  0.85856471  0.75730377  1
  O2-  O211  1  0.02578314  -0.11288859  -0.14274996  1
  O2-  O212  1  -0.00153101  -0.09894894  0.31450392  1
  O2-  O213  1  0.00412212  -0.13500630  0.46961145  1
  O2-  O214  1  -0.00159141  -0.13049038  0.65405693  1
  O2-  O215  1  0.01901814  0.63176851  -0.05838675  1
  O2-  O216  1  0.00909442  0.65690943  0.29537072  1
  O2-  O217  1  0.00669054  0.63954255  0.45513766  1
  O2-  O218  1  -0.00543327  0.61044876  0.63194657  1
  O2-  O219  1  0.24617514  0.14596183  0.12840361  1
  O2-  O220  1  0.27178995  -0.05124557  0.21255966  1
  O2-  O221  1  0.24853838  0.15400109  0.40558929  1
  O2-  O222  1  0.26188234  0.13276227  0.74727518  1
  O2-  O223  1  0.24519459  0.37289888  0.02826338  1
  O2-  O224  1  0.24780702  0.33896968  0.18375220  1
  O2-  O225  1  0.24782710  0.32903587  0.37700477  1
  O2-  O226  1  0.25137818  0.36141310  0.84788631  1
  O2-  O227  1  0.48830253  -0.13453684  -0.12963261  1
  O2-  O228  1  0.49947242  -0.02376719  0.40629240  1
  O2-  O229  1  0.49766872  -0.18419873  0.40562063  1
  O2-  O230  1  0.50702804  -0.13606106  0.63261962  1
  O2-  O231  1  0.49059641  0.65250203  -0.14177413  1
  O2-  O232  1  0.46047083  0.47066320  0.39237677  1
  O2-  O233  1  0.50548935  0.64127922  0.38552567  1
  O2-  O234  1  0.51070664  0.64020354  0.64013337  1
  O2-  O235  1  0.74623852  0.13458273  0.07836565  1
  O2-  O236  1  0.72548657  0.13677467  0.23935352  1
  O2-  O237  1  0.75740927  0.15511476  0.40954938  1
  O2-  O238  1  0.75916369  0.12105800  0.77863859  1
  O2-  O239  1  0.74083039  0.47055276  0.13838246  1
  O2-  O240  1  0.75666377  0.31211819  0.12941907  1
  O2-  O241  1  0.76768572  0.33844644  0.35439587  1
  O2-  O242  1  0.75078524  0.42265149  0.89318283  1
