# generated using pymatgen
data_Gd19Ta56(WO20)8
_symmetry_space_group_name_H-M   'P 1'
_cell_length_a   15.51013441
_cell_length_b   15.58282054
_cell_length_c   15.38457023
_cell_angle_alpha   90.15636794
_cell_angle_beta   90.13816399
_cell_angle_gamma   90.24008476
_symmetry_Int_Tables_number   1
_chemical_formula_structural   Gd19Ta56(WO20)8
_chemical_formula_sum   'Gd19 Ta56 W8 O160'
_cell_volume   3718.26462225
_cell_formula_units_Z   1
loop_
 _symmetry_equiv_pos_site_id
 _symmetry_equiv_pos_as_xyz
  1  'x, y, z'
loop_
 _atom_type_symbol
 _atom_type_oxidation_number
  Gd3+  3.0
  Ta5+  5.0
  W6+  6.0
  O2-  -2.0
loop_
 _atom_site_type_symbol
 _atom_site_label
 _atom_site_symmetry_multiplicity
 _atom_site_fract_x
 _atom_site_fract_y
 _atom_site_fract_z
 _atom_site_occupancy
  Gd3+  Gd0  1  0.02368887  0.74819386  0.23698598  1
  Gd3+  Gd1  1  0.74828132  0.75597926  0.74955105  1
  Gd3+  Gd2  1  0.27213354  0.76318502  0.76848142  1
  Gd3+  Gd3  1  -0.00141033  0.77530749  0.75629530  1
  Gd3+  Gd4  1  0.49654165  0.23942085  0.48737378  1
  Gd3+  Gd5  1  0.21257503  0.24515981  0.50789366  1
  Gd3+  Gd6  1  -0.00265776  0.24268656  0.73057882  1
  Gd3+  Gd7  1  0.48431417  0.75121179  -0.02683164  1
  Gd3+  Gd8  1  0.50409474  0.76845776  0.74086440  1
  Gd3+  Gd9  1  -0.01655315  0.24587967  0.48358844  1
  Gd3+  Gd10  1  0.74499502  0.73243625  0.51602623  1
  Gd3+  Gd11  1  0.75751850  0.24203397  0.80073145  1
  Gd3+  Gd12  1  0.22454046  0.75745429  -0.00218545  1
  Gd3+  Gd13  1  0.75070337  0.24816842  0.25135909  1
  Gd3+  Gd14  1  -0.01546649  0.23864621  0.24654232  1
  Gd3+  Gd15  1  0.26539214  0.73509683  0.52489728  1
  Gd3+  Gd16  1  0.49377202  0.25516511  0.01155367  1
  Gd3+  Gd17  1  0.49371938  0.73708287  0.25223861  1
  Gd3+  Gd18  1  0.24321758  0.25618056  0.75055064  1
  Ta5+  Ta19  1  0.86482483  0.88402981  0.87974612  1
  Ta5+  Ta20  1  0.42144251  0.13480346  0.85860515  1
  Ta5+  Ta21  1  0.86090093  0.11477146  0.37850012  1
  Ta5+  Ta22  1  0.10195913  0.09406856  0.62898658  1
  Ta5+  Ta23  1  0.10905771  0.59906469  0.62762628  1
  Ta5+  Ta24  1  0.40221557  0.59050568  0.62916163  1
  Ta5+  Ta25  1  0.68983072  0.35120805  0.62208914  1
  Ta5+  Ta26  1  0.86477517  0.86925970  0.37596467  1
  Ta5+  Ta27  1  0.89375642  0.61094121  0.86715920  1
  Ta5+  Ta28  1  0.07962047  0.13469563  0.88130261  1
  Ta5+  Ta29  1  0.91319462  0.92584053  0.61392379  1
  Ta5+  Ta30  1  0.92546030  0.36530757  0.88570863  1
  Ta5+  Ta31  1  0.12635902  0.89053329  0.61532188  1
  Ta5+  Ta32  1  0.12166579  0.89681957  0.87568787  1
  Ta5+  Ta33  1  0.91245487  0.12755409  0.88319630  1
  Ta5+  Ta34  1  0.86086060  0.62169611  0.36576923  1
  Ta5+  Ta35  1  0.60664248  0.91464700  0.59828735  1
  Ta5+  Ta36  1  0.38163845  0.61619522  0.37903244  1
  Ta5+  Ta37  1  0.63712090  0.86596135  0.36253792  1
  Ta5+  Ta38  1  0.38570989  0.86858472  0.14120215  1
  Ta5+  Ta39  1  0.35876217  0.60309680  0.13072616  1
  Ta5+  Ta40  1  0.61906737  0.62128651  0.11759327  1
  Ta5+  Ta41  1  0.15467197  0.61568224  0.13823165  1
  Ta5+  Ta42  1  0.62740871  0.38174871  0.87030481  1
  Ta5+  Ta43  1  0.38508597  0.60004675  0.87532185  1
  Ta5+  Ta44  1  0.62526899  0.56913029  0.88097809  1
  Ta5+  Ta45  1  0.32484018  0.86970098  0.37233861  1
  Ta5+  Ta46  1  0.12621560  0.37963725  0.35843604  1
  Ta5+  Ta47  1  0.36372025  0.37172089  0.37865583  1
  Ta5+  Ta48  1  0.04243065  0.41396281  0.61965350  1
  Ta5+  Ta49  1  0.40409467  0.90761886  0.60681975  1
  Ta5+  Ta50  1  0.63276454  0.37570448  0.38210988  1
  Ta5+  Ta51  1  0.36106802  0.11355737  0.35891471  1
  Ta5+  Ta52  1  0.15771861  0.87111138  0.36576688  1
  Ta5+  Ta53  1  0.82811149  0.14782553  0.62704479  1
  Ta5+  Ta54  1  0.13216875  0.61674948  0.87452372  1
  Ta5+  Ta55  1  0.11878255  0.11605974  0.36869306  1
  Ta5+  Ta56  1  0.60687961  0.58206493  0.60848667  1
  Ta5+  Ta57  1  0.35713521  0.10250230  0.10683324  1
  Ta5+  Ta58  1  0.61925774  0.11959471  0.11624667  1
  Ta5+  Ta59  1  0.62813426  0.38202291  0.11803443  1
  Ta5+  Ta60  1  0.14373731  0.37460531  0.10746743  1
  Ta5+  Ta61  1  0.86582742  0.37487619  0.63248109  1
  Ta5+  Ta62  1  0.87751843  0.38977166  0.37106575  1
  Ta5+  Ta63  1  0.09339223  0.37165274  0.86877307  1
  Ta5+  Ta64  1  0.14219592  0.89900852  0.12962289  1
  Ta5+  Ta65  1  0.37977601  0.12799626  0.62522675  1
  Ta5+  Ta66  1  0.66262801  0.14924906  0.61779647  1
  Ta5+  Ta67  1  0.61054663  0.11327768  0.36630559  1
  Ta5+  Ta68  1  0.86472806  0.38772127  0.11334799  1
  Ta5+  Ta69  1  0.37784064  0.37082995  0.62392359  1
  Ta5+  Ta70  1  0.86120953  0.11358109  0.11577930  1
  Ta5+  Ta71  1  0.89063903  0.60909713  0.62401233  1
  Ta5+  Ta72  1  0.36999461  0.36099438  0.88088089  1
  Ta5+  Ta73  1  0.62298522  0.61022871  0.36926642  1
  Ta5+  Ta74  1  0.36006881  0.94315494  0.94217711  1
  W6+  W75  1  0.87844893  0.86570549  0.12966291  1
  W6+  W76  1  0.58499533  0.13221114  0.85909587  1
  W6+  W77  1  0.55665654  0.87927864  0.11129217  1
  W6+  W78  1  0.13090015  0.14828919  0.11502673  1
  W6+  W79  1  0.62095367  0.90958219  0.90821661  1
  W6+  W80  1  0.36000651  0.35068244  0.13312840  1
  W6+  W81  1  0.12200124  0.62100064  0.37777641  1
  W6+  W82  1  0.87730379  0.63688998  0.11239539  1
  O2-  O83  1  0.13420888  0.01511974  0.12039254  1
  O2-  O84  1  0.12634951  -0.00174614  0.37379501  1
  O2-  O85  1  0.18283611  0.00277941  0.61694933  1
  O2-  O86  1  0.12315242  0.01460302  0.88933417  1
  O2-  O87  1  0.12963834  0.49727740  0.10761180  1
  O2-  O88  1  0.11715969  0.48987744  0.40083743  1
  O2-  O89  1  0.15471716  0.48983410  0.62294711  1
  O2-  O90  1  0.11961896  0.49856220  0.86618301  1
  O2-  O91  1  0.40983589  -0.00496218  0.13375552  1
  O2-  O92  1  0.34193167  -0.00432993  0.38155956  1
  O2-  O93  1  0.34661188  0.01344108  0.64144002  1
  O2-  O94  1  0.39458361  0.00963425  0.84625798  1
  O2-  O95  1  0.36185531  0.48590582  0.12213589  1
  O2-  O96  1  0.35436316  0.49782440  0.38105801  1
  O2-  O97  1  0.33963442  0.48435080  0.61239045  1
  O2-  O98  1  0.37171694  0.48085417  0.90342650  1
  O2-  O99  1  0.59424351  0.00856329  0.13404067  1
  O2-  O100  1  0.62088032  -0.00637423  0.37161062  1
  O2-  O101  1  0.66270764  0.01967400  0.61634267  1
  O2-  O102  1  0.59263370  0.00025576  0.83533846  1
  O2-  O103  1  0.59732045  0.49992479  0.13600645  1
  O2-  O104  1  0.58730180  0.48906444  0.36716115  1
  O2-  O105  1  0.65876798  0.48038523  0.63891245  1
  O2-  O106  1  0.55480554  0.47111385  0.82812377  1
  O2-  O107  1  0.86437253  -0.00369886  0.12867938  1
  O2-  O108  1  0.87263997  -0.00402527  0.38318274  1
  O2-  O109  1  0.84260264  0.02173038  0.62384923  1
  O2-  O110  1  0.88497484  0.00600534  0.87007151  1
  O2-  O111  1  0.87403196  0.50561221  0.11614894  1
  O2-  O112  1  0.90807940  0.50824423  0.36906619  1
  O2-  O113  1  0.84107488  0.49692273  0.62487655  1
  O2-  O114  1  0.91336893  0.49286463  0.87688379  1
  O2-  O115  1  0.07276446  0.27579380  0.13624053  1
  O2-  O116  1  0.11334285  0.25391981  0.38488288  1
  O2-  O117  1  0.15602249  0.20862281  0.64508008  1
  O2-  O118  1  0.12145841  0.24769165  0.83085915  1
  O2-  O119  1  0.13904878  0.74501706  0.13312069  1
  O2-  O120  1  0.12847816  0.75110107  0.35647735  1
  O2-  O121  1  0.20528499  0.80223233  0.64269734  1
  O2-  O122  1  0.14800750  0.76148875  0.86209709  1
  O2-  O123  1  0.40690753  0.21459239  0.12687968  1
  O2-  O124  1  0.38008037  0.24428964  0.38799680  1
  O2-  O125  1  0.33006403  0.25237496  0.60551203  1
  O2-  O126  1  0.45056582  0.26483550  0.86144862  1
  O2-  O127  1  0.38823313  0.73932975  0.14801671  1
  O2-  O128  1  0.33081353  0.73255586  0.37506238  1
  O2-  O129  1  0.34269701  0.69817988  0.64920906  1
  O2-  O130  1  0.39469716  0.73102192  0.84704049  1
  O2-  O131  1  0.60209341  0.25844096  0.11678032  1
  O2-  O132  1  0.58437149  0.26157676  0.36822841  1
  O2-  O133  1  0.73821536  0.24369828  0.56361565  1
  O2-  O134  1  0.64332148  0.25905860  0.89503191  1
  O2-  O135  1  0.55937303  0.72899871  0.10568163  1
  O2-  O136  1  0.64500722  0.74207931  0.38518011  1
  O2-  O137  1  0.66879624  0.68762078  0.63463055  1
  O2-  O138  1  0.57327611  0.79669049  0.86351857  1
  O2-  O139  1  0.86500008  0.25087729  0.14535689  1
  O2-  O140  1  0.86759888  0.25611021  0.35598466  1
  O2-  O141  1  0.91230118  0.25129224  0.61259567  1
  O2-  O142  1  0.86719273  0.24893064  0.90194671  1
  O2-  O143  1  0.94092759  0.75195572  0.11572805  1
  O2-  O144  1  0.84062118  0.74676902  0.39473107  1
  O2-  O145  1  0.83777446  0.72498231  0.63024921  1
  O2-  O146  1  0.87311055  0.75495741  0.83809138  1
  O2-  O147  1  0.12091117  0.16758329  -0.00901708  1
  O2-  O148  1  0.10534867  0.14101991  0.24859651  1
  O2-  O149  1  0.09718380  0.13551617  0.50408628  1
  O2-  O150  1  0.05959000  0.10298012  0.74508339  1
  O2-  O151  1  0.11349009  0.63839977  -0.00703641  1
  O2-  O152  1  0.08417547  0.61423989  0.24356984  1
  O2-  O153  1  0.14551676  0.64881675  0.52134332  1
  O2-  O154  1  0.15795774  0.63729794  0.73674177  1
  O2-  O155  1  0.39808460  0.13816343  -0.01961760  1
  O2-  O156  1  0.33405295  0.11169591  0.23941211  1
  O2-  O157  1  0.39643315  0.12523318  0.50278800  1
  O2-  O158  1  0.35776582  0.16301170  0.74919038  1
  O2-  O159  1  0.41134929  0.62469913  0.01119854  1
  O2-  O160  1  0.41465224  0.61139990  0.25259724  1
  O2-  O161  1  0.35722594  0.62260593  0.50525308  1
  O2-  O162  1  0.37833912  0.57084901  0.75563611  1
  O2-  O163  1  0.57408177  0.12878219  0.00130236  1
  O2-  O164  1  0.63547308  0.14705684  0.24267060  1
  O2-  O165  1  0.60777234  0.13987513  0.49074483  1
  O2-  O166  1  0.62966273  0.16179910  0.73363309  1
  O2-  O167  1  0.64713104  0.60806643  -0.00234805  1
  O2-  O168  1  0.60904599  0.63932923  0.24686118  1
  O2-  O169  1  0.65908734  0.60537411  0.49287167  1
  O2-  O170  1  0.68350272  0.64407198  0.81193224  1
  O2-  O171  1  0.92491843  0.12759707  0.01469701  1
  O2-  O172  1  0.87588297  0.12596660  0.24565185  1
  O2-  O173  1  0.87267046  0.14232462  0.49852324  1
  O2-  O174  1  0.87225948  0.15133720  0.75266284  1
  O2-  O175  1  0.85197509  0.63425463  -0.02334454  1
  O2-  O176  1  0.90239678  0.65077423  0.25482450  1
  O2-  O177  1  0.86049562  0.62235939  0.50003970  1
  O2-  O178  1  0.84907754  0.60923589  0.74949694  1
  O2-  O179  1  0.14124940  0.35924664  -0.01264776  1
  O2-  O180  1  0.16086369  0.38424001  0.24379106  1
  O2-  O181  1  0.09087792  0.34689420  0.52406607  1
  O2-  O182  1  0.07657839  0.37493240  0.73153374  1
  O2-  O183  1  0.12707481  0.86863341  0.00556678  1
  O2-  O184  1  0.09966719  0.88059763  0.24414776  1
  O2-  O185  1  0.15351619  0.86606875  0.49496100  1
  O2-  O186  1  0.11451214  0.89337474  0.74910522  1
  O2-  O187  1  0.35340441  0.32879132  -0.00264935  1
  O2-  O188  1  0.40005902  0.36787580  0.26572723  1
  O2-  O189  1  0.42127909  0.37008330  0.49620973  1
  O2-  O190  1  0.35759211  0.36061690  0.74815645  1
  O2-  O191  1  0.35570829  0.82904655  0.00959782  1
  O2-  O192  1  0.39416145  0.86349236  0.26705341  1
  O2-  O193  1  0.34278364  0.86331523  0.50832190  1
  O2-  O194  1  0.38291950  0.85787644  0.71734835  1
  O2-  O195  1  0.58052828  0.38445683  -0.00218040  1
  O2-  O196  1  0.65718956  0.36344624  0.24578697  1
  O2-  O197  1  0.61902350  0.35863292  0.50552871  1
  O2-  O198  1  0.66772550  0.34824302  0.74823998  1
  O2-  O199  1  0.65501538  0.86253920  0.01654126  1
  O2-  O200  1  0.58767251  0.85366228  0.25221487  1
  O2-  O201  1  0.66510140  0.86649662  0.49958557  1
  O2-  O202  1  0.64080261  0.85331142  0.69703048  1
  O2-  O203  1  0.93394303  0.36435872  0.01680509  1
  O2-  O204  1  0.85135995  0.38119898  0.24318872  1
  O2-  O205  1  0.89801587  0.37182565  0.49399598  1
  O2-  O206  1  0.87765363  0.35023480  0.76232382  1
  O2-  O207  1  0.86025825  0.87020013  -0.00408514  1
  O2-  O208  1  0.92081618  0.85607645  0.26903822  1
  O2-  O209  1  0.86636772  0.87343869  0.51064881  1
  O2-  O210  1  0.88779029  0.88019474  0.72562418  1
  O2-  O211  1  0.00029387  -0.12999935  -0.12460112  1
  O2-  O212  1  -0.01027873  0.13906990  0.37069930  1
  O2-  O213  1  0.01468013  -0.16624316  0.61620891  1
  O2-  O214  1  0.01697589  -0.00488156  0.59904372  1
  O2-  O215  1  0.01043984  0.64872554  -0.15464141  1
  O2-  O216  1  0.00075584  0.36031475  0.33737321  1
  O2-  O217  1  0.00080009  0.66297479  0.66241732  1
  O2-  O218  1  0.00125800  0.53325950  0.58166603  1
  O2-  O219  1  0.29873508  0.01761722  0.01224882  1
  O2-  O220  1  0.25947283  -0.11849624  0.14093330  1
  O2-  O221  1  0.23918352  0.14214203  0.39992063  1
  O2-  O222  1  0.26086926  -0.11249541  0.88135074  1
  O2-  O223  1  0.25876143  0.63556694  0.06121944  1
  O2-  O224  1  0.25164685  0.60238644  0.21288121  1
  O2-  O225  1  0.24435709  0.35776524  0.41095556  1
  O2-  O226  1  0.26063891  0.63559710  0.88212294  1
  O2-  O227  1  0.49032786  -0.08747222  -0.02836882  1
  O2-  O228  1  0.48735788  0.11249376  0.35179262  1
  O2-  O229  1  0.50333050  -0.17525631  0.59933127  1
  O2-  O230  1  0.50060997  -0.01645710  0.58075972  1
  O2-  O231  1  0.51206462  0.62326170  -0.11996390  1
  O2-  O232  1  0.50079888  0.64571278  0.39286697  1
  O2-  O233  1  0.49951116  0.54572971  0.55630268  1
  O2-  O234  1  0.51472448  0.63596359  0.68414054  1
  O2-  O235  1  0.74108382  0.13084380  0.09418235  1
  O2-  O236  1  0.75269215  -0.11634880  0.33040919  1
  O2-  O237  1  0.74028819  0.14237682  0.36690719  1
  O2-  O238  1  0.74436849  -0.12500333  0.85166620  1
  O2-  O239  1  0.74455779  0.37770401  0.08192330  1
  O2-  O240  1  0.74679972  0.59099113  0.34461451  1
  O2-  O241  1  0.75289533  0.38999846  0.39121985  1
  O2-  O242  1  0.70867924  0.46992126  0.89471660  1
