# generated using pymatgen
data_Gd19Ta56(WO20)8
_symmetry_space_group_name_H-M   'P 1'
_cell_length_a   15.54154685
_cell_length_b   15.58127622
_cell_length_c   15.41145883
_cell_angle_alpha   89.92942941
_cell_angle_beta   89.91694586
_cell_angle_gamma   90.00543656
_symmetry_Int_Tables_number   1
_chemical_formula_structural   Gd19Ta56(WO20)8
_chemical_formula_sum   'Gd19 Ta56 W8 O160'
_cell_volume   3731.98793622
_cell_formula_units_Z   1
loop_
 _symmetry_equiv_pos_site_id
 _symmetry_equiv_pos_as_xyz
  1  'x, y, z'
loop_
 _atom_type_symbol
 _atom_type_oxidation_number
  Gd3+  3.0
  Ta5+  5.0
  W6+  6.0
  O2-  -2.0
loop_
 _atom_site_type_symbol
 _atom_site_label
 _atom_site_symmetry_multiplicity
 _atom_site_fract_x
 _atom_site_fract_y
 _atom_site_fract_z
 _atom_site_occupancy
  Gd3+  Gd0  1  0.25323747  0.74418194  0.74872641  1
  Gd3+  Gd1  1  -0.00746052  0.74454193  0.49093052  1
  Gd3+  Gd2  1  0.74715735  0.75339458  0.74335499  1
  Gd3+  Gd3  1  0.00791615  0.26394431  0.50505598  1
  Gd3+  Gd4  1  0.23013406  0.22760825  0.25661846  1
  Gd3+  Gd5  1  0.25104001  0.73701537  0.00055439  1
  Gd3+  Gd6  1  0.02887146  0.27815678  0.75465435  1
  Gd3+  Gd7  1  0.46949824  0.73470921  0.52949955  1
  Gd3+  Gd8  1  0.74666209  0.75748258  -0.00334365  1
  Gd3+  Gd9  1  0.50006099  0.26543718  -0.00425180  1
  Gd3+  Gd10  1  0.00175664  0.73907292  0.73255707  1
  Gd3+  Gd11  1  0.49857800  0.24568059  0.48568202  1
  Gd3+  Gd12  1  0.25500988  0.24531608  0.51396509  1
  Gd3+  Gd13  1  0.73693225  0.25160854  0.00694535  1
  Gd3+  Gd14  1  0.24309117  0.24094001  -0.00025519  1
  Gd3+  Gd15  1  0.49113481  0.73866404  0.24540182  1
  Gd3+  Gd16  1  0.49695113  0.24594205  0.74895402  1
  Gd3+  Gd17  1  0.51364226  0.75294367  0.01325159  1
  Gd3+  Gd18  1  0.71637370  0.73841985  0.24569557  1
  Ta5+  Ta19  1  0.12266760  0.88001119  0.61856477  1
  Ta5+  Ta20  1  0.61879791  0.87435048  0.62203184  1
  Ta5+  Ta21  1  0.40411472  0.11307245  0.88766133  1
  Ta5+  Ta22  1  0.88211562  0.88337210  0.87221072  1
  Ta5+  Ta23  1  0.39268000  0.60957245  0.86154945  1
  Ta5+  Ta24  1  0.86893198  0.12723075  0.62484885  1
  Ta5+  Ta25  1  0.62075746  0.12132948  0.36905949  1
  Ta5+  Ta26  1  0.16643374  0.12358564  0.84329048  1
  Ta5+  Ta27  1  0.92284966  0.12373504  0.37466325  1
  Ta5+  Ta28  1  0.38252508  0.11270914  0.13778657  1
  Ta5+  Ta29  1  0.37347612  0.11389133  0.38247584  1
  Ta5+  Ta30  1  0.11861985  0.62223375  0.87438894  1
  Ta5+  Ta31  1  0.85687205  0.62739508  0.37112491  1
  Ta5+  Ta32  1  0.36930887  0.87487485  0.12382335  1
  Ta5+  Ta33  1  0.85540507  0.36877809  0.62763904  1
  Ta5+  Ta34  1  0.37262461  0.61263089  0.37354944  1
  Ta5+  Ta35  1  0.87030609  0.88029238  0.61266183  1
  Ta5+  Ta36  1  0.37415633  0.36109351  0.13572200  1
  Ta5+  Ta37  1  0.34668358  0.11279154  0.64897928  1
  Ta5+  Ta38  1  0.62205145  0.13267285  0.14078458  1
  Ta5+  Ta39  1  0.14852335  0.38068030  0.37860100  1
  Ta5+  Ta40  1  0.62709239  0.38200267  0.86573710  1
  Ta5+  Ta41  1  0.88571531  0.60591826  0.12476142  1
  Ta5+  Ta42  1  0.63892519  0.37533188  0.37674665  1
  Ta5+  Ta43  1  0.61071652  0.87985303  0.37511946  1
  Ta5+  Ta44  1  0.59829733  0.62527230  0.86111852  1
  Ta5+  Ta45  1  0.14365136  0.87834926  0.37000896  1
  Ta5+  Ta46  1  0.88789098  0.36349209  0.12425976  1
  Ta5+  Ta47  1  0.87332905  0.61395205  0.62125759  1
  Ta5+  Ta48  1  0.86257666  0.13327225  0.87112836  1
  Ta5+  Ta49  1  0.14109203  0.62726874  0.36809525  1
  Ta5+  Ta50  1  0.12676242  0.88021086  0.87198131  1
  Ta5+  Ta51  1  0.09071456  0.11661456  0.37992121  1
  Ta5+  Ta52  1  0.32347634  0.60252571  0.62216600  1
  Ta5+  Ta53  1  0.11920740  0.87761589  0.12062384  1
  Ta5+  Ta54  1  0.87650227  0.12506781  0.12980782  1
  Ta5+  Ta55  1  0.36607057  0.60536930  0.11774102  1
  Ta5+  Ta56  1  0.87006582  0.37628160  0.87518107  1
  Ta5+  Ta57  1  0.32081399  0.37706464  0.38108416  1
  Ta5+  Ta58  1  0.63221033  0.12168930  0.62036582  1
  Ta5+  Ta59  1  0.61752455  0.12092365  0.87488625  1
  Ta5+  Ta60  1  0.87994075  0.88834604  0.12417730  1
  Ta5+  Ta61  1  0.13182802  0.12000999  0.63061123  1
  Ta5+  Ta62  1  0.12119753  0.62462337  0.13138500  1
  Ta5+  Ta63  1  0.86212186  0.88256630  0.36330730  1
  Ta5+  Ta64  1  0.61035262  0.61757745  0.38066910  1
  Ta5+  Ta65  1  0.12440916  0.37718987  0.12496267  1
  Ta5+  Ta66  1  0.11517053  0.11731352  0.11348446  1
  Ta5+  Ta67  1  0.34666856  0.37313416  0.87115410  1
  Ta5+  Ta68  1  0.38184361  0.37411500  0.62890304  1
  Ta5+  Ta69  1  0.37435957  0.87209001  0.87026749  1
  Ta5+  Ta70  1  0.12955330  0.61937278  0.61325878  1
  Ta5+  Ta71  1  0.61119414  0.90132600  0.12177434  1
  Ta5+  Ta72  1  0.63430896  0.62375731  0.62414461  1
  Ta5+  Ta73  1  0.61081917  0.88023201  0.86205716  1
  Ta5+  Ta74  1  0.38399902  0.87006439  0.37946466  1
  W6+  W75  1  0.36883154  0.87374310  0.63610473  1
  W6+  W76  1  0.62688460  0.61048166  0.11447224  1
  W6+  W77  1  0.86427973  0.62354574  0.87810087  1
  W6+  W78  1  0.60221417  0.37632627  0.61393407  1
  W6+  W79  1  0.88899996  0.37658149  0.37163026  1
  W6+  W80  1  0.15198725  0.39679885  0.60250032  1
  W6+  W81  1  0.61576327  0.39359668  0.13061450  1
  W6+  W82  1  0.18071309  0.38381726  0.86022389  1
  O2-  O83  1  0.14738684  -0.00013773  0.11926811  1
  O2-  O84  1  0.09415292  -0.01151169  0.37061941  1
  O2-  O85  1  0.13359603  -0.00271563  0.64822219  1
  O2-  O86  1  0.14329657  -0.00259318  0.85129314  1
  O2-  O87  1  0.10839486  0.50078531  0.13253627  1
  O2-  O88  1  0.14701923  0.50891982  0.35810871  1
  O2-  O89  1  0.21311415  0.52837908  0.60564236  1
  O2-  O90  1  0.17152459  0.51885817  0.86659560  1
  O2-  O91  1  0.34900578  -0.00215928  0.12228306  1
  O2-  O92  1  0.37519933  -0.00732733  0.38329033  1
  O2-  O93  1  0.39052367  0.00655974  0.62787825  1
  O2-  O94  1  0.39575544  -0.00854182  0.89338854  1
  O2-  O95  1  0.37355654  0.48503563  0.12426340  1
  O2-  O96  1  0.36434654  0.49322498  0.37700392  1
  O2-  O97  1  0.38678072  0.49556945  0.62089596  1
  O2-  O98  1  0.38291823  0.49040818  0.88141195  1
  O2-  O99  1  0.65838352  0.01224772  0.11589917  1
  O2-  O100  1  0.63826370  -0.00051777  0.38480322  1
  O2-  O101  1  0.62567280  0.00199237  0.61322771  1
  O2-  O102  1  0.60459555  0.00115922  0.88500724  1
  O2-  O103  1  0.68908982  0.49201363  0.11225015  1
  O2-  O104  1  0.63623559  0.50416971  0.39919422  1
  O2-  O105  1  0.62350068  0.50810773  0.61553841  1
  O2-  O106  1  0.61639847  0.50254446  0.86908397  1
  O2-  O107  1  0.84404552  0.00289785  0.12149644  1
  O2-  O108  1  0.87209147  -0.00001946  0.37724749  1
  O2-  O109  1  0.86198400  0.00257911  0.61990691  1
  O2-  O110  1  0.87650461  0.00449853  0.87449335  1
  O2-  O111  1  0.90336718  0.49006299  0.11004318  1
  O2-  O112  1  0.88389209  0.51409065  0.35921114  1
  O2-  O113  1  0.85207930  0.49451705  0.62802958  1
  O2-  O114  1  0.89493535  0.49081246  0.88646228  1
  O2-  O115  1  0.15384693  0.24136534  0.12080265  1
  O2-  O116  1  0.13604314  0.24433157  0.39790169  1
  O2-  O117  1  0.12161456  0.25320893  0.60749184  1
  O2-  O118  1  0.14883841  0.24623257  0.85472449  1
  O2-  O119  1  0.14935361  0.75606411  0.11232545  1
  O2-  O120  1  0.09343172  0.76518950  0.38479499  1
  O2-  O121  1  0.09562044  0.74858215  0.60474480  1
  O2-  O122  1  0.16855793  0.74758494  0.87949488  1
  O2-  O123  1  0.32941827  0.23341966  0.13094888  1
  O2-  O124  1  0.32248088  0.23798858  0.38035103  1
  O2-  O125  1  0.39071987  0.23255539  0.63826035  1
  O2-  O126  1  0.40537849  0.24905490  0.87648792  1
  O2-  O127  1  0.39672296  0.73768866  0.11264935  1
  O2-  O128  1  0.41864351  0.74027144  0.37910956  1
  O2-  O129  1  0.35653656  0.72743123  0.63644796  1
  O2-  O130  1  0.35135233  0.73748986  0.86716291  1
  O2-  O131  1  0.65180814  0.25280380  0.12898900  1
  O2-  O132  1  0.60294211  0.25139962  0.37021797  1
  O2-  O133  1  0.57215675  0.23749101  0.61374206  1
  O2-  O134  1  0.59143185  0.25122130  0.87298800  1
  O2-  O135  1  0.60367575  0.75943324  0.13730839  1
  O2-  O136  1  0.60136093  0.75248593  0.35103975  1
  O2-  O137  1  0.59428979  0.75026520  0.64388531  1
  O2-  O138  1  0.63745401  0.75210808  0.85305869  1
  O2-  O139  1  0.83512038  0.24325748  0.12457073  1
  O2-  O140  1  0.92802444  0.24768449  0.37426562  1
  O2-  O141  1  0.92509512  0.24908090  0.63542416  1
  O2-  O142  1  0.92047191  0.24859212  0.87369905  1
  O2-  O143  1  0.79795843  0.79547749  0.13671417  1
  O2-  O144  1  0.90475677  0.74522046  0.36168116  1
  O2-  O145  1  0.90001081  0.75059744  0.61820441  1
  O2-  O146  1  0.82440069  0.76129310  0.87132325  1
  O2-  O147  1  0.13788547  0.12893057  -0.01258983  1
  O2-  O148  1  0.11682724  0.12909931  0.24539409  1
  O2-  O149  1  0.07942911  0.11552060  0.51518972  1
  O2-  O150  1  0.07391189  0.13817782  0.74481221  1
  O2-  O151  1  0.12757477  0.63012099  0.00120947  1
  O2-  O152  1  0.09439914  0.64573505  0.25456534  1
  O2-  O153  1  0.09036642  0.62378091  0.48397382  1
  O2-  O154  1  0.13213668  0.64887740  0.74265688  1
  O2-  O155  1  0.41833542  0.13672353  0.01452980  1
  O2-  O156  1  0.33680140  0.11842000  0.25787116  1
  O2-  O157  1  0.39217585  0.13762306  0.50589686  1
  O2-  O158  1  0.41130796  0.11740521  0.76042377  1
  O2-  O159  1  0.33512125  0.61710945  -0.00766250  1
  O2-  O160  1  0.39817704  0.62191080  0.24451043  1
  O2-  O161  1  0.36424118  0.62460789  0.50076147  1
  O2-  O162  1  0.31679649  0.60494659  0.75601534  1
  O2-  O163  1  0.61777823  0.14469545  0.00611778  1
  O2-  O164  1  0.67506894  0.12600820  0.25535701  1
  O2-  O165  1  0.63877048  0.13841850  0.49263460  1
  O2-  O166  1  0.60477139  0.12681764  0.74488263  1
  O2-  O167  1  0.65302872  0.64561479  -0.02310441  1
  O2-  O168  1  0.60995194  0.61959997  0.25402082  1
  O2-  O169  1  0.58941991  0.65006193  0.50389148  1
  O2-  O170  1  0.66795594  0.62659553  0.74983011  1
  O2-  O171  1  0.84326232  0.13645170  -0.00212111  1
  O2-  O172  1  0.89187009  0.12182746  0.24894300  1
  O2-  O173  1  0.89717137  0.13404469  0.50484887  1
  O2-  O174  1  0.89398691  0.12516468  0.74895177  1
  O2-  O175  1  0.84075713  0.64264345  0.01900708  1
  O2-  O176  1  0.83528314  0.63871782  0.23380526  1
  O2-  O177  1  0.89335318  0.63135733  0.49252675  1
  O2-  O178  1  0.85917999  0.64551441  0.74238666  1
  O2-  O179  1  0.17471074  0.37262917  0.01217460  1
  O2-  O180  1  0.14414961  0.35749933  0.24745575  1
  O2-  O181  1  0.07472705  0.39276254  0.49211379  1
  O2-  O182  1  0.11771379  0.38661987  0.73170998  1
  O2-  O183  1  0.15496470  0.87695063  -0.00772103  1
  O2-  O184  1  0.12060015  0.87093475  0.24278697  1
  O2-  O185  1  0.15221981  0.88572609  0.50029429  1
  O2-  O186  1  0.12275404  0.83920572  0.74610733  1
  O2-  O187  1  0.36295016  0.34761876  0.00348287  1
  O2-  O188  1  0.33703226  0.35878596  0.25405626  1
  O2-  O189  1  0.38702206  0.34204295  0.50032522  1
  O2-  O190  1  0.40167216  0.36813356  0.75461089  1
  O2-  O191  1  0.34038425  0.85676035  -0.00207830  1
  O2-  O192  1  0.40294791  0.86139546  0.24801680  1
  O2-  O193  1  0.40348489  0.86043986  0.50123042  1
  O2-  O194  1  0.31073738  0.88087174  0.76620811  1
  O2-  O195  1  0.62546822  0.35942188  -0.00636950  1
  O2-  O196  1  0.60608946  0.39761099  0.26402715  1
  O2-  O197  1  0.75390708  0.36100429  0.39159812  1
  O2-  O198  1  0.59243786  0.36675504  0.74943414  1
  O2-  O199  1  0.63737823  0.85966861  -0.00394409  1
  O2-  O200  1  0.60083248  0.89071512  0.24525837  1
  O2-  O201  1  0.59651261  0.85534044  0.49934259  1
  O2-  O202  1  0.66230724  0.88643348  0.74948744  1
  O2-  O203  1  0.84010806  0.35900962  0.00335136  1
  O2-  O204  1  0.85974142  0.37486737  0.23793616  1
  O2-  O205  1  0.89595513  0.36493422  0.51229475  1
  O2-  O206  1  0.90338440  0.36955585  0.74909013  1
  O2-  O207  1  0.85466733  0.87070703  -0.00367434  1
  O2-  O208  1  0.90874962  0.88010771  0.24747727  1
  O2-  O209  1  0.89076984  0.86131399  0.48512390  1
  O2-  O210  1  0.87138573  0.86552256  0.74556088  1
  O2-  O211  1  -0.00080455  -0.12176864  0.09498761  1
  O2-  O212  1  -0.00623137  0.12232344  0.09905218  1
  O2-  O213  1  -0.00149589  -0.11394126  0.61743294  1
  O2-  O214  1  0.00158123  -0.14173941  0.87681756  1
  O2-  O215  1  -0.00710625  0.65560822  0.11989745  1
  O2-  O216  1  0.00572263  0.33768046  0.11557002  1
  O2-  O217  1  -0.00269264  0.61163224  0.63963170  1
  O2-  O218  1  0.00051069  0.65727829  0.85732758  1
  O2-  O219  1  0.27859902  0.12974852  -0.10451181  1
  O2-  O220  1  0.26124836  -0.14318226  0.35898024  1
  O2-  O221  1  0.24398760  0.11189761  0.56855252  1
  O2-  O222  1  0.23699137  0.12544306  0.72756600  1
  O2-  O223  1  0.24475686  0.62148448  0.14380609  1
  O2-  O224  1  0.25494404  0.66191482  0.35806698  1
  O2-  O225  1  0.23125615  0.39343677  0.48037258  1
  O2-  O226  1  0.26548227  0.34018663  0.63911309  1
  O2-  O227  1  0.49086136  -0.11360997  0.09086489  1
  O2-  O228  1  0.50452306  0.13028684  0.16631448  1
  O2-  O229  1  0.49737109  0.12040726  0.36376141  1
  O2-  O230  1  0.49454098  -0.16075137  0.89514807  1
  O2-  O231  1  0.49333821  0.63092853  -0.05805021  1
  O2-  O232  1  0.49230149  0.32662654  0.13066446  1
  O2-  O233  1  0.56952951  0.37259079  0.48169560  1
  O2-  O234  1  0.49277749  0.62469087  0.78480915  1
  O2-  O235  1  0.74551521  0.15662211  -0.14171521  1
  O2-  O236  1  0.74512530  -0.14687801  0.34738906  1
  O2-  O237  1  0.74894536  -0.14725355  0.61022737  1
  O2-  O238  1  0.75144453  0.15052966  0.63432141  1
  O2-  O239  1  0.75067158  0.35307278  -0.14303435  1
  O2-  O240  1  0.73847142  0.65134085  0.38171378  1
  O2-  O241  1  0.75220200  0.65194468  0.59872303  1
  O2-  O242  1  0.74307674  0.34075254  0.62818650  1
