# generated using pymatgen
data_Gd19Ta56(WO20)8
_symmetry_space_group_name_H-M   'P 1'
_cell_length_a   15.50094629
_cell_length_b   15.44998742
_cell_length_c   15.22424112
_cell_angle_alpha   90.02917895
_cell_angle_beta   89.85748036
_cell_angle_gamma   90.01980051
_symmetry_Int_Tables_number   1
_chemical_formula_structural   Gd19Ta56(WO20)8
_chemical_formula_sum   'Gd19 Ta56 W8 O160'
_cell_volume   3646.03278493
_cell_formula_units_Z   1
loop_
 _symmetry_equiv_pos_site_id
 _symmetry_equiv_pos_as_xyz
  1  'x, y, z'
loop_
 _atom_type_symbol
 _atom_type_oxidation_number
  Gd3+  3.0
  Ta5+  5.0
  W6+  6.0
  O2-  -2.0
loop_
 _atom_site_type_symbol
 _atom_site_label
 _atom_site_symmetry_multiplicity
 _atom_site_fract_x
 _atom_site_fract_y
 _atom_site_fract_z
 _atom_site_occupancy
  Gd3+  Gd0  1  0.24219619  0.18339934  0.26930700  1
  Gd3+  Gd1  1  0.01363072  0.74089540  -0.00841544  1
  Gd3+  Gd2  1  0.71914522  0.26386065  0.02420318  1
  Gd3+  Gd3  1  0.51018805  0.75119525  0.77131394  1
  Gd3+  Gd4  1  0.25742336  0.24979847  0.73966597  1
  Gd3+  Gd5  1  -0.00487140  0.75316089  0.49295908  1
  Gd3+  Gd6  1  -0.00814682  0.27571428  0.00670782  1
  Gd3+  Gd7  1  0.23396262  0.74413459  -0.00005061  1
  Gd3+  Gd8  1  0.50301352  0.75236100  0.24740174  1
  Gd3+  Gd9  1  0.02554009  0.76782593  0.24926613  1
  Gd3+  Gd10  1  0.22363966  0.24278817  -0.00242128  1
  Gd3+  Gd11  1  0.75727401  0.75481012  0.51550008  1
  Gd3+  Gd12  1  0.27216119  0.81065060  0.27399435  1
  Gd3+  Gd13  1  -0.03171190  0.27020499  0.53267923  1
  Gd3+  Gd14  1  0.26756458  0.76019917  0.48843462  1
  Gd3+  Gd15  1  0.21380873  0.20115526  0.50120120  1
  Gd3+  Gd16  1  0.51600050  0.25184956  0.25118913  1
  Gd3+  Gd17  1  0.50640933  0.24336006  0.72313198  1
  Gd3+  Gd18  1  0.50458167  0.75252038  0.50013245  1
  Ta5+  Ta19  1  0.37726422  0.37988418  0.60409496  1
  Ta5+  Ta20  1  0.89390497  0.88546977  0.11809450  1
  Ta5+  Ta21  1  0.37860359  0.36415370  0.88457453  1
  Ta5+  Ta22  1  0.66538084  0.13022655  0.62093560  1
  Ta5+  Ta23  1  0.63513555  0.37011374  0.61695214  1
  Ta5+  Ta24  1  0.89343262  0.13212719  0.86280073  1
  Ta5+  Ta25  1  0.38124924  0.35991615  0.09493551  1
  Ta5+  Ta26  1  0.38326427  0.12474324  0.12551947  1
  Ta5+  Ta27  1  0.11541010  0.36631242  0.37104423  1
  Ta5+  Ta28  1  0.89373119  0.62512880  0.12761751  1
  Ta5+  Ta29  1  0.14285947  0.36408711  0.16901074  1
  Ta5+  Ta30  1  0.34159477  0.36633189  0.35256351  1
  Ta5+  Ta31  1  0.14125996  0.88600918  0.64042641  1
  Ta5+  Ta32  1  0.62139713  0.12468198  0.87625901  1
  Ta5+  Ta33  1  0.64963272  0.88075090  0.36528505  1
  Ta5+  Ta34  1  0.88165568  0.88978090  0.37625551  1
  Ta5+  Ta35  1  0.17563907  0.61114556  0.15982965  1
  Ta5+  Ta36  1  0.62297800  0.88507291  0.63814109  1
  Ta5+  Ta37  1  0.86368771  0.12931711  0.12712585  1
  Ta5+  Ta38  1  0.08210230  0.38789558  0.83079452  1
  Ta5+  Ta39  1  0.13397398  0.62207403  0.60650417  1
  Ta5+  Ta40  1  0.80559946  0.37012990  0.64028937  1
  Ta5+  Ta41  1  0.66599635  0.87399632  0.15402103  1
  Ta5+  Ta42  1  0.36109625  0.62564211  0.65746077  1
  Ta5+  Ta43  1  0.16279503  0.61946254  0.82098935  1
  Ta5+  Ta44  1  0.39672444  0.13022916  0.40517579  1
  Ta5+  Ta45  1  0.36777457  0.87549127  0.88331861  1
  Ta5+  Ta46  1  0.63273294  0.62109698  0.63970811  1
  Ta5+  Ta47  1  0.58803284  0.09117936  0.12285598  1
  Ta5+  Ta48  1  0.85064288  0.62348413  0.36614610  1
  Ta5+  Ta49  1  0.31297834  0.99791741  0.48439881  1
  Ta5+  Ta50  1  0.86993691  0.89080684  0.62513024  1
  Ta5+  Ta51  1  0.39455813  0.56653459  0.10688608  1
  Ta5+  Ta52  1  0.13505405  0.37631772  0.61898780  1
  Ta5+  Ta53  1  0.83143201  0.13758565  0.62990608  1
  Ta5+  Ta54  1  0.63320155  0.87543864  0.90248220  1
  Ta5+  Ta55  1  0.37472402  0.61121548  0.34479493  1
  Ta5+  Ta56  1  0.38052948  0.13079942  0.59024838  1
  Ta5+  Ta57  1  0.37585538  0.11800592  0.87201483  1
  Ta5+  Ta58  1  0.10003215  0.11515787  0.12820707  1
  Ta5+  Ta59  1  0.66343064  0.62738495  0.15448279  1
  Ta5+  Ta60  1  0.87192352  0.38014028  0.38749387  1
  Ta5+  Ta61  1  0.60206571  0.41252509  0.13012517  1
  Ta5+  Ta62  1  0.88247517  0.38390778  0.86163276  1
  Ta5+  Ta63  1  0.37829999  0.88413124  0.65470212  1
  Ta5+  Ta64  1  0.16110343  0.61419959  0.36714178  1
  Ta5+  Ta65  1  0.94411383  0.88791334  0.86324145  1
  Ta5+  Ta66  1  0.12945816  0.92490656  0.39670502  1
  Ta5+  Ta67  1  0.10273850  0.12665117  0.85697073  1
  Ta5+  Ta68  1  0.63492366  0.62133844  0.37638282  1
  Ta5+  Ta69  1  0.37339851  0.61145308  0.87410119  1
  Ta5+  Ta70  1  0.06008896  0.12427523  0.38207227  1
  Ta5+  Ta71  1  0.07212879  0.12773939  0.64985704  1
  Ta5+  Ta72  1  0.89292570  0.13403407  0.37789414  1
  Ta5+  Ta73  1  0.14167425  0.90129495  0.13145782  1
  Ta5+  Ta74  1  0.64714058  0.37689584  0.36598082  1
  W6+  W75  1  0.88767224  0.62891580  0.86605159  1
  W6+  W76  1  0.62920914  0.38104812  0.86933439  1
  W6+  W77  1  0.88320110  0.60972970  0.61626670  1
  W6+  W78  1  0.64490424  0.12371157  0.37552847  1
  W6+  W79  1  0.86258348  0.37616878  0.13007821  1
  W6+  W80  1  0.10774990  0.87335695  0.86772475  1
  W6+  W81  1  0.39462248  0.92208468  0.11681387  1
  W6+  W82  1  0.62322035  0.62459155  0.90404679  1
  O2-  O83  1  0.16268548  0.01628440  0.08889149  1
  O2-  O84  1  0.03513517  0.00453861  0.40791715  1
  O2-  O85  1  0.10177254  0.00222029  0.64060672  1
  O2-  O86  1  0.11901038  0.01127630  0.87276493  1
  O2-  O87  1  0.15715677  0.49211616  0.15964926  1
  O2-  O88  1  0.14126261  0.49217366  0.36843120  1
  O2-  O89  1  0.14791499  0.50081929  0.60133074  1
  O2-  O90  1  0.13000012  0.50591481  0.85253818  1
  O2-  O91  1  0.32892399  0.02121220  0.16845178  1
  O2-  O92  1  0.40125883  0.00203268  0.39338164  1
  O2-  O93  1  0.36514069  0.00833216  0.61925100  1
  O2-  O94  1  0.34435367  0.00236884  0.86362275  1
  O2-  O95  1  0.32327625  0.46984362  0.12601792  1
  O2-  O96  1  0.35812098  0.48998341  0.33001666  1
  O2-  O97  1  0.36179889  0.50269966  0.63010913  1
  O2-  O98  1  0.37528870  0.48482040  0.87014782  1
  O2-  O99  1  0.66736251  -0.00151114  0.13885990  1
  O2-  O100  1  0.62264357  -0.00620276  0.38926597  1
  O2-  O101  1  0.64422624  0.00203884  0.63453559  1
  O2-  O102  1  0.62918460  0.00051362  0.88425240  1
  O2-  O103  1  0.68042574  0.49775553  0.16575306  1
  O2-  O104  1  0.63350082  0.50283667  0.38386473  1
  O2-  O105  1  0.62295371  0.50141849  0.62834495  1
  O2-  O106  1  0.61406287  0.50232925  0.87558923  1
  O2-  O107  1  0.86767255  0.00359880  0.10646643  1
  O2-  O108  1  0.86084513  0.00769272  0.38087203  1
  O2-  O109  1  0.84746399  0.01012829  0.62250156  1
  O2-  O110  1  0.91572389  0.01036680  0.87712326  1
  O2-  O111  1  0.89798364  0.50795381  0.14123158  1
  O2-  O112  1  0.87576857  0.50375158  0.35302329  1
  O2-  O113  1  0.83992293  0.48392689  0.63164228  1
  O2-  O114  1  0.85747697  0.49977910  0.87691379  1
  O2-  O115  1  0.15503989  0.22909559  0.15771003  1
  O2-  O116  1  0.13593649  0.23352976  0.37005679  1
  O2-  O117  1  0.07169282  0.26465410  0.64756213  1
  O2-  O118  1  0.12733455  0.27098764  0.86066217  1
  O2-  O119  1  0.17260590  0.77526271  0.16680884  1
  O2-  O120  1  0.16568708  0.74767655  0.36759226  1
  O2-  O121  1  0.18197925  0.74210466  0.60893402  1
  O2-  O122  1  0.12215694  0.72091768  0.88153398  1
  O2-  O123  1  0.32587020  0.24570872  0.11168085  1
  O2-  O124  1  0.31578085  0.23968703  0.38773629  1
  O2-  O125  1  0.32373782  0.25849291  0.59943776  1
  O2-  O126  1  0.31759232  0.23920861  0.87736243  1
  O2-  O127  1  0.28895082  0.63712316  0.09787246  1
  O2-  O128  1  0.37709615  0.74369223  0.35672459  1
  O2-  O129  1  0.37600945  0.75854966  0.68649619  1
  O2-  O130  1  0.38937152  0.74006569  0.87843645  1
  O2-  O131  1  0.62914897  0.29333842  0.14689373  1
  O2-  O132  1  0.62211455  0.25354493  0.35934916  1
  O2-  O133  1  0.60838022  0.24191521  0.61374450  1
  O2-  O134  1  0.65691889  0.24893449  0.88631252  1
  O2-  O135  1  0.62669318  0.75213996  0.15845602  1
  O2-  O136  1  0.59778560  0.75821789  0.37008514  1
  O2-  O137  1  0.57317696  0.74234477  0.63541915  1
  O2-  O138  1  0.58464947  0.75805165  0.90143694  1
  O2-  O139  1  0.81484182  0.24389916  0.13334886  1
  O2-  O140  1  0.88463572  0.26043999  0.35847690  1
  O2-  O141  1  0.87282678  0.25972636  0.64648352  1
  O2-  O142  1  0.93584451  0.25342650  0.87039585  1
  O2-  O143  1  0.94625802  0.75028092  0.12346132  1
  O2-  O144  1  0.86992387  0.75314675  0.39808400  1
  O2-  O145  1  0.88951232  0.75349140  0.59676211  1
  O2-  O146  1  0.92752890  0.76082687  0.86885032  1
  O2-  O147  1  0.09359888  0.15869238  -0.01127315  1
  O2-  O148  1  0.09470081  0.10270011  0.25431142  1
  O2-  O149  1  0.06823778  0.14614100  0.52140234  1
  O2-  O150  1  0.16819345  0.13320368  0.74222106  1
  O2-  O151  1  0.11788739  0.65252033  0.05875703  1
  O2-  O152  1  0.09042560  0.63190218  0.25581722  1
  O2-  O153  1  0.10143506  0.63596488  0.47968496  1
  O2-  O154  1  0.08720295  0.63397291  0.72403768  1
  O2-  O155  1  0.35112153  0.12162538  -0.00072654  1
  O2-  O156  1  0.39275678  0.15160698  0.26041079  1
  O2-  O157  1  0.46072465  0.17873048  0.50246550  1
  O2-  O158  1  0.37821695  0.14873522  0.74019503  1
  O2-  O159  1  0.42799927  0.60091922  -0.00914283  1
  O2-  O160  1  0.41808857  0.62001576  0.21719463  1
  O2-  O161  1  0.38646586  0.67161571  0.54504851  1
  O2-  O162  1  0.43930098  0.61309262  0.76155522  1
  O2-  O163  1  0.64020495  0.13388964  0.01599307  1
  O2-  O164  1  0.59874545  0.12413726  0.24268979  1
  O2-  O165  1  0.68530292  0.12680018  0.49868968  1
  O2-  O166  1  0.61319298  0.13530915  0.75175443  1
  O2-  O167  1  0.61604264  0.61404200  0.04420487  1
  O2-  O168  1  0.58202313  0.62173395  0.25397696  1
  O2-  O169  1  0.60319340  0.64521629  0.50887820  1
  O2-  O170  1  0.61784263  0.64033796  0.76282302  1
  O2-  O171  1  0.84817847  0.14741726  -0.01658695  1
  O2-  O172  1  0.86421283  0.11768779  0.24770425  1
  O2-  O173  1  0.87615220  0.15249369  0.50558418  1
  O2-  O174  1  0.82003442  0.13622933  0.76767955  1
  O2-  O175  1  0.92434964  0.62581098  0.00267888  1
  O2-  O176  1  0.91385746  0.65576123  0.25648959  1
  O2-  O177  1  0.91604319  0.61905025  0.48011648  1
  O2-  O178  1  0.89518050  0.62818415  0.74346513  1
  O2-  O179  1  0.12060913  0.34470096  0.04817816  1
  O2-  O180  1  0.22611905  0.34848549  0.27718080  1
  O2-  O181  1  0.15807421  0.34498596  0.49624184  1
  O2-  O182  1  0.18132373  0.38204395  0.73973809  1
  O2-  O183  1  0.12637659  0.85063875  0.01328512  1
  O2-  O184  1  0.14962794  0.91565322  0.26939269  1
  O2-  O185  1  0.11371152  0.86529581  0.51442106  1
  O2-  O186  1  0.08142027  0.83981273  0.73210709  1
  O2-  O187  1  0.29554272  0.37042389  -0.01116459  1
  O2-  O188  1  0.39431700  0.33996403  0.23292332  1
  O2-  O189  1  0.35818661  0.38396180  0.47620963  1
  O2-  O190  1  0.38445203  0.34195402  0.75030004  1
  O2-  O191  1  0.42418414  0.88453374  -0.01050023  1
  O2-  O192  1  0.38458899  0.80879084  0.17775517  1
  O2-  O193  1  0.36294613  0.86234623  0.52962335  1
  O2-  O194  1  0.43544888  0.88806094  0.77834936  1
  O2-  O195  1  0.64049656  0.39226466  0.01251992  1
  O2-  O196  1  0.56864084  0.39380124  0.26525330  1
  O2-  O197  1  0.64676153  0.37025937  0.49035217  1
  O2-  O198  1  0.59877096  0.35375277  0.74469393  1
  O2-  O199  1  0.63624226  0.87741934  0.02437192  1
  O2-  O200  1  0.56994322  0.88376364  0.25085900  1
  O2-  O201  1  0.62663002  0.84643486  0.50843573  1
  O2-  O202  1  0.62186119  0.86171684  0.76385815  1
  O2-  O203  1  0.83909309  0.34766917  -0.02184615  1
  O2-  O204  1  0.75912214  0.37724767  0.32313396  1
  O2-  O205  1  0.84102210  0.36167813  0.50501408  1
  O2-  O206  1  0.79999615  0.35723963  0.77416961  1
  O2-  O207  1  0.93159970  0.87436951  -0.00325923  1
  O2-  O208  1  0.89784833  0.86880790  0.25236115  1
  O2-  O209  1  0.92154265  0.88908966  0.50745100  1
  O2-  O210  1  0.91463319  0.88886363  0.73832244  1
  O2-  O211  1  -0.01830731  0.16328921  0.11583369  1
  O2-  O212  1  0.02274627  -0.10196219  0.15204786  1
  O2-  O213  1  0.01318108  -0.15464758  0.37341193  1
  O2-  O214  1  0.00676292  0.13218408  0.77295996  1
  O2-  O215  1  0.00470744  0.40126192  -0.06982519  1
  O2-  O216  1  0.05437320  0.35910220  0.25232955  1
  O2-  O217  1  -0.00087355  0.37626709  0.41910474  1
  O2-  O218  1  -0.01883047  0.39264004  0.76555138  1
  O2-  O219  1  0.25167220  -0.15484769  -0.11304870  1
  O2-  O220  1  0.25526493  -0.11082969  0.40559746  1
  O2-  O221  1  0.19219004  0.03363712  0.44352007  1
  O2-  O222  1  0.25436544  -0.10364900  0.68529649  1
  O2-  O223  1  0.25708522  0.62136660  -0.08002467  1
  O2-  O224  1  0.25369295  0.63549024  0.26589547  1
  O2-  O225  1  0.27423855  0.61538162  0.42870745  1
  O2-  O226  1  0.27093975  0.61806457  0.75545151  1
  O2-  O227  1  0.49431801  0.18881696  0.11463272  1
  O2-  O228  1  0.48516074  0.02676438  0.10677211  1
  O2-  O229  1  0.50075451  -0.10820043  0.62233373  1
  O2-  O230  1  0.49654023  0.13534777  0.88625105  1
  O2-  O231  1  0.45064133  0.33529100  -0.01177048  1
  O2-  O232  1  0.48513685  0.46003822  0.11298028  1
  O2-  O233  1  0.48700022  0.61983923  0.39101984  1
  O2-  O234  1  0.49358169  0.36410545  0.60626940  1
  O2-  O235  1  0.78070368  -0.15760679  0.11028691  1
  O2-  O236  1  0.72921122  -0.12335329  0.26871496  1
  O2-  O237  1  0.76400147  -0.12555515  0.42682508  1
  O2-  O238  1  0.75192205  -0.14712760  0.63285087  1
  O2-  O239  1  0.77928241  0.65517835  0.11784898  1
  O2-  O240  1  0.73744186  0.63638307  0.28975452  1
  O2-  O241  1  0.74776641  0.62716965  0.44477111  1
  O2-  O242  1  0.74716704  0.65109875  0.62820905  1
