# generated using pymatgen
data_Gd19Ta56(WO20)8
_symmetry_space_group_name_H-M   'P 1'
_cell_length_a   15.57969682
_cell_length_b   15.43533354
_cell_length_c   15.03389912
_cell_angle_alpha   89.94025845
_cell_angle_beta   90.21561706
_cell_angle_gamma   89.93517626
_symmetry_Int_Tables_number   1
_chemical_formula_structural   Gd19Ta56(WO20)8
_chemical_formula_sum   'Gd19 Ta56 W8 O160'
_cell_volume   3615.28934531
_cell_formula_units_Z   1
loop_
 _symmetry_equiv_pos_site_id
 _symmetry_equiv_pos_as_xyz
  1  'x, y, z'
loop_
 _atom_type_symbol
 _atom_type_oxidation_number
  Gd3+  3.0
  Ta5+  5.0
  W6+  6.0
  O2-  -2.0
loop_
 _atom_site_type_symbol
 _atom_site_label
 _atom_site_symmetry_multiplicity
 _atom_site_fract_x
 _atom_site_fract_y
 _atom_site_fract_z
 _atom_site_occupancy
  Gd3+  Gd0  1  0.00928771  0.73282203  0.24634899  1
  Gd3+  Gd1  1  0.25367554  0.25939233  0.76669949  1
  Gd3+  Gd2  1  -0.01614349  0.25020007  0.49067465  1
  Gd3+  Gd3  1  0.19592702  0.25233610  0.21903039  1
  Gd3+  Gd4  1  0.77482889  0.74433613  0.24001648  1
  Gd3+  Gd5  1  0.49030035  0.24917176  0.50380409  1
  Gd3+  Gd6  1  -0.02406288  0.26417917  -0.00378810  1
  Gd3+  Gd7  1  0.02368535  0.75477745  0.48912690  1
  Gd3+  Gd8  1  0.19777245  0.24662587  -0.01463466  1
  Gd3+  Gd9  1  0.50399111  0.24747107  0.03507972  1
  Gd3+  Gd10  1  0.26210484  0.74985921  0.74424068  1
  Gd3+  Gd11  1  0.72705953  0.26224423  -0.02790687  1
  Gd3+  Gd12  1  0.77616838  0.75629172  0.76338308  1
  Gd3+  Gd13  1  -0.03049083  0.26253002  0.26085304  1
  Gd3+  Gd14  1  0.27066141  0.74769416  -0.01390566  1
  Gd3+  Gd15  1  0.01090922  0.25177440  0.73651026  1
  Gd3+  Gd16  1  0.48181744  0.25068614  0.26588660  1
  Gd3+  Gd17  1  0.47385380  0.75523320  0.50514876  1
  Gd3+  Gd18  1  0.80669917  0.72559997  0.00816100  1
  Ta5+  Ta19  1  0.07131557  0.09963598  0.85681302  1
  Ta5+  Ta20  1  0.63498863  0.86295707  0.37380837  1
  Ta5+  Ta21  1  0.62072232  0.38409862  0.38102460  1
  Ta5+  Ta22  1  0.40936343  0.36151653  0.89329556  1
  Ta5+  Ta23  1  0.41443300  0.88459387  0.66060996  1
  Ta5+  Ta24  1  0.63858663  0.63172225  0.37617140  1
  Ta5+  Ta25  1  0.34450473  0.62817092  0.39352485  1
  Ta5+  Ta26  1  0.91556233  0.60628910  0.38067864  1
  Ta5+  Ta27  1  0.12356944  0.11500243  0.38247796  1
  Ta5+  Ta28  1  0.11340217  0.88338173  0.62497219  1
  Ta5+  Ta29  1  0.42223796  0.62063164  0.65987589  1
  Ta5+  Ta30  1  0.14125471  0.11501277  0.60401021  1
  Ta5+  Ta31  1  0.88303844  0.38779347  0.86720729  1
  Ta5+  Ta32  1  0.35019044  0.38680413  0.14152109  1
  Ta5+  Ta33  1  0.39024773  0.63190486  0.13886618  1
  Ta5+  Ta34  1  0.90333442  0.93109065  0.13767131  1
  Ta5+  Ta35  1  0.84864029  0.39863068  0.12960088  1
  Ta5+  Ta36  1  0.86736477  0.12161117  0.61876337  1
  Ta5+  Ta37  1  0.12807725  0.60401873  0.86932083  1
  Ta5+  Ta38  1  0.33224208  0.37923537  0.39390084  1
  Ta5+  Ta39  1  0.61608628  0.61915486  0.86281766  1
  Ta5+  Ta40  1  0.32838291  0.12266599  0.39674743  1
  Ta5+  Ta41  1  0.85739398  0.38544858  0.62394250  1
  Ta5+  Ta42  1  0.13322809  0.38449108  0.60664422  1
  Ta5+  Ta43  1  0.89655899  0.11941834  0.87191982  1
  Ta5+  Ta44  1  0.09300772  0.09608542  0.11939404  1
  Ta5+  Ta45  1  0.63224507  0.37906857  0.61349646  1
  Ta5+  Ta46  1  0.37776814  0.37998401  0.64214494  1
  Ta5+  Ta47  1  0.12952272  0.86271318  0.12664986  1
  Ta5+  Ta48  1  0.33157054  0.87378444  0.39786200  1
  Ta5+  Ta49  1  0.63021514  0.12351388  0.61456485  1
  Ta5+  Ta50  1  0.81235942  0.12205954  0.37210274  1
  Ta5+  Ta51  1  0.92627495  0.56461872  0.86680445  1
  Ta5+  Ta52  1  0.34878495  0.11708791  0.14344681  1
  Ta5+  Ta53  1  0.17600067  0.63084443  0.37625516  1
  Ta5+  Ta54  1  0.38200799  0.87404398  0.14161666  1
  Ta5+  Ta55  1  0.57551536  0.12887634  0.86656464  1
  Ta5+  Ta56  1  0.57299297  0.36959546  0.86039420  1
  Ta5+  Ta57  1  0.16045806  0.87403223  0.37491587  1
  Ta5+  Ta58  1  0.60055999  0.87611940  0.86312963  1
  Ta5+  Ta59  1  0.85956381  0.12943236  0.12770078  1
  Ta5+  Ta60  1  0.37547658  0.12836028  0.64549025  1
  Ta5+  Ta61  1  0.05644138  0.43205317  0.85822959  1
  Ta5+  Ta62  1  0.10395493  0.85326670  0.87474586  1
  Ta5+  Ta63  1  0.62645208  0.87376200  0.11104437  1
  Ta5+  Ta64  1  0.12834595  0.38801708  0.38046380  1
  Ta5+  Ta65  1  0.14603166  0.62644801  0.61317862  1
  Ta5+  Ta66  1  0.65265312  0.87808477  0.61732623  1
  Ta5+  Ta67  1  0.40859327  0.61503628  0.87584421  1
  Ta5+  Ta68  1  0.39580443  0.89236859  0.87681762  1
  Ta5+  Ta69  1  0.40788183  0.14451054  0.89259284  1
  Ta5+  Ta70  1  0.14173258  0.62746601  0.12106273  1
  Ta5+  Ta71  1  0.82001333  0.38026333  0.38559064  1
  Ta5+  Ta72  1  0.65860723  0.62778583  0.61691115  1
  Ta5+  Ta73  1  0.09280752  0.39851262  0.11235583  1
  Ta5+  Ta74  1  0.94410486  0.88170291  0.63502352  1
  W6+  W75  1  0.61517358  0.39053663  0.13904666  1
  W6+  W76  1  0.93323027  0.58557131  0.11642615  1
  W6+  W77  1  0.63941340  0.12494187  0.15241510  1
  W6+  W78  1  0.63997911  0.62652820  0.10761919  1
  W6+  W79  1  0.89080167  0.87980496  0.37462573  1
  W6+  W80  1  0.89874285  0.90096007  0.88135524  1
  W6+  W81  1  0.91923394  0.62673444  0.64424766  1
  W6+  W82  1  0.61197238  0.11348094  0.37610230  1
  O2-  O83  1  0.14797311  -0.00899948  0.12611743  1
  O2-  O84  1  0.12399651  0.00016630  0.34969154  1
  O2-  O85  1  0.16921891  -0.00070051  0.62385399  1
  O2-  O86  1  0.08289255  -0.02233553  0.87186794  1
  O2-  O87  1  0.14825393  0.50257751  0.13382161  1
  O2-  O88  1  0.13803904  0.50445842  0.36216161  1
  O2-  O89  1  0.10961787  0.50356835  0.61155176  1
  O2-  O90  1  0.18051323  0.49623836  0.86048980  1
  O2-  O91  1  0.34852322  -0.00622142  0.13111005  1
  O2-  O92  1  0.33482318  0.00245764  0.39961289  1
  O2-  O93  1  0.41427818  0.01349800  0.65153951  1
  O2-  O94  1  0.39726682  0.01264114  0.88481692  1
  O2-  O95  1  0.36006070  0.50833236  0.13160523  1
  O2-  O96  1  0.34684678  0.49866692  0.39724725  1
  O2-  O97  1  0.42466401  0.49251420  0.64652621  1
  O2-  O98  1  0.40398137  0.49468784  0.88538093  1
  O2-  O99  1  0.64183912  -0.01198258  0.13419889  1
  O2-  O100  1  0.60852941  -0.02232431  0.37282745  1
  O2-  O101  1  0.66231486  -0.00097289  0.60281969  1
  O2-  O102  1  0.59411469  0.00653163  0.86913667  1
  O2-  O103  1  0.59461644  0.50414860  0.10015759  1
  O2-  O104  1  0.62201695  0.51017194  0.38291307  1
  O2-  O105  1  0.65386989  0.50385197  0.60993517  1
  O2-  O106  1  0.60604006  0.49573572  0.86357810  1
  O2-  O107  1  0.81209107  0.01574393  0.13317341  1
  O2-  O108  1  0.84031185  0.00592268  0.37455876  1
  O2-  O109  1  0.90480764  0.00725083  0.62516608  1
  O2-  O110  1  0.83502896  0.01572244  0.87303370  1
  O2-  O111  1  0.81432083  0.51342970  0.13126779  1
  O2-  O112  1  0.84638226  0.50269291  0.38605091  1
  O2-  O113  1  0.85951884  0.50293668  0.63074872  1
  O2-  O114  1  0.82390098  0.49669747  0.84770841  1
  O2-  O115  1  0.08359297  0.25682078  0.10848464  1
  O2-  O116  1  0.08679920  0.24921128  0.37575153  1
  O2-  O117  1  0.09938930  0.25412127  0.60632659  1
  O2-  O118  1  0.14067220  0.21553234  0.84874783  1
  O2-  O119  1  0.08446791  0.74164444  0.10641577  1
  O2-  O120  1  0.16626417  0.75177274  0.40713070  1
  O2-  O121  1  0.14183321  0.75308606  0.60506465  1
  O2-  O122  1  0.17231334  0.73696429  0.86931540  1
  O2-  O123  1  0.36236998  0.25001434  0.15822507  1
  O2-  O124  1  0.37962786  0.25191527  0.38366602  1
  O2-  O125  1  0.41877835  0.25536690  0.63940773  1
  O2-  O126  1  0.32141167  0.25383232  0.90956061  1
  O2-  O127  1  0.34026270  0.75333077  0.12787328  1
  O2-  O128  1  0.37065743  0.75303552  0.39799041  1
  O2-  O129  1  0.40620897  0.75277867  0.66380773  1
  O2-  O130  1  0.35833542  0.74842559  0.86454717  1
  O2-  O131  1  0.58787414  0.25744222  0.15470662  1
  O2-  O132  1  0.58317417  0.25702511  0.38357289  1
  O2-  O133  1  0.61420181  0.25052528  0.59428449  1
  O2-  O134  1  0.62990868  0.25091598  0.85077431  1
  O2-  O135  1  0.69697844  0.76129395  0.10661332  1
  O2-  O136  1  0.57443660  0.74441497  0.39021733  1
  O2-  O137  1  0.69445017  0.75449913  0.63227503  1
  O2-  O138  1  0.62954892  0.75432914  0.84376390  1
  O2-  O139  1  0.90419964  0.26048593  0.12759358  1
  O2-  O140  1  0.86547071  0.25677200  0.37589811  1
  O2-  O141  1  0.91147170  0.24877174  0.61898018  1
  O2-  O142  1  0.85964442  0.25103602  0.88050752  1
  O2-  O143  1  0.88295934  0.71270475  0.14300843  1
  O2-  O144  1  0.88042025  0.72919856  0.35112960  1
  O2-  O145  1  0.96196296  0.75438092  0.63721036  1
  O2-  O146  1  0.80286330  0.80811319  0.89355388  1
  O2-  O147  1  0.08893057  0.12771723  -0.00620176  1
  O2-  O148  1  0.08327217  0.14292972  0.24111259  1
  O2-  O149  1  0.06012625  0.11533332  0.49959194  1
  O2-  O150  1  0.08217753  0.11315412  0.71855032  1
  O2-  O151  1  0.17569744  0.62871723  -0.00422089  1
  O2-  O152  1  0.15197536  0.65390246  0.24556715  1
  O2-  O153  1  0.20605178  0.60778285  0.50463045  1
  O2-  O154  1  0.15940753  0.63667685  0.73962532  1
  O2-  O155  1  0.40504920  0.13326357  0.03092406  1
  O2-  O156  1  0.37958408  0.11773446  0.26810401  1
  O2-  O157  1  0.38094263  0.13957544  0.51294888  1
  O2-  O158  1  0.36137711  0.15422797  0.77034373  1
  O2-  O159  1  0.36244639  0.63257084  0.00069339  1
  O2-  O160  1  0.36707624  0.63068270  0.26363433  1
  O2-  O161  1  0.38699616  0.63395703  0.53059993  1
  O2-  O162  1  0.33692519  0.61561038  0.75421471  1
  O2-  O163  1  0.60853880  0.15062237  -0.00347160  1
  O2-  O164  1  0.55123414  0.11933230  0.25717646  1
  O2-  O165  1  0.55568493  0.11266752  0.51126890  1
  O2-  O166  1  0.58063043  0.12273905  0.72638002  1
  O2-  O167  1  0.68736335  0.63245958  -0.03333870  1
  O2-  O168  1  0.66158715  0.64305007  0.25224639  1
  O2-  O169  1  0.69475464  0.64047923  0.49332351  1
  O2-  O170  1  0.68409156  0.62365008  0.74619586  1
  O2-  O171  1  0.90359385  0.13336725  0.00618283  1
  O2-  O172  1  0.88901241  0.13872709  0.25508361  1
  O2-  O173  1  0.88417542  0.13513616  0.49089736  1
  O2-  O174  1  0.90181137  0.14067734  0.74325410  1
  O2-  O175  1  0.89617409  0.61586481  -0.01822570  1
  O2-  O176  1  0.94740526  0.58873539  0.25590124  1
  O2-  O177  1  0.91811839  0.63231745  0.50624267  1
  O2-  O178  1  0.88320550  0.65057891  0.77492220  1
  O2-  O179  1  0.09417347  0.37107045  -0.01985247  1
  O2-  O180  1  0.08406555  0.36472201  0.24521002  1
  O2-  O181  1  0.06257570  0.38094414  0.49320066  1
  O2-  O182  1  0.09378547  0.37733977  0.73261506  1
  O2-  O183  1  0.16006901  0.86000040  -0.00331366  1
  O2-  O184  1  0.17454783  0.84670646  0.24095392  1
  O2-  O185  1  0.11220936  0.89031976  0.49646197  1
  O2-  O186  1  0.14441933  0.85742786  0.75356358  1
  O2-  O187  1  0.40806031  0.36623369  0.03107321  1
  O2-  O188  1  0.38690887  0.38244329  0.26494217  1
  O2-  O189  1  0.38646522  0.36507351  0.51159193  1
  O2-  O190  1  0.36710146  0.35835800  0.76881636  1
  O2-  O191  1  0.34894829  0.87451707  -0.00036043  1
  O2-  O192  1  0.36293096  0.87394177  0.26387952  1
  O2-  O193  1  0.37151852  0.87195910  0.53519810  1
  O2-  O194  1  0.32840296  0.88694641  0.75726417  1
  O2-  O195  1  0.60806960  0.35057743  -0.00890038  1
  O2-  O196  1  0.55976053  0.38773088  0.26909401  1
  O2-  O197  1  0.56052274  0.38582090  0.50321554  1
  O2-  O198  1  0.57582054  0.37765211  0.72225969  1
  O2-  O199  1  0.64957407  0.87884794  -0.01389697  1
  O2-  O200  1  0.65740484  0.84287273  0.24684069  1
  O2-  O201  1  0.68527719  0.85558590  0.49049443  1
  O2-  O202  1  0.67104117  0.88551569  0.74572693  1
  O2-  O203  1  0.86630716  0.37404982  0.00041342  1
  O2-  O204  1  0.88019775  0.38135447  0.25674226  1
  O2-  O205  1  0.89136688  0.37114629  0.50059914  1
  O2-  O206  1  0.91048767  0.36454918  0.73696991  1
  O2-  O207  1  0.88588325  0.87900035  0.02952916  1
  O2-  O208  1  0.85120647  0.87299965  0.23556753  1
  O2-  O209  1  0.92144293  0.86614630  0.50862957  1
  O2-  O210  1  0.88260382  0.86841750  0.74695230  1
  O2-  O211  1  0.01348549  -0.12229007  0.16867726  1
  O2-  O212  1  -0.02239437  0.04426512  0.12886035  1
  O2-  O213  1  0.01985151  -0.16590145  0.35448631  1
  O2-  O214  1  -0.00200360  -0.19509231  0.89022839  1
  O2-  O215  1  0.03827340  0.53808265  -0.05662747  1
  O2-  O216  1  -0.02260512  0.44275616  0.11250311  1
  O2-  O217  1  0.03735002  0.64517359  0.38623011  1
  O2-  O218  1  0.02951566  0.54475326  0.78535637  1
  O2-  O219  1  0.22741939  0.14631061  0.10837622  1
  O2-  O220  1  0.22997912  0.15368558  0.31916971  1
  O2-  O221  1  0.21665490  0.12448577  0.47495132  1
  O2-  O222  1  0.25043442  0.16564819  0.64556564  1
  O2-  O223  1  0.23229320  0.35389094  0.10320599  1
  O2-  O224  1  0.23508593  0.35459630  0.31227754  1
  O2-  O225  1  0.22199702  0.37410757  0.47125862  1
  O2-  O226  1  0.25237894  0.36744372  0.64530167  1
  O2-  O227  1  0.49897020  -0.15061992  -0.06861151  1
  O2-  O228  1  0.50365629  -0.13609849  0.12738417  1
  O2-  O229  1  0.53386538  -0.13808260  0.60139899  1
  O2-  O230  1  0.49070385  -0.11427119  0.77354294  1
  O2-  O231  1  0.51506246  0.64432583  -0.06678052  1
  O2-  O232  1  0.50400593  0.65285371  0.13489744  1
  O2-  O233  1  0.54188646  0.65272671  0.60181488  1
  O2-  O234  1  0.49806366  0.62128675  0.77114696  1
  O2-  O235  1  0.75301754  0.17468931  0.08969320  1
  O2-  O236  1  0.71857584  0.12857721  0.28281522  1
  O2-  O237  1  0.71992189  0.13672555  0.45494146  1
  O2-  O238  1  0.75158159  0.14088521  0.63919281  1
  O2-  O239  1  0.73744881  0.34912295  0.11007424  1
  O2-  O240  1  0.72231747  0.36027856  0.30884229  1
  O2-  O241  1  0.72557538  0.37928552  0.47265061  1
  O2-  O242  1  0.74679531  0.34845728  0.65398994  1
