# generated using pymatgen
data_Gd19Ta56(WO20)8
_symmetry_space_group_name_H-M   'P 1'
_cell_length_a   15.52967236
_cell_length_b   15.50193562
_cell_length_c   15.34770538
_cell_angle_alpha   89.82013022
_cell_angle_beta   90.01228483
_cell_angle_gamma   89.91359361
_symmetry_Int_Tables_number   1
_chemical_formula_structural   Gd19Ta56(WO20)8
_chemical_formula_sum   'Gd19 Ta56 W8 O160'
_cell_volume   3694.78380746
_cell_formula_units_Z   1
loop_
 _symmetry_equiv_pos_site_id
 _symmetry_equiv_pos_as_xyz
  1  'x, y, z'
loop_
 _atom_type_symbol
 _atom_type_oxidation_number
  Gd3+  3.0
  Ta5+  5.0
  W6+  6.0
  O2-  -2.0
loop_
 _atom_site_type_symbol
 _atom_site_label
 _atom_site_symmetry_multiplicity
 _atom_site_fract_x
 _atom_site_fract_y
 _atom_site_fract_z
 _atom_site_occupancy
  Gd3+  Gd0  1  0.48557639  0.74785631  0.76293765  1
  Gd3+  Gd1  1  0.23827149  0.28071605  0.00917623  1
  Gd3+  Gd2  1  0.00397062  0.74504547  0.01023336  1
  Gd3+  Gd3  1  0.77428509  0.24724839  -0.00626914  1
  Gd3+  Gd4  1  0.79170373  0.75621614  0.49402248  1
  Gd3+  Gd5  1  0.23779464  0.25401220  0.50011474  1
  Gd3+  Gd6  1  0.76309142  0.24473396  0.47996160  1
  Gd3+  Gd7  1  0.20574963  0.76745350  0.51908367  1
  Gd3+  Gd8  1  -0.00562146  0.75305307  0.25482055  1
  Gd3+  Gd9  1  0.75742853  0.75112877  -0.03215778  1
  Gd3+  Gd10  1  0.78483346  0.70710135  0.72462819  1
  Gd3+  Gd11  1  0.48628716  0.22146825  -0.00019468  1
  Gd3+  Gd12  1  0.28079861  0.74715612  -0.01515572  1
  Gd3+  Gd13  1  0.01237981  0.22697785  -0.00120698  1
  Gd3+  Gd14  1  0.48885341  0.74531614  0.24530729  1
  Gd3+  Gd15  1  0.46683341  0.74905388  0.49007880  1
  Gd3+  Gd16  1  0.78017389  0.26144639  0.74623591  1
  Gd3+  Gd17  1  0.24697299  0.26860337  0.25927096  1
  Gd3+  Gd18  1  -0.02176424  0.29064013  0.53973465  1
  Ta5+  Ta19  1  0.64158546  0.87794364  0.36489692  1
  Ta5+  Ta20  1  0.91261270  0.38015054  0.88796306  1
  Ta5+  Ta21  1  0.37124133  0.11425058  0.37781220  1
  Ta5+  Ta22  1  0.08954236  0.12821044  0.39002215  1
  Ta5+  Ta23  1  0.07349816  0.87228687  0.65251282  1
  Ta5+  Ta24  1  0.37099806  0.88243723  0.62331409  1
  Ta5+  Ta25  1  0.35859501  0.88082508  0.13356523  1
  Ta5+  Ta26  1  0.39212259  0.37490884  0.38125681  1
  Ta5+  Ta27  1  0.07277285  0.88489440  0.39996248  1
  Ta5+  Ta28  1  0.37988434  0.12428907  0.61361470  1
  Ta5+  Ta29  1  0.08726068  0.39266630  0.88927929  1
  Ta5+  Ta30  1  0.13081269  0.12256024  0.14168859  1
  Ta5+  Ta31  1  0.89886624  0.37075117  0.13691898  1
  Ta5+  Ta32  1  0.91360324  0.42158794  0.70067576  1
  Ta5+  Ta33  1  0.14766967  0.39799077  0.65275037  1
  Ta5+  Ta34  1  0.89168057  0.35949586  0.34204282  1
  Ta5+  Ta35  1  0.36336069  0.61924388  0.62659491  1
  Ta5+  Ta36  1  0.12348240  0.61403549  0.89175111  1
  Ta5+  Ta37  1  0.14146092  0.59261686  0.14656198  1
  Ta5+  Ta38  1  0.10079621  0.62105745  0.39254396  1
  Ta5+  Ta39  1  0.62263857  0.37523690  0.61359176  1
  Ta5+  Ta40  1  0.64116263  0.12240381  0.86301841  1
  Ta5+  Ta41  1  0.62750697  0.87286172  0.11204130  1
  Ta5+  Ta42  1  0.60942009  0.90775845  0.60269048  1
  Ta5+  Ta43  1  0.86691608  0.87361352  0.12521690  1
  Ta5+  Ta44  1  0.15260157  0.88182453  0.16358969  1
  Ta5+  Ta45  1  0.10559190  0.08639968  0.63138845  1
  Ta5+  Ta46  1  0.92322069  0.12083091  0.37859392  1
  Ta5+  Ta47  1  0.57365629  0.37031776  0.11848521  1
  Ta5+  Ta48  1  0.14022268  0.89183002  0.88575145  1
  Ta5+  Ta49  1  0.62473379  0.35612429  0.36150280  1
  Ta5+  Ta50  1  0.88511727  0.11694703  0.13478207  1
  Ta5+  Ta51  1  0.32532399  0.87173309  0.35444265  1
  Ta5+  Ta52  1  0.66833748  0.59142203  0.34930196  1
  Ta5+  Ta53  1  0.40621434  0.38041167  0.12721040  1
  Ta5+  Ta54  1  0.94353457  0.59830200  0.62430435  1
  Ta5+  Ta55  1  0.90288875  0.60614793  0.38216347  1
  Ta5+  Ta56  1  0.84499326  0.61689110  0.14111543  1
  Ta5+  Ta57  1  0.61359755  0.60769173  0.60686368  1
  Ta5+  Ta58  1  0.38627684  0.36019197  0.86489579  1
  Ta5+  Ta59  1  0.87931663  0.60061016  0.88261628  1
  Ta5+  Ta60  1  0.34478633  0.61432342  0.36928222  1
  Ta5+  Ta61  1  0.91071616  0.91183518  0.63787305  1
  Ta5+  Ta62  1  0.90319999  0.09870980  0.61775714  1
  Ta5+  Ta63  1  0.34294476  0.61201634  0.13384206  1
  Ta5+  Ta64  1  0.06615346  0.36792373  0.15939682  1
  Ta5+  Ta65  1  0.39089992  0.89349882  0.88356315  1
  Ta5+  Ta66  1  0.11128266  0.62524963  0.64471391  1
  Ta5+  Ta67  1  0.63144120  0.11783533  0.12455365  1
  Ta5+  Ta68  1  0.62536522  0.61474784  0.87311481  1
  Ta5+  Ta69  1  0.37733093  0.37106669  0.61717048  1
  Ta5+  Ta70  1  0.61100649  0.37005055  0.87029852  1
  Ta5+  Ta71  1  0.89472506  0.11352594  0.86528781  1
  Ta5+  Ta72  1  0.63454176  0.61634496  0.13116660  1
  Ta5+  Ta73  1  0.61936039  0.13942549  0.62527062  1
  Ta5+  Ta74  1  0.09619480  0.37392474  0.37705728  1
  W6+  W75  1  0.90376917  0.88238751  0.38878374  1
  W6+  W76  1  0.15024430  0.14251421  0.86625502  1
  W6+  W77  1  0.88681302  0.86339255  0.84980454  1
  W6+  W78  1  0.33838546  0.13370793  0.13080446  1
  W6+  W79  1  0.38084404  0.60618863  0.87608427  1
  W6+  W80  1  0.34467562  0.14039585  0.86400001  1
  W6+  W81  1  0.63856581  0.87565600  0.84904823  1
  W6+  W82  1  0.62997288  0.11230666  0.37455517  1
  O2-  O83  1  0.13589345  -0.00620305  0.12299471  1
  O2-  O84  1  0.08789359  0.00553345  0.41325649  1
  O2-  O85  1  0.15600368  -0.02627752  0.63703290  1
  O2-  O86  1  0.15226854  0.00845082  0.87829840  1
  O2-  O87  1  0.07460513  0.48961090  0.14779467  1
  O2-  O88  1  0.08537320  0.49691653  0.38978484  1
  O2-  O89  1  0.16693889  0.50819962  0.61583774  1
  O2-  O90  1  0.15161805  0.50042633  0.92560013  1
  O2-  O91  1  0.35671064  -0.00200151  0.12993670  1
  O2-  O92  1  0.35908975  -0.01349358  0.37986943  1
  O2-  O93  1  0.35199367  0.00080933  0.60605028  1
  O2-  O94  1  0.38889052  0.01047637  0.88063192  1
  O2-  O95  1  0.40857020  0.50117799  0.12363227  1
  O2-  O96  1  0.39384213  0.50308784  0.38688065  1
  O2-  O97  1  0.35663941  0.49748675  0.61597261  1
  O2-  O98  1  0.36018988  0.47433365  0.87053727  1
  O2-  O99  1  0.60501453  -0.00507235  0.09583128  1
  O2-  O100  1  0.60588958  -0.01766006  0.41025275  1
  O2-  O101  1  0.65017363  0.01837335  0.63400508  1
  O2-  O102  1  0.61366739  0.00918217  0.85100738  1
  O2-  O103  1  0.60852700  0.50030716  0.11966206  1
  O2-  O104  1  0.67621549  0.47170816  0.35593556  1
  O2-  O105  1  0.65939449  0.49440577  0.60614006  1
  O2-  O106  1  0.59822087  0.49129818  0.87091556  1
  O2-  O107  1  0.87263513  -0.00804628  0.10184853  1
  O2-  O108  1  0.88353904  0.01283733  0.41020396  1
  O2-  O109  1  0.82162656  0.01097089  0.60434092  1
  O2-  O110  1  0.90034756  -0.00394376  0.86227170  1
  O2-  O111  1  0.87110549  0.50232227  0.12305667  1
  O2-  O112  1  0.89662337  0.48751658  0.35820961  1
  O2-  O113  1  0.87071473  0.48982071  0.60937674  1
  O2-  O114  1  0.86571800  0.48969596  0.92662424  1
  O2-  O115  1  0.13104286  0.25100643  0.16056656  1
  O2-  O116  1  0.14912472  0.24802062  0.37702178  1
  O2-  O117  1  0.25220058  0.32971069  0.63165704  1
  O2-  O118  1  0.11264392  0.27270673  0.88130648  1
  O2-  O119  1  0.07848990  0.78914018  0.13219593  1
  O2-  O120  1  0.08901354  0.74856659  0.38365438  1
  O2-  O121  1  0.09807926  0.75201627  0.64980427  1
  O2-  O122  1  0.15221184  0.73709248  0.91342895  1
  O2-  O123  1  0.32041686  0.27505103  0.13137661  1
  O2-  O124  1  0.34320780  0.25244309  0.38190962  1
  O2-  O125  1  0.39093164  0.24892051  0.58291435  1
  O2-  O126  1  0.29631833  0.27788623  0.86841511  1
  O2-  O127  1  0.38791571  0.74405715  0.13694445  1
  O2-  O128  1  0.37360004  0.74862278  0.35866115  1
  O2-  O129  1  0.41243729  0.75411030  0.63134591  1
  O2-  O130  1  0.38445120  0.74261745  0.87259355  1
  O2-  O131  1  0.57318917  0.22989637  0.12455697  1
  O2-  O132  1  0.67517964  0.24609001  0.35570275  1
  O2-  O133  1  0.68186279  0.25609539  0.62584878  1
  O2-  O134  1  0.68877438  0.26631237  0.87159872  1
  O2-  O135  1  0.58711349  0.75248989  0.13204089  1
  O2-  O136  1  0.55785101  0.78822418  0.38213263  1
  O2-  O137  1  0.69566794  0.69606755  0.59857657  1
  O2-  O138  1  0.65607659  0.73986203  0.84963246  1
  O2-  O139  1  0.89223939  0.24123357  0.14339911  1
  O2-  O140  1  0.86645265  0.23264544  0.35213467  1
  O2-  O141  1  0.87116384  0.31115897  0.64394354  1
  O2-  O142  1  0.86998042  0.25407584  0.86844933  1
  O2-  O143  1  0.90539002  0.74343520  0.13324871  1
  O2-  O144  1  0.90811534  0.73910007  0.38616703  1
  O2-  O145  1  0.87124588  0.69757638  0.60675613  1
  O2-  O146  1  0.85270282  0.73121155  0.85519108  1
  O2-  O147  1  0.15092736  0.16037828  0.01117991  1
  O2-  O148  1  0.11996161  0.11418050  0.26446560  1
  O2-  O149  1  0.14141847  0.13687428  0.52115288  1
  O2-  O150  1  0.15516106  0.13570970  0.72788917  1
  O2-  O151  1  0.09187983  0.62653007  0.03708292  1
  O2-  O152  1  0.09530471  0.63611765  0.25187317  1
  O2-  O153  1  0.13333822  0.63871722  0.51039016  1
  O2-  O154  1  0.13494102  0.61094308  0.77142563  1
  O2-  O155  1  0.35217992  0.16469802  -0.00308800  1
  O2-  O156  1  0.31572772  0.12702398  0.27008248  1
  O2-  O157  1  0.32123967  0.12492763  0.49443771  1
  O2-  O158  1  0.34771032  0.13916544  0.72592238  1
  O2-  O159  1  0.35466834  0.61843893  0.01138425  1
  O2-  O160  1  0.39748307  0.62164950  0.25361887  1
  O2-  O161  1  0.35726369  0.64693401  0.49125955  1
  O2-  O162  1  0.40829257  0.61946659  0.74075488  1
  O2-  O163  1  0.61587071  0.14541314  -0.01501843  1
  O2-  O164  1  0.62601854  0.09713855  0.24103879  1
  O2-  O165  1  0.64708402  0.14718314  0.50486053  1
  O2-  O166  1  0.60557943  0.16622445  0.75057565  1
  O2-  O167  1  0.60924245  0.63062826  -0.00554793  1
  O2-  O168  1  0.58451133  0.62729154  0.25929263  1
  O2-  O169  1  0.61335535  0.61303917  0.45696002  1
  O2-  O170  1  0.60218782  0.62175884  0.73230543  1
  O2-  O171  1  0.87920998  0.14298177  -0.00574499  1
  O2-  O172  1  0.90729187  0.09370892  0.25102648  1
  O2-  O173  1  0.88690526  0.16245298  0.50752876  1
  O2-  O174  1  0.87290906  0.13641019  0.73989968  1
  O2-  O175  1  0.87890783  0.64610786  0.00787748  1
  O2-  O176  1  0.90695418  0.62908555  0.25039256  1
  O2-  O177  1  0.95972278  0.59649244  0.49082745  1
  O2-  O178  1  0.88747899  0.59491172  0.75187185  1
  O2-  O179  1  0.09687397  0.35387887  0.02553618  1
  O2-  O180  1  0.16186531  0.38671640  0.26893304  1
  O2-  O181  1  0.12078052  0.35370898  0.50787841  1
  O2-  O182  1  0.15654878  0.40420053  0.77181402  1
  O2-  O183  1  0.06689678  0.87680367  -0.02007993  1
  O2-  O184  1  0.08807116  0.88816893  0.27009759  1
  O2-  O185  1  0.08916995  0.86029043  0.52286763  1
  O2-  O186  1  0.07921551  0.86894308  0.78395855  1
  O2-  O187  1  0.39521602  0.34988460  -0.00206566  1
  O2-  O188  1  0.37178704  0.37475366  0.25947908  1
  O2-  O189  1  0.32825890  0.38003939  0.48825912  1
  O2-  O190  1  0.39712917  0.35741783  0.73610725  1
  O2-  O191  1  0.40015042  0.86879832  0.01066133  1
  O2-  O192  1  0.41919900  0.87516674  0.25048716  1
  O2-  O193  1  0.34574568  0.84084688  0.49678942  1
  O2-  O194  1  0.38075180  0.87974122  0.74621939  1
  O2-  O195  1  0.60596947  0.35215400  -0.00372810  1
  O2-  O196  1  0.58993766  0.36466459  0.24658761  1
  O2-  O197  1  0.66286904  0.35762948  0.49273056  1
  O2-  O198  1  0.62853903  0.36984659  0.73771101  1
  O2-  O199  1  0.65127435  0.85613872  -0.00950318  1
  O2-  O200  1  0.61318299  0.88511032  0.24488679  1
  O2-  O201  1  0.67151531  0.85330437  0.51542148  1
  O2-  O202  1  0.60780016  0.84656371  0.70686286  1
  O2-  O203  1  0.89580941  0.33988894  0.01227962  1
  O2-  O204  1  0.82038655  0.37278261  0.24235047  1
  O2-  O205  1  0.86197592  0.35194766  0.46497882  1
  O2-  O206  1  0.81772498  0.39989862  0.78204901  1
  O2-  O207  1  0.87767876  0.84224663  -0.00158642  1
  O2-  O208  1  0.90660578  0.87642844  0.24155384  1
  O2-  O209  1  0.88466498  0.86174068  0.52864012  1
  O2-  O210  1  0.84558004  0.84197388  0.71645188  1
  O2-  O211  1  0.01319642  0.13747163  -0.12254796  1
  O2-  O212  1  0.00953158  0.11717044  0.10461973  1
  O2-  O213  1  0.01054892  0.17570148  0.62835201  1
  O2-  O214  1  -0.00156847  0.01243936  0.66831076  1
  O2-  O215  1  0.00215514  0.62920786  -0.11152521  1
  O2-  O216  1  0.00631690  0.34020791  0.28337693  1
  O2-  O217  1  0.02531207  0.37837934  0.64736043  1
  O2-  O218  1  -0.00261948  0.44064803  0.80501554  1
  O2-  O219  1  0.24470623  -0.14303312  0.07598814  1
  O2-  O220  1  0.26071034  -0.12984172  0.23598023  1
  O2-  O221  1  0.21272718  -0.13382320  0.39772026  1
  O2-  O222  1  0.26418175  -0.13315203  0.89064704  1
  O2-  O223  1  0.24945467  0.53236846  0.16790956  1
  O2-  O224  1  0.23440849  0.68191317  0.11980249  1
  O2-  O225  1  0.22790742  0.60992294  0.35891573  1
  O2-  O226  1  0.25302732  0.66725337  0.63255106  1
  O2-  O227  1  0.50612741  -0.14159962  -0.13866065  1
  O2-  O228  1  0.48638408  0.12975593  0.37949370  1
  O2-  O229  1  0.49347828  -0.10436738  0.56599102  1
  O2-  O230  1  0.50072331  0.11006031  0.61002261  1
  O2-  O231  1  0.50381846  0.30222043  -0.13301830  1
  O2-  O232  1  0.50783273  0.34646888  0.40505072  1
  O2-  O233  1  0.49494117  0.62125318  0.58012171  1
  O2-  O234  1  0.50449374  0.38648134  0.59267788  1
  O2-  O235  1  0.75194270  0.13801570  0.11063716  1
  O2-  O236  1  0.74713994  -0.14229051  0.13741969  1
  O2-  O237  1  0.75765896  -0.15424555  0.36675362  1
  O2-  O238  1  0.76112614  0.11752570  0.86946499  1
  O2-  O239  1  0.73973278  0.67126932  0.08595067  1
  O2-  O240  1  0.73540310  0.59597318  0.21996989  1
  O2-  O241  1  0.77581274  0.63200984  0.39668878  1
  O2-  O242  1  0.74650558  0.60067175  0.86978476  1
