# generated using pymatgen
data_Gd19Ta56(WO20)8
_symmetry_space_group_name_H-M   'P 1'
_cell_length_a   15.43515156
_cell_length_b   15.40575651
_cell_length_c   15.28093655
_cell_angle_alpha   89.91113477
_cell_angle_beta   90.03628364
_cell_angle_gamma   89.90182048
_symmetry_Int_Tables_number   1
_chemical_formula_structural   Gd19Ta56(WO20)8
_chemical_formula_sum   'Gd19 Ta56 W8 O160'
_cell_volume   3633.64631611
_cell_formula_units_Z   1
loop_
 _symmetry_equiv_pos_site_id
 _symmetry_equiv_pos_as_xyz
  1  'x, y, z'
loop_
 _atom_type_symbol
 _atom_type_oxidation_number
  Gd3+  3.0
  Ta5+  5.0
  W6+  6.0
  O2-  -2.0
loop_
 _atom_site_type_symbol
 _atom_site_label
 _atom_site_symmetry_multiplicity
 _atom_site_fract_x
 _atom_site_fract_y
 _atom_site_fract_z
 _atom_site_occupancy
  Gd3+  Gd0  1  0.74059287  0.75560223  -0.00253037  1
  Gd3+  Gd1  1  0.00607552  0.25528767  0.24702951  1
  Gd3+  Gd2  1  0.77184334  0.22856119  0.01161737  1
  Gd3+  Gd3  1  0.24642328  0.23837914  0.74180023  1
  Gd3+  Gd4  1  0.75163751  0.21698376  0.25674517  1
  Gd3+  Gd5  1  0.51836451  0.24319969  0.27725574  1
  Gd3+  Gd6  1  0.25176635  0.24471937  0.49629455  1
  Gd3+  Gd7  1  0.24307118  0.73470690  0.25359499  1
  Gd3+  Gd8  1  0.21942135  0.23359179  -0.01152977  1
  Gd3+  Gd9  1  0.48974108  0.74237790  -0.03508952  1
  Gd3+  Gd10  1  0.75060769  0.74077462  0.50711448  1
  Gd3+  Gd11  1  0.24224091  0.78318773  0.00877719  1
  Gd3+  Gd12  1  0.24990781  0.74501932  0.52853670  1
  Gd3+  Gd13  1  0.76626898  0.74863026  0.74883410  1
  Gd3+  Gd14  1  0.73791251  0.25647937  0.50238040  1
  Gd3+  Gd15  1  0.51722508  0.23876797  0.03550215  1
  Gd3+  Gd16  1  0.00040431  0.77003770  0.74040328  1
  Gd3+  Gd17  1  0.01536693  0.73142580  0.23597160  1
  Gd3+  Gd18  1  -0.00445108  0.25513970  0.01573839  1
  Ta5+  Ta19  1  0.92509334  0.37284560  0.61973331  1
  Ta5+  Ta20  1  0.11980704  0.89304521  0.86088735  1
  Ta5+  Ta21  1  0.08441469  0.62983617  0.04723143  1
  Ta5+  Ta22  1  0.57582126  0.87917314  0.12520498  1
  Ta5+  Ta23  1  0.88746608  0.37817549  0.86740160  1
  Ta5+  Ta24  1  0.37806021  0.11208724  0.38163836  1
  Ta5+  Ta25  1  0.87376559  0.88990787  0.88328341  1
  Ta5+  Ta26  1  0.42272608  0.85823292  0.63122693  1
  Ta5+  Ta27  1  0.85661218  0.63298144  0.14457835  1
  Ta5+  Ta28  1  0.90364388  0.61818541  0.61803528  1
  Ta5+  Ta29  1  0.06866778  0.89393650  0.11595878  1
  Ta5+  Ta30  1  0.91159554  0.14530095  0.62935013  1
  Ta5+  Ta31  1  0.07408134  0.62211599  0.60400989  1
  Ta5+  Ta32  1  0.09121865  0.62635140  0.39639285  1
  Ta5+  Ta33  1  0.38589573  0.36559349  0.88305747  1
  Ta5+  Ta34  1  0.88954038  0.62694136  0.88659933  1
  Ta5+  Ta35  1  0.62112777  0.11902929  0.63267134  1
  Ta5+  Ta36  1  0.08065319  0.13175527  0.63488358  1
  Ta5+  Ta37  1  0.38202035  0.86360206  0.38177670  1
  Ta5+  Ta38  1  0.41627508  0.63420210  0.64100971  1
  Ta5+  Ta39  1  0.88070103  0.39040656  0.37208234  1
  Ta5+  Ta40  1  0.62302178  0.40176501  0.38383208  1
  Ta5+  Ta41  1  0.38069013  0.38321988  0.63504322  1
  Ta5+  Ta42  1  0.09383758  0.37600498  0.62476073  1
  Ta5+  Ta43  1  0.16858925  0.40739249  0.12313268  1
  Ta5+  Ta44  1  0.63368103  0.09692522  0.38810981  1
  Ta5+  Ta45  1  0.86268094  0.86516949  0.14258481  1
  Ta5+  Ta46  1  0.89539037  0.12758123  0.83953060  1
  Ta5+  Ta47  1  0.40452684  0.12240416  0.88266792  1
  Ta5+  Ta48  1  0.86519996  0.89849560  0.61646731  1
  Ta5+  Ta49  1  0.91212290  0.87099731  0.39221718  1
  Ta5+  Ta50  1  0.36892226  0.87615654  0.86865157  1
  Ta5+  Ta51  1  0.37233877  0.38132697  0.13581180  1
  Ta5+  Ta52  1  0.61542794  0.38594097  0.63653737  1
  Ta5+  Ta53  1  0.63846860  0.61811259  0.87142191  1
  Ta5+  Ta54  1  0.38718098  0.10804966  0.63504682  1
  Ta5+  Ta55  1  0.62642313  0.85406620  0.36840865  1
  Ta5+  Ta56  1  0.86102547  0.39199830  0.13030025  1
  Ta5+  Ta57  1  0.91920069  0.63149623  0.40481796  1
  Ta5+  Ta58  1  0.37500370  0.37301723  0.38363084  1
  Ta5+  Ta59  1  0.07831520  0.13423587  0.84072219  1
  Ta5+  Ta60  1  0.15851581  0.11199335  0.16528858  1
  Ta5+  Ta61  1  0.12595351  0.38960607  0.86292534  1
  Ta5+  Ta62  1  0.62675478  0.37587000  0.88200367  1
  Ta5+  Ta63  1  0.10313619  0.88619432  0.59553101  1
  Ta5+  Ta64  1  0.36699164  0.61003555  0.39061973  1
  Ta5+  Ta65  1  0.36600806  0.11106601  0.14356225  1
  Ta5+  Ta66  1  0.08493697  0.87307091  0.38659016  1
  Ta5+  Ta67  1  0.65150090  0.38993442  0.13458872  1
  Ta5+  Ta68  1  0.13805876  0.63230854  0.84478070  1
  Ta5+  Ta69  1  0.87469026  0.06714614  0.13432957  1
  Ta5+  Ta70  1  0.62272650  0.88401100  0.86852376  1
  Ta5+  Ta71  1  0.58464530  0.63741039  0.62880550  1
  Ta5+  Ta72  1  0.40792898  0.86254084  0.13512209  1
  Ta5+  Ta73  1  0.59066513  0.86786223  0.62103149  1
  Ta5+  Ta74  1  0.64997417  0.12793204  0.87312636  1
  W6+  W75  1  0.35229215  0.61351984  0.87524571  1
  W6+  W76  1  0.12851622  0.38207861  0.37896393  1
  W6+  W77  1  0.69634000  0.03563912  0.03748053  1
  W6+  W78  1  0.38016479  0.61004991  0.12838757  1
  W6+  W79  1  0.57478765  0.62910992  0.12764880  1
  W6+  W80  1  0.89955890  0.12153119  0.38574496  1
  W6+  W81  1  0.60293140  0.64615501  0.37494599  1
  W6+  W82  1  0.11318810  0.12151514  0.39694835  1
  O2-  O83  1  0.12786627  0.00572560  0.11731569  1
  O2-  O84  1  0.09581489  -0.00647531  0.39019700  1
  O2-  O85  1  0.08792442  0.00658212  0.60867863  1
  O2-  O86  1  0.08983441  0.00966356  0.86829574  1
  O2-  O87  1  0.11854830  0.52007983  0.08721352  1
  O2-  O88  1  0.09094066  0.50084113  0.39045886  1
  O2-  O89  1  0.09462442  0.50175215  0.60725295  1
  O2-  O90  1  0.12586548  0.51158995  0.88401168  1
  O2-  O91  1  0.39119028  -0.00835202  0.13580563  1
  O2-  O92  1  0.36724681  -0.01348886  0.37484450  1
  O2-  O93  1  0.39866995  -0.01153506  0.64195133  1
  O2-  O94  1  0.39755451  0.00280428  0.87684859  1
  O2-  O95  1  0.43759907  0.48230750  0.12242922  1
  O2-  O96  1  0.33221482  0.49216041  0.38414013  1
  O2-  O97  1  0.39207960  0.50158138  0.63979829  1
  O2-  O98  1  0.34333973  0.47502019  0.89043460  1
  O2-  O99  1  0.58770552  -0.00245784  0.10898581  1
  O2-  O100  1  0.65361203  -0.02243007  0.37988519  1
  O2-  O101  1  0.59968303  -0.00207581  0.61116371  1
  O2-  O102  1  0.62164977  0.00924856  0.90940619  1
  O2-  O103  1  0.63346858  0.50785199  0.11897865  1
  O2-  O104  1  0.64505964  0.52016470  0.39093094  1
  O2-  O105  1  0.59343370  0.50537186  0.62399707  1
  O2-  O106  1  0.65450377  0.49356707  0.89852483  1
  O2-  O107  1  0.78767067  -0.03131101  0.13742523  1
  O2-  O108  1  0.90400693  -0.00801928  0.38621367  1
  O2-  O109  1  0.87653900  0.01761051  0.62547000  1
  O2-  O110  1  0.90609563  0.00755972  0.87834394  1
  O2-  O111  1  0.82985529  0.51507527  0.14661345  1
  O2-  O112  1  0.89088136  0.51177254  0.37102003  1
  O2-  O113  1  0.90222572  0.49498129  0.62979685  1
  O2-  O114  1  0.88741148  0.50330298  0.87574265  1
  O2-  O115  1  0.10090976  0.21770682  0.12450737  1
  O2-  O116  1  0.09069289  0.25539843  0.36736366  1
  O2-  O117  1  0.11729369  0.25426186  0.66353468  1
  O2-  O118  1  0.15170368  0.25947775  0.85288128  1
  O2-  O119  1  0.13340342  0.72591139  0.11393149  1
  O2-  O120  1  0.13637107  0.75477525  0.38648199  1
  O2-  O121  1  0.12184634  0.75327386  0.61777293  1
  O2-  O122  1  0.10488144  0.75953191  0.85311546  1
  O2-  O123  1  0.41358648  0.23711160  0.14436296  1
  O2-  O124  1  0.40359567  0.24309551  0.38714221  1
  O2-  O125  1  0.33652530  0.23975295  0.62321356  1
  O2-  O126  1  0.33450193  0.24152727  0.88934314  1
  O2-  O127  1  0.32483236  0.74451345  0.12227356  1
  O2-  O128  1  0.31939059  0.74308362  0.38777166  1
  O2-  O129  1  0.35612406  0.74716473  0.63995636  1
  O2-  O130  1  0.34366595  0.75096504  0.89371391  1
  O2-  O131  1  0.59904511  0.27204284  0.15101973  1
  O2-  O132  1  0.63376378  0.26536096  0.37869497  1
  O2-  O133  1  0.65121442  0.24855409  0.62742147  1
  O2-  O134  1  0.68189618  0.26143009  0.88116495  1
  O2-  O135  1  0.50508910  0.76230843  0.11428558  1
  O2-  O136  1  0.69273513  0.74743651  0.36417329  1
  O2-  O137  1  0.64993013  0.75180512  0.65485613  1
  O2-  O138  1  0.64665355  0.75357893  0.85696128  1
  O2-  O139  1  0.89176319  0.26619906  0.13024006  1
  O2-  O140  1  0.88709547  0.25746665  0.34418029  1
  O2-  O141  1  0.85789315  0.25999244  0.59605673  1
  O2-  O142  1  0.87892168  0.24922056  0.90759085  1
  O2-  O143  1  0.79668321  0.75039541  0.13856272  1
  O2-  O144  1  0.87060001  0.74916836  0.41425206  1
  O2-  O145  1  0.84702414  0.75116608  0.62356261  1
  O2-  O146  1  0.88906269  0.75836852  0.87586109  1
  O2-  O147  1  0.09109889  0.15788833  -0.03609811  1
  O2-  O148  1  0.08100453  0.11637020  0.26120945  1
  O2-  O149  1  0.14096550  0.15206269  0.52569595  1
  O2-  O150  1  0.16474690  0.11296640  0.74326087  1
  O2-  O151  1  0.18691671  0.65265228  -0.03035211  1
  O2-  O152  1  0.12238441  0.63725871  0.27225268  1
  O2-  O153  1  0.16488162  0.62711271  0.50355510  1
  O2-  O154  1  0.07201351  0.63049119  0.73816907  1
  O2-  O155  1  0.41414258  0.12787241  0.01021356  1
  O2-  O156  1  0.42698798  0.12055601  0.26070512  1
  O2-  O157  1  0.36887073  0.11276181  0.51270779  1
  O2-  O158  1  0.35517388  0.13146000  0.76072877  1
  O2-  O159  1  0.41736290  0.62244941  -0.00478369  1
  O2-  O160  1  0.33960453  0.62683758  0.26410786  1
  O2-  O161  1  0.35403048  0.63035668  0.51569538  1
  O2-  O162  1  0.42000991  0.63508682  0.76366625  1
  O2-  O163  1  0.63172495  0.15492472  0.00319370  1
  O2-  O164  1  0.62610292  0.13489413  0.27007568  1
  O2-  O165  1  0.66609334  0.12605869  0.51368723  1
  O2-  O166  1  0.66111982  0.10705703  0.75075364  1
  O2-  O167  1  0.61397303  0.65654653  -0.00282869  1
  O2-  O168  1  0.57345366  0.65295954  0.24805089  1
  O2-  O169  1  0.62003236  0.65530957  0.50919539  1
  O2-  O170  1  0.59788296  0.61287591  0.75896430  1
  O2-  O171  1  0.91957703  0.12555014  0.03889243  1
  O2-  O172  1  0.89186498  0.11940012  0.24363851  1
  O2-  O173  1  0.94376153  0.13941391  0.50642784  1
  O2-  O174  1  0.83440502  0.16241803  0.74126154  1
  O2-  O175  1  0.84068062  0.64104523  0.00917646  1
  O2-  O176  1  0.88943958  0.65152372  0.26503612  1
  O2-  O177  1  0.82991589  0.61288381  0.51226292  1
  O2-  O178  1  0.89718617  0.64504382  0.75183000  1
  O2-  O179  1  0.13125339  0.36093950  0.00510921  1
  O2-  O180  1  0.11375809  0.37584116  0.22635270  1
  O2-  O181  1  0.14383506  0.35130464  0.51133979  1
  O2-  O182  1  0.15150827  0.40081568  0.74284723  1
  O2-  O183  1  0.11227428  0.86987128  -0.00010334  1
  O2-  O184  1  0.08887511  0.86603383  0.24370761  1
  O2-  O185  1  0.17743883  0.87851876  0.49568312  1
  O2-  O186  1  0.10493555  0.88493036  0.73636017  1
  O2-  O187  1  0.40335551  0.34622348  0.00990603  1
  O2-  O188  1  0.40317967  0.36330587  0.25654795  1
  O2-  O189  1  0.35137570  0.36974669  0.51421386  1
  O2-  O190  1  0.34757869  0.35509050  0.75699062  1
  O2-  O191  1  0.39266617  0.86344228  0.00314271  1
  O2-  O192  1  0.35696296  0.84628175  0.25496198  1
  O2-  O193  1  0.37442041  0.85726569  0.50773689  1
  O2-  O194  1  0.42011163  0.85625290  0.76212381  1
  O2-  O195  1  0.59397048  0.36343676  0.00736480  1
  O2-  O196  1  0.60150223  0.39612975  0.25969358  1
  O2-  O197  1  0.65517091  0.37856863  0.51693354  1
  O2-  O198  1  0.65526507  0.38565704  0.75443466  1
  O2-  O199  1  0.60809297  0.84267246  -0.00105768  1
  O2-  O200  1  0.62016097  0.86229701  0.24077945  1
  O2-  O201  1  0.62618837  0.84585760  0.49925712  1
  O2-  O202  1  0.59430430  0.89317381  0.75198642  1
  O2-  O203  1  0.92061129  0.39382709  0.01879920  1
  O2-  O204  1  0.92712716  0.39236922  0.24416589  1
  O2-  O205  1  0.92783099  0.37527483  0.48406745  1
  O2-  O206  1  0.88666232  0.36231887  0.74769339  1
  O2-  O207  1  0.84483094  0.86722341  0.00869270  1
  O2-  O208  1  0.89644880  0.84921975  0.26333315  1
  O2-  O209  1  0.82024975  0.88319495  0.50101500  1
  O2-  O210  1  0.87695965  0.87160055  0.74875012  1
  O2-  O211  1  -0.02521974  -0.19468187  0.10973038  1
  O2-  O212  1  -0.04097078  -0.03105930  0.13271061  1
  O2-  O213  1  -0.01780690  -0.14815855  0.60798344  1
  O2-  O214  1  -0.01036120  0.10614846  0.74544558  1
  O2-  O215  1  0.01324688  0.63162299  -0.05975562  1
  O2-  O216  1  -0.02016720  0.63002904  0.11987632  1
  O2-  O217  1  -0.00731655  0.66670960  0.51042669  1
  O2-  O218  1  0.00949867  0.35597606  0.87551407  1
  O2-  O219  1  0.25805264  0.12408251  0.07058590  1
  O2-  O220  1  0.26661171  0.10152959  0.22622741  1
  O2-  O221  1  0.25730797  0.13863222  0.39058702  1
  O2-  O222  1  0.24288835  -0.10762856  0.88025514  1
  O2-  O223  1  0.25919620  0.31521998  0.10821925  1
  O2-  O224  1  0.27373459  0.46552649  0.15642458  1
  O2-  O225  1  0.25544199  0.33266052  0.36939428  1
  O2-  O226  1  0.24288404  0.62682270  0.78970492  1
  O2-  O227  1  0.51888816  0.16110425  -0.13696724  1
  O2-  O228  1  0.50142131  -0.15063213  0.37358849  1
  O2-  O229  1  0.51386170  0.10551098  0.41104852  1
  O2-  O230  1  0.50255584  0.14855690  0.64484293  1
  O2-  O231  1  0.50520459  0.36575059  -0.14771063  1
  O2-  O232  1  0.48246286  0.59250825  0.39428911  1
  O2-  O233  1  0.49977998  0.39351349  0.40829531  1
  O2-  O234  1  0.49772138  0.34691156  0.64116926  1
  O2-  O235  1  0.77060281  0.10789631  -0.08359512  1
  O2-  O236  1  0.76069453  0.13372620  0.12748629  1
  O2-  O237  1  0.76286155  0.14323069  0.38324648  1
  O2-  O238  1  0.74891453  -0.11270038  0.86662490  1
  O2-  O239  1  0.75305650  0.37157774  0.05060606  1
  O2-  O240  1  0.75548941  0.35776606  0.20734550  1
  O2-  O241  1  0.76173270  0.37847650  0.38939268  1
  O2-  O242  1  0.76168485  0.63256801  0.85405217  1
