# generated using pymatgen
data_Gd19Ta56(WO20)8
_symmetry_space_group_name_H-M   'P 1'
_cell_length_a   15.62726104
_cell_length_b   15.30932800
_cell_length_c   15.32181404
_cell_angle_alpha   89.88858270
_cell_angle_beta   90.16447747
_cell_angle_gamma   90.14855708
_symmetry_Int_Tables_number   1
_chemical_formula_structural   Gd19Ta56(WO20)8
_chemical_formula_sum   'Gd19 Ta56 W8 O160'
_cell_volume   3665.60038571
_cell_formula_units_Z   1
loop_
 _symmetry_equiv_pos_site_id
 _symmetry_equiv_pos_as_xyz
  1  'x, y, z'
loop_
 _atom_type_symbol
 _atom_type_oxidation_number
  Gd3+  3.0
  Ta5+  5.0
  W6+  6.0
  O2-  -2.0
loop_
 _atom_site_type_symbol
 _atom_site_label
 _atom_site_symmetry_multiplicity
 _atom_site_fract_x
 _atom_site_fract_y
 _atom_site_fract_z
 _atom_site_occupancy
  Gd3+  Gd0  1  0.01594114  0.25080841  0.50947860  1
  Gd3+  Gd1  1  0.50387890  0.75160471  0.50585945  1
  Gd3+  Gd2  1  0.00068396  0.24047966  0.28282478  1
  Gd3+  Gd3  1  0.75960565  0.74581902  -0.01549713  1
  Gd3+  Gd4  1  0.00602319  0.74374355  0.26426317  1
  Gd3+  Gd5  1  0.52505978  0.76041173  -0.02342865  1
  Gd3+  Gd6  1  0.00575787  0.73357151  0.50240138  1
  Gd3+  Gd7  1  0.24219658  0.74316349  0.73905184  1
  Gd3+  Gd8  1  0.24078541  0.26434911  0.26186667  1
  Gd3+  Gd9  1  0.22001053  0.74620194  0.20691834  1
  Gd3+  Gd10  1  0.49279853  0.74284439  0.26574039  1
  Gd3+  Gd11  1  0.75346391  0.24426893  0.51835833  1
  Gd3+  Gd12  1  0.47363711  0.27619538  0.25908609  1
  Gd3+  Gd13  1  0.20715746  0.24938699  0.73055781  1
  Gd3+  Gd14  1  -0.01064214  0.76078180  0.03485043  1
  Gd3+  Gd15  1  0.77664311  0.73248725  0.20950947  1
  Gd3+  Gd16  1  0.75578985  0.24052051  0.24245072  1
  Gd3+  Gd17  1  0.28885936  0.76991153  -0.02305345  1
  Gd3+  Gd18  1  0.22091420  0.23129348  -0.01491908  1
  Ta5+  Ta19  1  0.05887396  0.93623720  0.17114498  1
  Ta5+  Ta20  1  0.61930234  0.12170256  0.37321129  1
  Ta5+  Ta21  1  0.62498235  0.38564059  0.86914129  1
  Ta5+  Ta22  1  0.58966659  0.37232914  0.62723434  1
  Ta5+  Ta23  1  0.08227249  0.33835797  0.12534061  1
  Ta5+  Ta24  1  0.61829059  0.38247567  0.12311536  1
  Ta5+  Ta25  1  0.63112618  0.62168553  0.61768429  1
  Ta5+  Ta26  1  0.89629753  0.37517729  0.62890134  1
  Ta5+  Ta27  1  0.65110214  0.62104338  0.37270963  1
  Ta5+  Ta28  1  0.88939367  0.10745374  0.39935342  1
  Ta5+  Ta29  1  0.60427123  0.13022006  0.88039090  1
  Ta5+  Ta30  1  0.86257522  0.85969032  0.61961261  1
  Ta5+  Ta31  1  0.15069585  0.87782422  0.39304332  1
  Ta5+  Ta32  1  0.12081425  0.87830045  0.62840435  1
  Ta5+  Ta33  1  0.62294751  0.13548683  0.10215275  1
  Ta5+  Ta34  1  0.39225428  0.61294290  0.65964306  1
  Ta5+  Ta35  1  0.43177101  0.54980532  0.88707423  1
  Ta5+  Ta36  1  0.14703235  0.12851586  0.40516543  1
  Ta5+  Ta37  1  0.41257221  0.89716947  0.84596049  1
  Ta5+  Ta38  1  0.06983782  0.12734492  0.87716448  1
  Ta5+  Ta39  1  0.12419042  0.62099950  0.88464779  1
  Ta5+  Ta40  1  0.36955190  0.13626949  0.39678546  1
  Ta5+  Ta41  1  0.09331430  0.15108974  0.13301608  1
  Ta5+  Ta42  1  0.15050553  0.60766284  0.60630655  1
  Ta5+  Ta43  1  0.12987284  0.88482899  0.88263158  1
  Ta5+  Ta44  1  0.35428799  0.37369429  0.86401984  1
  Ta5+  Ta45  1  0.92259042  0.12245020  0.12510951  1
  Ta5+  Ta46  1  0.62389687  0.59270507  0.86548016  1
  Ta5+  Ta47  1  0.91003293  0.55435302  0.11332523  1
  Ta5+  Ta48  1  0.36846590  0.13434177  0.84228567  1
  Ta5+  Ta49  1  0.85187447  0.60367526  0.40112946  1
  Ta5+  Ta50  1  0.86696090  0.62540687  0.64467254  1
  Ta5+  Ta51  1  0.42105857  0.13702453  0.07739194  1
  Ta5+  Ta52  1  0.35035100  0.88146876  0.37784059  1
  Ta5+  Ta53  1  0.35376225  0.60595715  0.10678709  1
  Ta5+  Ta54  1  0.93321724  0.35958562  0.87247221  1
  Ta5+  Ta55  1  0.10105553  0.56814225  0.12337519  1
  Ta5+  Ta56  1  0.86345349  0.92509547  0.13918229  1
  Ta5+  Ta57  1  0.61970895  0.88678440  0.13647161  1
  Ta5+  Ta58  1  0.88811004  0.60273623  0.88271450  1
  Ta5+  Ta59  1  0.33127965  0.13526793  0.59423253  1
  Ta5+  Ta60  1  0.09917915  0.37806433  0.87890503  1
  Ta5+  Ta61  1  0.89732878  0.11046860  0.62360937  1
  Ta5+  Ta62  1  0.89336528  0.87151279  0.86675004  1
  Ta5+  Ta63  1  0.64542446  0.87618408  0.38172729  1
  Ta5+  Ta64  1  0.87869762  0.37304833  0.39032175  1
  Ta5+  Ta65  1  0.91465310  0.34301664  0.12138169  1
  Ta5+  Ta66  1  0.61989390  0.12652161  0.63771123  1
  Ta5+  Ta67  1  0.06199306  0.39021354  0.64894778  1
  Ta5+  Ta68  1  0.33596626  0.62710747  0.42089661  1
  Ta5+  Ta69  1  0.36332154  0.89036462  0.61219468  1
  Ta5+  Ta70  1  0.06585372  0.11593996  0.64730707  1
  Ta5+  Ta71  1  0.38470430  0.37519449  0.06654190  1
  Ta5+  Ta72  1  0.84965364  0.87364753  0.38039751  1
  Ta5+  Ta73  1  0.38797422  0.38630220  0.41209847  1
  Ta5+  Ta74  1  0.42230623  0.36318907  0.63768428  1
  W6+  W75  1  0.58261321  0.62427930  0.12380747  1
  W6+  W76  1  0.90929382  0.12245428  0.87095050  1
  W6+  W77  1  0.15382124  0.61758716  0.37902105  1
  W6+  W78  1  0.63824079  0.37399532  0.38169304  1
  W6+  W79  1  0.39366774  0.88429459  0.12441616  1
  W6+  W80  1  0.64918228  0.88328566  0.87078825  1
  W6+  W81  1  0.12698736  0.39372406  0.39402691  1
  W6+  W82  1  0.62517972  0.88561483  0.63343450  1
  O2-  O83  1  0.13843181  0.01896090  0.14384998  1
  O2-  O84  1  0.15371060  0.00065931  0.39650027  1
  O2-  O85  1  0.07479322  -0.01491638  0.65326098  1
  O2-  O86  1  0.10431786  0.00153668  0.87731441  1
  O2-  O87  1  0.14911591  0.45968862  0.12152674  1
  O2-  O88  1  0.20096025  0.49113286  0.37174935  1
  O2-  O89  1  0.08566706  0.51776666  0.65271685  1
  O2-  O90  1  0.14219527  0.50194743  0.90251566  1
  O2-  O91  1  0.39795544  0.02669474  0.11471913  1
  O2-  O92  1  0.36117077  0.00189158  0.38176584  1
  O2-  O93  1  0.36566464  0.01463307  0.58449242  1
  O2-  O94  1  0.36824692  0.01008719  0.87015401  1
  O2-  O95  1  0.35120495  0.48109927  0.12050800  1
  O2-  O96  1  0.38309422  0.51968487  0.39146018  1
  O2-  O97  1  0.41858192  0.49651609  0.66010856  1
  O2-  O98  1  0.32746667  0.49659466  0.84557446  1
  O2-  O99  1  0.60080091  0.00554617  0.12041960  1
  O2-  O100  1  0.60613419  0.00027822  0.37073637  1
  O2-  O101  1  0.58076968  0.00961163  0.63384393  1
  O2-  O102  1  0.59210499  0.00774646  0.88292428  1
  O2-  O103  1  0.63331481  0.49893314  0.14851219  1
  O2-  O104  1  0.61050953  0.51049624  0.36119383  1
  O2-  O105  1  0.59877284  0.50365890  0.60897312  1
  O2-  O106  1  0.70163288  0.50120611  0.88105596  1
  O2-  O107  1  0.81528905  0.03165428  0.11058007  1
  O2-  O108  1  0.90867184  -0.01744878  0.37974437  1
  O2-  O109  1  0.89037725  -0.02346160  0.60894583  1
  O2-  O110  1  0.92229580  -0.01255057  0.88078577  1
  O2-  O111  1  0.84147180  0.45796635  0.13646824  1
  O2-  O112  1  0.90396947  0.50016426  0.36829523  1
  O2-  O113  1  0.87943612  0.50552288  0.65127732  1
  O2-  O114  1  0.89245938  0.48410605  0.86398028  1
  O2-  O115  1  0.18867299  0.24949120  0.12808424  1
  O2-  O116  1  0.15317910  0.25784400  0.41277065  1
  O2-  O117  1  0.07564589  0.25174395  0.65388957  1
  O2-  O118  1  0.12554554  0.24817116  0.85930538  1
  O2-  O119  1  0.08912926  0.80793700  0.14622059  1
  O2-  O120  1  0.10213155  0.75217386  0.38216172  1
  O2-  O121  1  0.13505554  0.73742322  0.61721260  1
  O2-  O122  1  0.17745282  0.74071523  0.88678177  1
  O2-  O123  1  0.36878107  0.25347463  0.11325003  1
  O2-  O124  1  0.37055331  0.25780983  0.42597332  1
  O2-  O125  1  0.39253507  0.23859745  0.60884562  1
  O2-  O126  1  0.30486504  0.25046528  0.84885065  1
  O2-  O127  1  0.33995763  0.74435787  0.11932372  1
  O2-  O128  1  0.39899920  0.73842345  0.39129123  1
  O2-  O129  1  0.36509168  0.76265517  0.64574201  1
  O2-  O130  1  0.32634242  0.81179274  0.83668353  1
  O2-  O131  1  0.66688698  0.25411664  0.11561888  1
  O2-  O132  1  0.68751606  0.23870406  0.38108483  1
  O2-  O133  1  0.57507397  0.24075002  0.63863967  1
  O2-  O134  1  0.61502516  0.26536135  0.88019162  1
  O2-  O135  1  0.53625785  0.77971464  0.12473526  1
  O2-  O136  1  0.58692482  0.74984205  0.38282077  1
  O2-  O137  1  0.58313661  0.73939771  0.63069977  1
  O2-  O138  1  0.65047444  0.71802630  0.89062492  1
  O2-  O139  1  0.85351780  0.23029482  0.12630461  1
  O2-  O140  1  0.87423186  0.24225658  0.42059822  1
  O2-  O141  1  0.88581591  0.24478592  0.61004145  1
  O2-  O142  1  0.88661856  0.24859520  0.85588027  1
  O2-  O143  1  0.85125521  0.81107390  0.07901189  1
  O2-  O144  1  0.90873642  0.71735543  0.37119614  1
  O2-  O145  1  0.92992492  0.74362763  0.63480623  1
  O2-  O146  1  0.88916050  0.74503209  0.91381313  1
  O2-  O147  1  0.10289090  0.13910063  -0.00052788  1
  O2-  O148  1  0.13474400  0.15077829  0.27276440  1
  O2-  O149  1  0.10377521  0.12219280  0.52845470  1
  O2-  O150  1  0.12989032  0.12096337  0.76032908  1
  O2-  O151  1  0.10830038  0.65772099  0.02048135  1
  O2-  O152  1  0.11340037  0.64684388  0.23323367  1
  O2-  O153  1  0.08055626  0.60704816  0.50095990  1
  O2-  O154  1  0.14635321  0.63272375  0.76223267  1
  O2-  O155  1  0.34570337  0.14598313  -0.02586602  1
  O2-  O156  1  0.35215885  0.16388352  0.27725982  1
  O2-  O157  1  0.26626385  0.12552360  0.47751705  1
  O2-  O158  1  0.31918470  0.12532617  0.72650853  1
  O2-  O159  1  0.36212357  0.62229568  -0.01823582  1
  O2-  O160  1  0.44919858  0.61889732  0.18341516  1
  O2-  O161  1  0.41251326  0.63357225  0.53404501  1
  O2-  O162  1  0.42334840  0.63247370  0.78331457  1
  O2-  O163  1  0.67717380  0.12776337  -0.01089878  1
  O2-  O164  1  0.65796092  0.12751149  0.24849008  1
  O2-  O165  1  0.64015960  0.13160280  0.50578840  1
  O2-  O166  1  0.65010089  0.12967059  0.76415452  1
  O2-  O167  1  0.53648952  0.60921535  -0.03235840  1
  O2-  O168  1  0.61606230  0.65952138  0.25373475  1
  O2-  O169  1  0.59868591  0.63559161  0.49378587  1
  O2-  O170  1  0.62288632  0.61263138  0.74632667  1
  O2-  O171  1  0.92565423  0.12290148  0.00382234  1
  O2-  O172  1  0.87059106  0.14173008  0.27509659  1
  O2-  O173  1  0.82372767  0.10542913  0.50484888  1
  O2-  O174  1  0.88163828  0.11192115  0.74263701  1
  O2-  O175  1  0.84289275  0.60657959  0.00083028  1
  O2-  O176  1  0.91085606  0.67678858  0.16233062  1
  O2-  O177  1  0.90049347  0.62571249  0.51790604  1
  O2-  O178  1  0.84735532  0.64221225  0.77166794  1
  O2-  O179  1  0.10834806  0.34276818  -0.00057869  1
  O2-  O180  1  0.11318653  0.34599561  0.25890627  1
  O2-  O181  1  0.09712957  0.38359034  0.52989694  1
  O2-  O182  1  0.14399671  0.38351831  0.75533273  1
  O2-  O183  1  0.20586538  0.88727529  -0.02300385  1
  O2-  O184  1  0.06462396  0.88904441  0.29064850  1
  O2-  O185  1  0.08161958  0.87069950  0.50698053  1
  O2-  O186  1  0.14303373  0.85420037  0.75959204  1
  O2-  O187  1  0.29049621  0.36091446  -0.01410034  1
  O2-  O188  1  0.35214225  0.36143518  0.28960800  1
  O2-  O189  1  0.35500341  0.39936689  0.53013081  1
  O2-  O190  1  0.41985918  0.34671743  0.76368605  1
  O2-  O191  1  0.51976018  0.84084989  -0.15015716  1
  O2-  O192  1  0.40742862  0.86550789  0.26777481  1
  O2-  O193  1  0.41420239  0.87241151  0.49758579  1
  O2-  O194  1  0.41780819  0.91683184  0.72102537  1
  O2-  O195  1  0.61902593  0.39413681  0.00084384  1
  O2-  O196  1  0.61559727  0.33849036  0.25171931  1
  O2-  O197  1  0.64678281  0.35303372  0.51519713  1
  O2-  O198  1  0.63182696  0.38337554  0.74292182  1
  O2-  O199  1  0.63616746  0.85501717  0.01305211  1
  O2-  O200  1  0.59158704  0.86926599  0.26212564  1
  O2-  O201  1  0.59863040  0.87199564  0.49572496  1
  O2-  O202  1  0.68129752  0.88044558  0.74625208  1
  O2-  O203  1  0.91653962  0.35611908  -0.00058171  1
  O2-  O204  1  0.87697776  0.33707339  0.26395668  1
  O2-  O205  1  0.83733080  0.38925109  0.50770671  1
  O2-  O206  1  0.96245372  0.36358138  0.74125208  1
  O2-  O207  1  0.78194062  0.88124859  -0.08823585  1
  O2-  O208  1  0.88400481  0.85018314  0.25539943  1
  O2-  O209  1  0.89469160  0.83650054  0.49062738  1
  O2-  O210  1  0.87608777  0.85863027  0.74846774  1
  O2-  O211  1  -0.02138114  -0.09102836  0.07326465  1
  O2-  O212  1  -0.04423043  0.00498511  0.19853816  1
  O2-  O213  1  0.01313722  0.13609446  0.39177763  1
  O2-  O214  1  0.01980288  -0.16348944  0.90687100  1
  O2-  O215  1  0.00139437  0.53971393  0.03481900  1
  O2-  O216  1  0.00167415  0.53562463  0.19738782  1
  O2-  O217  1  0.00188562  0.34436962  0.39261722  1
  O2-  O218  1  0.00548867  0.62958365  0.87155473  1
  O2-  O219  1  0.40891432  -0.14128793  -0.02072016  1
  O2-  O220  1  0.24251762  -0.13626039  0.30021955  1
  O2-  O221  1  0.25388277  -0.15164697  0.45936384  1
  O2-  O222  1  0.24376335  -0.10813574  0.62987853  1
  O2-  O223  1  0.23468722  0.61436603  0.12775232  1
  O2-  O224  1  0.27306991  0.65952968  0.31592411  1
  O2-  O225  1  0.24005607  0.62437283  0.49655528  1
  O2-  O226  1  0.27120707  0.60736999  0.65898682  1
  O2-  O227  1  0.52142031  0.13397336  0.00604501  1
  O2-  O228  1  0.51346885  0.16938098  0.16304270  1
  O2-  O229  1  0.50365582  0.15329442  0.36378297  1
  O2-  O230  1  0.48396003  0.15374453  0.83595532  1
  O2-  O231  1  0.43414952  0.43474507  -0.03580054  1
  O2-  O232  1  0.49557475  0.36445425  0.13219817  1
  O2-  O233  1  0.50316876  0.36506293  0.38909418  1
  O2-  O234  1  0.53690199  0.49109974  0.84648989  1
  O2-  O235  1  0.73539393  -0.11778275  0.16982071  1
  O2-  O236  1  0.74474366  -0.20275067  0.34615950  1
  O2-  O237  1  0.75124256  -0.06114920  0.41528954  1
  O2-  O238  1  0.75079464  -0.16133014  0.59401040  1
  O2-  O239  1  0.69950584  0.68429002  0.09809067  1
  O2-  O240  1  0.76866138  0.62040000  0.30429728  1
  O2-  O241  1  0.74588553  0.58343798  0.45682437  1
  O2-  O242  1  0.75045374  0.64116900  0.62043794  1
