# generated using pymatgen
data_Gd19Ta56(WO20)8
_symmetry_space_group_name_H-M   'P 1'
_cell_length_a   15.46721848
_cell_length_b   15.42776617
_cell_length_c   15.35123910
_cell_angle_alpha   89.94223842
_cell_angle_beta   90.00332703
_cell_angle_gamma   89.97025990
_symmetry_Int_Tables_number   1
_chemical_formula_structural   Gd19Ta56(WO20)8
_chemical_formula_sum   'Gd19 Ta56 W8 O160'
_cell_volume   3663.18138801
_cell_formula_units_Z   1
loop_
 _symmetry_equiv_pos_site_id
 _symmetry_equiv_pos_as_xyz
  1  'x, y, z'
loop_
 _atom_type_symbol
 _atom_type_oxidation_number
  Gd3+  3.0
  Ta5+  5.0
  W6+  6.0
  O2-  -2.0
loop_
 _atom_site_type_symbol
 _atom_site_label
 _atom_site_symmetry_multiplicity
 _atom_site_fract_x
 _atom_site_fract_y
 _atom_site_fract_z
 _atom_site_occupancy
  Gd3+  Gd0  1  0.50486689  0.23802291  0.25763954  1
  Gd3+  Gd1  1  -0.00482846  0.74803430  0.50697241  1
  Gd3+  Gd2  1  -0.01059516  0.75290319  0.75508830  1
  Gd3+  Gd3  1  0.74751701  0.73795989  0.74053347  1
  Gd3+  Gd4  1  -0.02356038  0.25107630  -0.00520961  1
  Gd3+  Gd5  1  0.24190040  0.24002835  0.50486517  1
  Gd3+  Gd6  1  0.49854692  0.75511221  0.50522374  1
  Gd3+  Gd7  1  0.25109512  0.78039113  0.52252922  1
  Gd3+  Gd8  1  -0.00485893  0.27334025  0.23532445  1
  Gd3+  Gd9  1  0.23090078  0.73932627  0.74720466  1
  Gd3+  Gd10  1  0.52607461  0.24025131  0.72876626  1
  Gd3+  Gd11  1  0.26510327  0.25424125  -0.01510719  1
  Gd3+  Gd12  1  -0.02676459  0.73523814  0.25606461  1
  Gd3+  Gd13  1  0.51326722  0.75155696  0.24298781  1
  Gd3+  Gd14  1  0.74028961  0.25961160  0.22818253  1
  Gd3+  Gd15  1  0.75812683  0.21899198  0.77930884  1
  Gd3+  Gd16  1  0.27813389  0.76248604  0.00805223  1
  Gd3+  Gd17  1  0.23047580  0.26716113  0.75163614  1
  Gd3+  Gd18  1  -0.02446530  0.23816999  0.48968641  1
  Ta5+  Ta19  1  0.67242493  0.87400282  0.88842302  1
  Ta5+  Ta20  1  0.87417795  0.89525206  0.62851471  1
  Ta5+  Ta21  1  0.37711679  0.87808436  0.68254777  1
  Ta5+  Ta22  1  0.60121988  0.10726100  0.87918705  1
  Ta5+  Ta23  1  0.86458169  0.34855898  0.63842579  1
  Ta5+  Ta24  1  0.63749017  0.11959155  0.60589154  1
  Ta5+  Ta25  1  0.63942685  0.36864839  0.61257491  1
  Ta5+  Ta26  1  0.36650697  0.87598546  0.36404405  1
  Ta5+  Ta27  1  0.85327304  0.88082975  0.37407328  1
  Ta5+  Ta28  1  0.91028985  0.06920805  0.88747421  1
  Ta5+  Ta29  1  0.36792153  0.12215326  0.36868060  1
  Ta5+  Ta30  1  0.88122053  0.60844552  0.88464847  1
  Ta5+  Ta31  1  0.39380830  0.36534243  0.60972079  1
  Ta5+  Ta32  1  0.62784624  0.38962103  0.37056382  1
  Ta5+  Ta33  1  0.82640724  0.63325335  0.12826618  1
  Ta5+  Ta34  1  0.88755940  0.10562816  0.34659764  1
  Ta5+  Ta35  1  0.12583828  0.63310280  0.12836566  1
  Ta5+  Ta36  1  0.86188075  0.56655387  0.38116681  1
  Ta5+  Ta37  1  0.10256407  0.13546768  0.63057761  1
  Ta5+  Ta38  1  0.65246039  0.88018382  0.37177037  1
  Ta5+  Ta39  1  0.12589570  0.59917046  0.62241725  1
  Ta5+  Ta40  1  0.65849100  0.63068928  0.12348382  1
  Ta5+  Ta41  1  0.11978689  0.11711169  0.11481607  1
  Ta5+  Ta42  1  0.09862581  0.42300054  0.87136235  1
  Ta5+  Ta43  1  0.37555874  0.60592840  0.87574809  1
  Ta5+  Ta44  1  0.83270420  0.85725166  0.12299117  1
  Ta5+  Ta45  1  0.09980161  0.40132011  0.62280165  1
  Ta5+  Ta46  1  0.64238972  0.63089914  0.38170941  1
  Ta5+  Ta47  1  0.11360769  0.10800874  0.86376682  1
  Ta5+  Ta48  1  0.87745077  0.59712528  0.62412585  1
  Ta5+  Ta49  1  0.86241597  0.10789691  0.13437827  1
  Ta5+  Ta50  1  0.10428851  0.86972587  0.11621433  1
  Ta5+  Ta51  1  0.94462425  0.11148858  0.68725103  1
  Ta5+  Ta52  1  0.86518542  0.38920965  0.86354066  1
  Ta5+  Ta53  1  0.58798090  0.37081309  0.87304451  1
  Ta5+  Ta54  1  0.37925632  0.61160793  0.62616007  1
  Ta5+  Ta55  1  0.64027545  0.87463309  0.62855720  1
  Ta5+  Ta56  1  0.61535483  0.62032458  0.87935972  1
  Ta5+  Ta57  1  0.66359141  0.85722592  0.11770790  1
  Ta5+  Ta58  1  0.39336472  0.61634679  0.12679628  1
  Ta5+  Ta59  1  0.62338180  0.61321574  0.63008330  1
  Ta5+  Ta60  1  0.12608868  0.93427419  0.62814045  1
  Ta5+  Ta61  1  0.35933666  0.62338879  0.36416694  1
  Ta5+  Ta62  1  0.39716251  0.12870295  0.86762847  1
  Ta5+  Ta63  1  0.13158942  0.63125720  0.88631995  1
  Ta5+  Ta64  1  0.62644045  0.38565675  0.11467665  1
  Ta5+  Ta65  1  0.86558866  0.39311330  0.11648087  1
  Ta5+  Ta66  1  0.41350912  0.92984684  0.86780034  1
  Ta5+  Ta67  1  0.11883840  0.12187265  0.36773453  1
  Ta5+  Ta68  1  0.37894138  0.38082086  0.36827992  1
  Ta5+  Ta69  1  0.15462628  0.62403568  0.36737756  1
  Ta5+  Ta70  1  0.36838694  0.11821929  0.11994877  1
  Ta5+  Ta71  1  0.11886364  0.87731932  0.36803523  1
  Ta5+  Ta72  1  0.39032364  0.11371505  0.61753805  1
  Ta5+  Ta73  1  0.84013792  0.85671649  0.89344768  1
  Ta5+  Ta74  1  0.62915981  0.10560223  0.11646580  1
  W6+  W75  1  0.37437962  0.37947738  0.11924894  1
  W6+  W76  1  0.12203337  0.38116423  0.11643340  1
  W6+  W77  1  0.62381413  0.11147392  0.36455866  1
  W6+  W78  1  0.42516441  0.35553399  0.86936572  1
  W6+  W79  1  0.85553711  0.36725992  0.37951962  1
  W6+  W80  1  0.41229175  0.88463833  0.11328412  1
  W6+  W81  1  0.10148209  0.89318845  0.87912026  1
  W6+  W82  1  0.11061429  0.37986535  0.37613103  1
  O2-  O83  1  0.09288034  -0.00205012  0.10583012  1
  O2-  O84  1  0.10819600  -0.00045345  0.38872410  1
  O2-  O85  1  0.19576004  0.02895211  0.60680283  1
  O2-  O86  1  0.17389676  0.00397371  0.88130938  1
  O2-  O87  1  0.13508821  0.51638135  0.11622532  1
  O2-  O88  1  0.14921312  0.50857003  0.39080195  1
  O2-  O89  1  0.18860956  0.48715355  0.60633899  1
  O2-  O90  1  0.17487178  0.51155295  0.90897671  1
  O2-  O91  1  0.43381107  0.01966438  0.10788651  1
  O2-  O92  1  0.36472923  -0.00478177  0.38571480  1
  O2-  O93  1  0.38067566  -0.00934317  0.62466706  1
  O2-  O94  1  0.33468365  0.01915234  0.84646158  1
  O2-  O95  1  0.42237966  0.50017352  0.11183162  1
  O2-  O96  1  0.38097462  0.50706626  0.39717507  1
  O2-  O97  1  0.37355520  0.49022000  0.61580640  1
  O2-  O98  1  0.38063808  0.49020037  0.87104737  1
  O2-  O99  1  0.65338551  -0.01138159  0.11885167  1
  O2-  O100  1  0.58863631  -0.01902313  0.38554971  1
  O2-  O101  1  0.64329378  -0.00236021  0.62110089  1
  O2-  O102  1  0.66194718  0.00440027  0.88594860  1
  O2-  O103  1  0.62214510  0.50695412  0.12095240  1
  O2-  O104  1  0.60272595  0.51160846  0.38507948  1
  O2-  O105  1  0.64500554  0.49272489  0.61189654  1
  O2-  O106  1  0.60148449  0.49519701  0.87327056  1
  O2-  O107  1  0.84778046  -0.01149647  0.12735376  1
  O2-  O108  1  0.92014655  -0.01345223  0.35769352  1
  O2-  O109  1  0.86466351  0.01350273  0.63813223  1
  O2-  O110  1  0.83090038  -0.01833352  0.91116901  1
  O2-  O111  1  0.83439997  0.50745663  0.13259851  1
  O2-  O112  1  0.94581694  0.47855366  0.37362857  1
  O2-  O113  1  0.85693563  0.47999219  0.63017060  1
  O2-  O114  1  0.81358534  0.50698977  0.86119885  1
  O2-  O115  1  0.07829415  0.24033367  0.11439700  1
  O2-  O116  1  0.07357554  0.24326217  0.36646211  1
  O2-  O117  1  0.14445797  0.27320397  0.62418556  1
  O2-  O118  1  0.16545099  0.22667333  0.87709752  1
  O2-  O119  1  0.06491990  0.75217734  0.12945754  1
  O2-  O120  1  0.09466928  0.75099380  0.37818115  1
  O2-  O121  1  0.09141068  0.72196140  0.64932487  1
  O2-  O122  1  0.11743081  0.75982570  0.84622103  1
  O2-  O123  1  0.40739973  0.23450812  0.14427667  1
  O2-  O124  1  0.36560484  0.25489869  0.35821146  1
  O2-  O125  1  0.33372011  0.24315670  0.62557489  1
  O2-  O126  1  0.33942423  0.24193263  0.85084137  1
  O2-  O127  1  0.40127946  0.74503158  0.12713546  1
  O2-  O128  1  0.41045114  0.74458883  0.36555470  1
  O2-  O129  1  0.40006588  0.76447859  0.63766185  1
  O2-  O130  1  0.26543244  0.67963694  0.88088513  1
  O2-  O131  1  0.60641220  0.25682721  0.14985962  1
  O2-  O132  1  0.63839709  0.25250959  0.33830724  1
  O2-  O133  1  0.67048200  0.24264061  0.63643010  1
  O2-  O134  1  0.63459261  0.24017261  0.86855624  1
  O2-  O135  1  0.60055426  0.74181728  0.11812961  1
  O2-  O136  1  0.58870208  0.75168883  0.38039522  1
  O2-  O137  1  0.61529780  0.74613132  0.64290945  1
  O2-  O138  1  0.66027097  0.74247243  0.86351639  1
  O2-  O139  1  0.89020951  0.24654445  0.11949816  1
  O2-  O140  1  0.90241116  0.23891509  0.34906881  1
  O2-  O141  1  0.88939807  0.22566368  0.66654049  1
  O2-  O142  1  0.85959922  0.26376618  0.88221100  1
  O2-  O143  1  0.88849329  0.73980348  0.13663845  1
  O2-  O144  1  0.91551344  0.76893633  0.38763858  1
  O2-  O145  1  0.90832766  0.74674013  0.62823296  1
  O2-  O146  1  0.85442182  0.72887790  0.85186551  1
  O2-  O147  1  0.08224156  0.13482536  -0.01142495  1
  O2-  O148  1  0.12634071  0.11902549  0.24081632  1
  O2-  O149  1  0.10281992  0.14885811  0.49977400  1
  O2-  O150  1  0.16426227  0.13264438  0.74436995  1
  O2-  O151  1  0.15893433  0.66546398  0.00879652  1
  O2-  O152  1  0.09085643  0.63276834  0.25730450  1
  O2-  O153  1  0.10608365  0.63569521  0.50200234  1
  O2-  O154  1  0.14887724  0.60611531  0.75787849  1
  O2-  O155  1  0.37048682  0.14339158  -0.00802096  1
  O2-  O156  1  0.35078340  0.10568997  0.24632723  1
  O2-  O157  1  0.35017013  0.13431958  0.50004792  1
  O2-  O158  1  0.41823514  0.13499998  0.73951196  1
  O2-  O159  1  0.36189573  0.63062584  0.00190721  1
  O2-  O160  1  0.42774487  0.62006790  0.25476580  1
  O2-  O161  1  0.40053336  0.64166443  0.50497014  1
  O2-  O162  1  0.35263147  0.63137552  0.75050208  1
  O2-  O163  1  0.57865291  0.12661232  0.00811482  1
  O2-  O164  1  0.57666651  0.10964894  0.23020722  1
  O2-  O165  1  0.67088363  0.12618148  0.49134999  1
  O2-  O166  1  0.62068866  0.12212409  0.74828993  1
  O2-  O167  1  0.65827906  0.62231858  -0.00805108  1
  O2-  O168  1  0.63582170  0.63885116  0.25738190  1
  O2-  O169  1  0.59887883  0.63951615  0.50677932  1
  O2-  O170  1  0.65974685  0.61510581  0.75589440  1
  O2-  O171  1  0.90344520  0.11592331  0.00794081  1
  O2-  O172  1  0.79329956  0.12124049  0.25917545  1
  O2-  O173  1  0.89383624  0.12166848  0.46647248  1
  O2-  O174  1  0.84284059  0.10191943  0.78675265  1
  O2-  O175  1  0.85178016  0.62565762  0.00061756  1
  O2-  O176  1  0.87139284  0.62094723  0.26897288  1
  O2-  O177  1  0.90882031  0.61287845  0.49817939  1
  O2-  O178  1  0.90996519  0.61630402  0.74372473  1
  O2-  O179  1  0.08564835  0.36146920  -0.02241545  1
  O2-  O180  1  0.11871346  0.36467825  0.24886685  1
  O2-  O181  1  0.06811164  0.37299628  0.50501254  1
  O2-  O182  1  0.13489225  0.38863198  0.75274524  1
  O2-  O183  1  0.15860582  0.85577155  0.00459402  1
  O2-  O184  1  0.10947428  0.87758265  0.24643068  1
  O2-  O185  1  0.12188119  0.86516178  0.51576894  1
  O2-  O186  1  0.08191060  0.89343734  0.73671694  1
  O2-  O187  1  0.38541570  0.33888823  -0.00259604  1
  O2-  O188  1  0.34852877  0.39920641  0.25418577  1
  O2-  O189  1  0.33188075  0.35959189  0.49199598  1
  O2-  O190  1  0.41492805  0.35293255  0.73019322  1
  O2-  O191  1  0.38340651  0.86939463  -0.02765376  1
  O2-  O192  1  0.42842690  0.87807555  0.25677814  1
  O2-  O193  1  0.37907197  0.85053922  0.48889905  1
  O2-  O194  1  0.32722760  0.84739090  0.79626068  1
  O2-  O195  1  0.58655052  0.36541048  0.00105428  1
  O2-  O196  1  0.65994393  0.39435451  0.25013626  1
  O2-  O197  1  0.66447474  0.36117020  0.48540654  1
  O2-  O198  1  0.61138985  0.36598046  0.74049885  1
  O2-  O199  1  0.62261209  0.86177622  -0.00027628  1
  O2-  O200  1  0.62751890  0.85067575  0.25001802  1
  O2-  O201  1  0.59518762  0.86451946  0.51110768  1
  O2-  O202  1  0.66497986  0.87309678  0.75404063  1
  O2-  O203  1  0.88816919  0.39086828  -0.01076791  1
  O2-  O204  1  0.84670189  0.36357789  0.24059660  1
  O2-  O205  1  0.86759892  0.33932613  0.51563750  1
  O2-  O206  1  0.80086300  0.35987817  0.75197436  1
  O2-  O207  1  0.87969281  0.84001358  0.00806553  1
  O2-  O208  1  0.87454822  0.85253814  0.25156255  1
  O2-  O209  1  0.91650659  0.88430779  0.51140379  1
  O2-  O210  1  0.88243524  0.86548005  0.75615603  1
  O2-  O211  1  0.01523405  0.00344554  -0.11049005  1
  O2-  O212  1  -0.04636339  0.11871929  0.22240879  1
  O2-  O213  1  0.03103136  0.01949361  0.62290161  1
  O2-  O214  1  -0.00200930  0.14682715  0.81034291  1
  O2-  O215  1  0.00862664  0.62458051  -0.11067745  1
  O2-  O216  1  -0.01260974  0.39437386  0.13554581  1
  O2-  O217  1  0.02851009  0.52339476  0.63243787  1
  O2-  O218  1  -0.02000085  0.42168284  0.83298727  1
  O2-  O219  1  0.24045326  0.13212485  0.09540030  1
  O2-  O220  1  0.23672678  0.14453944  0.38306170  1
  O2-  O221  1  0.24516253  -0.14615994  0.36986838  1
  O2-  O222  1  0.24425496  -0.14019958  0.64858055  1
  O2-  O223  1  0.24830156  0.34088921  0.09895995  1
  O2-  O224  1  0.25929656  0.60765873  0.28966921  1
  O2-  O225  1  0.25648360  0.67248084  0.42983128  1
  O2-  O226  1  0.25484741  0.65940376  0.61469075  1
  O2-  O227  1  0.49280738  0.03130465  -0.11433557  1
  O2-  O228  1  0.48843472  0.13838648  0.37324148  1
  O2-  O229  1  0.51247062  0.14303925  0.59753912  1
  O2-  O230  1  0.47527313  -0.09812300  0.75376368  1
  O2-  O231  1  0.49281936  0.64583530  -0.12565928  1
  O2-  O232  1  0.50377126  0.36568948  0.36422045  1
  O2-  O233  1  0.51227030  0.34885018  0.58346154  1
  O2-  O234  1  0.50209079  0.60838215  0.65431384  1
  O2-  O235  1  0.74379337  0.15136696  0.10355641  1
  O2-  O236  1  0.75031393  -0.05517525  0.32663249  1
  O2-  O237  1  0.75228270  -0.16618178  0.43728107  1
  O2-  O238  1  0.76040536  -0.15172322  0.61466618  1
  O2-  O239  1  0.74409255  0.35081640  0.09499960  1
  O2-  O240  1  0.77531546  0.48031003  0.38092240  1
  O2-  O241  1  0.75640917  0.64464595  0.40970438  1
  O2-  O242  1  0.76124353  0.63702132  0.62170205  1
