# generated using pymatgen
data_Gd19Ta56(WO20)8
_symmetry_space_group_name_H-M   'P 1'
_cell_length_a   15.66994952
_cell_length_b   15.32327617
_cell_length_c   15.01185697
_cell_angle_alpha   90.06379284
_cell_angle_beta   90.41053899
_cell_angle_gamma   90.23502416
_symmetry_Int_Tables_number   1
_chemical_formula_structural   Gd19Ta56(WO20)8
_chemical_formula_sum   'Gd19 Ta56 W8 O160'
_cell_volume   3604.44628779
_cell_formula_units_Z   1
loop_
 _symmetry_equiv_pos_site_id
 _symmetry_equiv_pos_as_xyz
  1  'x, y, z'
loop_
 _atom_type_symbol
 _atom_type_oxidation_number
  Gd3+  3.0
  Ta5+  5.0
  W6+  6.0
  O2-  -2.0
loop_
 _atom_site_type_symbol
 _atom_site_label
 _atom_site_symmetry_multiplicity
 _atom_site_fract_x
 _atom_site_fract_y
 _atom_site_fract_z
 _atom_site_occupancy
  Gd3+  Gd0  1  0.24940318  0.73863740  0.50387235  1
  Gd3+  Gd1  1  -0.01515713  0.65148661  0.85185432  1
  Gd3+  Gd2  1  0.24645071  0.24428499  0.24286528  1
  Gd3+  Gd3  1  0.25589589  0.74566377  0.25189050  1
  Gd3+  Gd4  1  0.00366247  0.25382745  0.27263860  1
  Gd3+  Gd5  1  0.75862329  0.75959073  0.23660614  1
  Gd3+  Gd6  1  0.76302710  0.74098557  0.50074443  1
  Gd3+  Gd7  1  0.47027657  0.23038955  -0.00278875  1
  Gd3+  Gd8  1  -0.01390316  0.73055729  0.54684107  1
  Gd3+  Gd9  1  0.78580538  0.78226306  -0.02142496  1
  Gd3+  Gd10  1  0.75101788  0.26250600  -0.01428569  1
  Gd3+  Gd11  1  0.75277634  0.26611454  0.74324205  1
  Gd3+  Gd12  1  0.53370293  0.24934727  0.77705997  1
  Gd3+  Gd13  1  0.79847218  0.76101570  0.75029642  1
  Gd3+  Gd14  1  0.51231111  0.23827311  0.26113725  1
  Gd3+  Gd15  1  0.28485538  0.25979536  0.53434718  1
  Gd3+  Gd16  1  -0.02335236  0.24485975  0.53623107  1
  Gd3+  Gd17  1  0.75186902  0.23600734  0.23215190  1
  Gd3+  Gd18  1  0.46687860  0.75230615  -0.03891790  1
  Ta5+  Ta19  1  0.11479740  0.87201228  0.37991444  1
  Ta5+  Ta20  1  0.61588234  0.61997539  0.36897238  1
  Ta5+  Ta21  1  0.17484502  0.61501038  0.89837035  1
  Ta5+  Ta22  1  0.88541705  0.91066868  0.61309038  1
  Ta5+  Ta23  1  0.12827810  0.37224794  0.64884997  1
  Ta5+  Ta24  1  0.66642889  0.43945445  0.87233888  1
  Ta5+  Ta25  1  0.86643241  0.40021871  0.85981622  1
  Ta5+  Ta26  1  0.79914156  0.55531067  0.87937197  1
  Ta5+  Ta27  1  0.11956415  0.36309043  0.88435075  1
  Ta5+  Ta28  1  0.11888970  0.11254399  0.88861348  1
  Ta5+  Ta29  1  0.37364798  0.37772605  0.12212997  1
  Ta5+  Ta30  1  0.88084524  0.56732481  0.63942584  1
  Ta5+  Ta31  1  0.12916109  0.11532022  0.40066361  1
  Ta5+  Ta32  1  0.38591569  0.87653228  0.37569128  1
  Ta5+  Ta33  1  0.34780930  0.39462658  0.37434691  1
  Ta5+  Ta34  1  0.15429713  0.12165843  0.65281032  1
  Ta5+  Ta35  1  0.37613293  0.11064657  0.12600740  1
  Ta5+  Ta36  1  0.38767510  0.62683306  0.61931179  1
  Ta5+  Ta37  1  0.87924492  0.12336708  0.84863386  1
  Ta5+  Ta38  1  0.10142854  0.86120366  0.89360499  1
  Ta5+  Ta39  1  0.92403454  0.62937124  0.33046129  1
  Ta5+  Ta40  1  0.12480613  0.38210881  0.13526294  1
  Ta5+  Ta41  1  0.94042326  0.89744043  0.86671899  1
  Ta5+  Ta42  1  0.61854860  0.85161910  0.84575037  1
  Ta5+  Ta43  1  0.89345829  0.12011587  0.10990703  1
  Ta5+  Ta44  1  0.33807745  0.87741863  0.84649112  1
  Ta5+  Ta45  1  0.89258305  0.63883391  0.10127191  1
  Ta5+  Ta46  1  0.64221958  0.11115606  0.38799701  1
  Ta5+  Ta47  1  0.60617664  0.85469663  0.10835398  1
  Ta5+  Ta48  1  0.11649283  0.62808784  0.13702540  1
  Ta5+  Ta49  1  0.35696324  0.37214674  0.85858754  1
  Ta5+  Ta50  1  0.45971152  0.12158372  0.60131180  1
  Ta5+  Ta51  1  0.62759641  0.86513577  0.64174890  1
  Ta5+  Ta52  1  0.85692694  0.12111274  0.38458103  1
  Ta5+  Ta53  1  0.14172520  0.38002177  0.39536342  1
  Ta5+  Ta54  1  0.60933635  0.63145246  0.62931719  1
  Ta5+  Ta55  1  0.62601829  0.11582952  0.62893096  1
  Ta5+  Ta56  1  0.61900182  0.38114836  0.12054907  1
  Ta5+  Ta57  1  0.62559700  0.60864944  0.87005630  1
  Ta5+  Ta58  1  0.80350771  0.12724734  0.59888656  1
  Ta5+  Ta59  1  0.60650902  0.37971568  0.62093919  1
  Ta5+  Ta60  1  0.12685548  0.87719850  0.63620503  1
  Ta5+  Ta61  1  0.41640966  0.63408177  0.36937510  1
  Ta5+  Ta62  1  0.33997187  0.12307993  0.81657728  1
  Ta5+  Ta63  1  0.33447744  0.62263175  0.85323627  1
  Ta5+  Ta64  1  0.62030360  0.86498617  0.37838894  1
  Ta5+  Ta65  1  0.91180178  0.88114894  0.36358569  1
  Ta5+  Ta66  1  0.13134606  0.60713812  0.63897191  1
  Ta5+  Ta67  1  0.61967668  0.62968208  0.10812244  1
  Ta5+  Ta68  1  0.82691908  0.39277765  0.59144033  1
  Ta5+  Ta69  1  0.44174446  0.38011342  0.61230519  1
  Ta5+  Ta70  1  0.36531603  0.87305490  0.11210033  1
  Ta5+  Ta71  1  0.65399746  0.09297307  0.88040455  1
  Ta5+  Ta72  1  0.88018238  0.91868128  0.11913356  1
  Ta5+  Ta73  1  0.33752721  0.11576768  0.38409140  1
  Ta5+  Ta74  1  0.86733011  0.39082631  0.11809292  1
  W6+  W75  1  0.12195569  0.88828664  0.14880333  1
  W6+  W76  1  0.66218940  0.38136062  0.38093297  1
  W6+  W77  1  0.36918891  0.62696490  0.10950412  1
  W6+  W78  1  0.11749676  0.61252783  0.36896411  1
  W6+  W79  1  0.62279435  0.10726930  0.08953485  1
  W6+  W80  1  0.37696970  0.88204910  0.63607919  1
  W6+  W81  1  0.87362138  0.38715819  0.38170915  1
  W6+  W82  1  0.06052890  0.11197359  0.14298928  1
  O2-  O83  1  0.14295375  0.00784041  0.15167670  1
  O2-  O84  1  0.11372199  -0.00545861  0.41647279  1
  O2-  O85  1  0.15847109  -0.00112905  0.63411458  1
  O2-  O86  1  0.13156473  -0.00944277  0.87554853  1
  O2-  O87  1  0.09578791  0.50001100  0.12782199  1
  O2-  O88  1  0.08366565  0.48346090  0.39948163  1
  O2-  O89  1  0.17123975  0.48571918  0.64109047  1
  O2-  O90  1  0.14497427  0.49523713  0.89871913  1
  O2-  O91  1  0.33609638  -0.00561394  0.13778715  1
  O2-  O92  1  0.34115806  -0.00857984  0.36714251  1
  O2-  O93  1  0.42430331  0.00738084  0.61704508  1
  O2-  O94  1  0.36410581  0.00811135  0.84425598  1
  O2-  O95  1  0.39568865  0.49322160  0.12515262  1
  O2-  O96  1  0.35588787  0.51269703  0.35729473  1
  O2-  O97  1  0.41385100  0.50029016  0.61878949  1
  O2-  O98  1  0.35032122  0.49113427  0.86123400  1
  O2-  O99  1  0.61640733  -0.02763184  0.09531848  1
  O2-  O100  1  0.66535992  -0.02406495  0.38795877  1
  O2-  O101  1  0.61832165  -0.01749418  0.62366559  1
  O2-  O102  1  0.62356718  -0.02787377  0.87214210  1
  O2-  O103  1  0.60464698  0.50532971  0.11438673  1
  O2-  O104  1  0.67876702  0.51815053  0.36332222  1
  O2-  O105  1  0.60510701  0.51112699  0.62546669  1
  O2-  O106  1  0.55728301  0.50223517  0.89205036  1
  O2-  O107  1  0.80994869  0.01830633  0.12570628  1
  O2-  O108  1  0.90077905  0.00623305  0.36912148  1
  O2-  O109  1  0.80580865  0.00040994  0.61314224  1
  O2-  O110  1  0.95543265  0.02807211  0.84855597  1
  O2-  O111  1  0.89302749  0.51033043  0.11186752  1
  O2-  O112  1  0.87867578  0.52476281  0.36213258  1
  O2-  O113  1  0.77703543  0.50577034  0.62545624  1
  O2-  O114  1  0.92879669  0.51048382  0.87326854  1
  O2-  O115  1  0.12062367  0.24473376  0.16110612  1
  O2-  O116  1  0.11809434  0.25220617  0.38223246  1
  O2-  O117  1  0.18456425  0.25709025  0.65085245  1
  O2-  O118  1  0.09068904  0.24420621  0.87473410  1
  O2-  O119  1  0.12953863  0.75407439  0.16268619  1
  O2-  O120  1  0.15628594  0.74796891  0.37437187  1
  O2-  O121  1  0.11794491  0.74043607  0.61843905  1
  O2-  O122  1  0.10505642  0.72814729  0.89980264  1
  O2-  O123  1  0.33512533  0.23534176  0.12303600  1
  O2-  O124  1  0.32061237  0.25152976  0.38595056  1
  O2-  O125  1  0.41011459  0.24962137  0.60354667  1
  O2-  O126  1  0.39456021  0.23441751  0.86541676  1
  O2-  O127  1  0.31701956  0.75824397  0.10768862  1
  O2-  O128  1  0.33781884  0.75402153  0.38202172  1
  O2-  O129  1  0.33948586  0.74659466  0.62312849  1
  O2-  O130  1  0.36089751  0.75508996  0.84277704  1
  O2-  O131  1  0.65006686  0.24474349  0.11791552  1
  O2-  O132  1  0.64164141  0.23834925  0.35766764  1
  O2-  O133  1  0.62405339  0.24927442  0.64949682  1
  O2-  O134  1  0.66508101  0.22747723  0.86123242  1
  O2-  O135  1  0.68737131  0.74809529  0.09695714  1
  O2-  O136  1  0.68793276  0.75241955  0.36864956  1
  O2-  O137  1  0.69275431  0.73404855  0.63921362  1
  O2-  O138  1  0.69202395  0.74262498  0.86135439  1
  O2-  O139  1  0.84520872  0.24608072  0.11078428  1
  O2-  O140  1  0.90926620  0.24328517  0.39596919  1
  O2-  O141  1  0.82669784  0.25953412  0.59336681  1
  O2-  O142  1  0.84790275  0.25418723  0.86283064  1
  O2-  O143  1  0.86697749  0.77468873  0.10821631  1
  O2-  O144  1  0.86902077  0.74512435  0.35956584  1
  O2-  O145  1  0.86361584  0.78354754  0.61669709  1
  O2-  O146  1  0.89633447  0.76927843  0.87393873  1
  O2-  O147  1  0.08328990  0.11555017  0.00400954  1
  O2-  O148  1  0.05581284  0.11619369  0.29676021  1
  O2-  O149  1  0.09343761  0.14618640  0.53693333  1
  O2-  O150  1  0.08556493  0.12258358  0.75090348  1
  O2-  O151  1  0.18464615  0.62615758  0.03521923  1
  O2-  O152  1  0.18926579  0.60876209  0.24371899  1
  O2-  O153  1  0.16991769  0.61481344  0.51225292  1
  O2-  O154  1  0.13396778  0.62121190  0.76533541  1
  O2-  O155  1  0.37970989  0.11572307  0.00238689  1
  O2-  O156  1  0.38096082  0.14645933  0.26421133  1
  O2-  O157  1  0.42093258  0.12801957  0.47363118  1
  O2-  O158  1  0.43765636  0.14363514  0.73331651  1
  O2-  O159  1  0.39013828  0.63016106  -0.02705701  1
  O2-  O160  1  0.37984791  0.65066758  0.25038583  1
  O2-  O161  1  0.36267170  0.62528635  0.48989230  1
  O2-  O162  1  0.32714932  0.60863425  0.72652673  1
  O2-  O163  1  0.55727147  0.12371360  -0.04241854  1
  O2-  O164  1  0.55450781  0.10141613  0.30627936  1
  O2-  O165  1  0.58624204  0.12064516  0.50084522  1
  O2-  O166  1  0.60774075  0.11064528  0.76078813  1
  O2-  O167  1  0.57964618  0.65400376  -0.01103619  1
  O2-  O168  1  0.63315800  0.64887989  0.23935624  1
  O2-  O169  1  0.64765333  0.64210597  0.49546971  1
  O2-  O170  1  0.58537225  0.64660587  0.75233121  1
  O2-  O171  1  0.89395407  0.12719655  -0.01490081  1
  O2-  O172  1  0.88728615  0.15512964  0.24841834  1
  O2-  O173  1  0.90958822  0.11514548  0.50933734  1
  O2-  O174  1  0.86503699  0.14279366  0.71863996  1
  O2-  O175  1  0.82893089  0.63552663  -0.00750360  1
  O2-  O176  1  0.84224770  0.64007170  0.22134258  1
  O2-  O177  1  0.86184722  0.63572860  0.53564859  1
  O2-  O178  1  0.86784735  0.62373289  0.75636870  1
  O2-  O179  1  0.09346144  0.36124126  0.01213195  1
  O2-  O180  1  0.08695454  0.37742418  0.25944298  1
  O2-  O181  1  0.09670545  0.34607724  0.52535967  1
  O2-  O182  1  0.07610203  0.38420768  0.76239123  1
  O2-  O183  1  0.10987039  0.87078957  0.01984424  1
  O2-  O184  1  0.18935168  0.88312246  0.27842744  1
  O2-  O185  1  0.17113855  0.86347478  0.50866118  1
  O2-  O186  1  0.11501268  0.85436692  0.75706426  1
  O2-  O187  1  0.37909305  0.35934576  -0.01134338  1
  O2-  O188  1  0.39485008  0.35058739  0.25550266  1
  O2-  O189  1  0.41529080  0.37663080  0.47932354  1
  O2-  O190  1  0.42499616  0.36105778  0.75065979  1
  O2-  O191  1  0.36258327  0.87861464  -0.02009944  1
  O2-  O192  1  0.36935126  0.85563368  0.24707930  1
  O2-  O193  1  0.37086975  0.87110708  0.50079081  1
  O2-  O194  1  0.28616624  0.88645849  0.73079294  1
  O2-  O195  1  0.64220868  0.37103045  -0.01025975  1
  O2-  O196  1  0.59979461  0.36681624  0.24922881  1
  O2-  O197  1  0.60296288  0.36742166  0.49515772  1
  O2-  O198  1  0.64762597  0.37985901  0.75664879  1
  O2-  O199  1  0.59263719  0.83302054  -0.02652036  1
  O2-  O200  1  0.62905556  0.85198463  0.24168858  1
  O2-  O201  1  0.63450324  0.83887470  0.50776430  1
  O2-  O202  1  0.70769261  0.87670689  0.74219157  1
  O2-  O203  1  0.87549172  0.37020877  -0.00830448  1
  O2-  O204  1  0.91337392  0.36609618  0.23488494  1
  O2-  O205  1  0.92775049  0.38792130  0.51747629  1
  O2-  O206  1  0.84976025  0.38036316  0.72805161  1
  O2-  O207  1  0.89067032  0.90732662  -0.00905793  1
  O2-  O208  1  0.84571246  0.88148716  0.25040530  1
  O2-  O209  1  0.84811793  0.87675951  0.47851910  1
  O2-  O210  1  0.89449919  0.89472655  0.74172028  1
  O2-  O211  1  -0.03297668  0.00380026  0.13921615  1
  O2-  O212  1  0.01996617  -0.11463504  0.29086361  1
  O2-  O213  1  0.00624054  -0.16758651  0.44146188  1
  O2-  O214  1  0.01069690  -0.10474907  0.60615992  1
  O2-  O215  1  0.00680491  0.65283736  0.06983289  1
  O2-  O216  1  0.01968563  0.62113562  0.25324296  1
  O2-  O217  1  0.00233353  0.64584448  0.42992878  1
  O2-  O218  1  0.01078762  0.58894305  0.63113036  1
  O2-  O219  1  0.23728748  0.14132351  -0.11256397  1
  O2-  O220  1  0.22180741  0.11645279  0.31444660  1
  O2-  O221  1  0.24473189  0.12571923  0.47979451  1
  O2-  O222  1  0.26681368  0.12026794  0.71294821  1
  O2-  O223  1  0.24629322  0.38247048  0.12685223  1
  O2-  O224  1  0.23582180  0.38069816  0.30642391  1
  O2-  O225  1  0.24693766  0.39229402  0.46879059  1
  O2-  O226  1  0.23904159  0.34378766  0.85558589  1
  O2-  O227  1  0.49595372  0.14558731  0.13653136  1
  O2-  O228  1  0.48453462  -0.15896151  0.11078168  1
  O2-  O229  1  0.50405370  -0.10403859  0.37327798  1
  O2-  O230  1  0.54751551  -0.16433223  0.73481651  1
  O2-  O231  1  0.49577923  0.33280571  0.11267511  1
  O2-  O232  1  0.51241450  0.71433429  0.37758354  1
  O2-  O233  1  0.51290123  0.55259885  0.37255116  1
  O2-  O234  1  0.50048147  0.67289900  0.59791978  1
  O2-  O235  1  0.71655150  0.11903444  -0.00302708  1
  O2-  O236  1  0.74962247  0.10819237  0.31111220  1
  O2-  O237  1  0.75895083  0.13249377  0.46892514  1
  O2-  O238  1  0.77340508  0.06825627  0.84394380  1
  O2-  O239  1  0.74690522  0.39155750  0.12883355  1
  O2-  O240  1  0.76644318  0.35613269  0.30818085  1
  O2-  O241  1  0.76958808  0.38942339  0.47311677  1
  O2-  O242  1  0.71176730  0.54546785  0.78607414  1
