# generated using pymatgen
data_Gd19Ta56(WO20)8
_symmetry_space_group_name_H-M   'P 1'
_cell_length_a   15.50605533
_cell_length_b   15.50723779
_cell_length_c   15.40356528
_cell_angle_alpha   90.19474200
_cell_angle_beta   89.91045051
_cell_angle_gamma   90.28100509
_symmetry_Int_Tables_number   1
_chemical_formula_structural   Gd19Ta56(WO20)8
_chemical_formula_sum   'Gd19 Ta56 W8 O160'
_cell_volume   3703.81066735
_cell_formula_units_Z   1
loop_
 _symmetry_equiv_pos_site_id
 _symmetry_equiv_pos_as_xyz
  1  'x, y, z'
loop_
 _atom_type_symbol
 _atom_type_oxidation_number
  Gd3+  3.0
  Ta5+  5.0
  W6+  6.0
  O2-  -2.0
loop_
 _atom_site_type_symbol
 _atom_site_label
 _atom_site_symmetry_multiplicity
 _atom_site_fract_x
 _atom_site_fract_y
 _atom_site_fract_z
 _atom_site_occupancy
  Gd3+  Gd0  1  0.71409906  0.76058011  0.25441099  1
  Gd3+  Gd1  1  0.52009643  0.25060257  0.73304644  1
  Gd3+  Gd2  1  0.24295857  0.24031617  0.50180736  1
  Gd3+  Gd3  1  0.48256640  0.73503399  -0.00603070  1
  Gd3+  Gd4  1  0.02470533  0.26808236  0.74378454  1
  Gd3+  Gd5  1  0.76914003  0.24563413  0.26060292  1
  Gd3+  Gd6  1  -0.01052663  0.77963575  0.01322497  1
  Gd3+  Gd7  1  0.04058464  0.75505682  0.30719814  1
  Gd3+  Gd8  1  0.70496086  0.77996959  0.49847148  1
  Gd3+  Gd9  1  0.27427720  0.24857946  0.75767297  1
  Gd3+  Gd10  1  0.77101905  0.76755154  0.02664209  1
  Gd3+  Gd11  1  0.24576169  0.75440106  0.00398418  1
  Gd3+  Gd12  1  0.74316721  0.25046901  0.50026503  1
  Gd3+  Gd13  1  -0.00596139  0.25133702  0.49742482  1
  Gd3+  Gd14  1  0.49099504  0.24365233  -0.02647013  1
  Gd3+  Gd15  1  0.45841741  0.73344109  0.51432455  1
  Gd3+  Gd16  1  0.27918852  0.74718914  0.24545559  1
  Gd3+  Gd17  1  0.77535833  0.23814963  0.00837413  1
  Gd3+  Gd18  1  0.22317543  0.23911931  0.01824378  1
  Ta5+  Ta19  1  0.90050215  0.39926250  0.32742557  1
  Ta5+  Ta20  1  0.65429708  0.38352827  0.86612313  1
  Ta5+  Ta21  1  0.61565133  0.38591983  0.37304365  1
  Ta5+  Ta22  1  0.60780956  0.61218318  0.12766898  1
  Ta5+  Ta23  1  0.32679493  0.60012427  0.61882673  1
  Ta5+  Ta24  1  0.37463880  0.12153234  0.37114542  1
  Ta5+  Ta25  1  0.36878066  0.60128957  0.12344038  1
  Ta5+  Ta26  1  0.38736905  0.36950610  0.12183763  1
  Ta5+  Ta27  1  0.63512213  0.63036512  0.87893973  1
  Ta5+  Ta28  1  0.87375161  0.10592521  0.62146458  1
  Ta5+  Ta29  1  0.17137423  0.06054040  0.63221975  1
  Ta5+  Ta30  1  0.90397064  0.38923925  0.11979033  1
  Ta5+  Ta31  1  0.11153357  0.10985815  0.37597126  1
  Ta5+  Ta32  1  0.80133655  0.64779831  0.63094412  1
  Ta5+  Ta33  1  0.13094314  0.12080053  0.86974975  1
  Ta5+  Ta34  1  0.12267122  0.88645781  0.13783759  1
  Ta5+  Ta35  1  0.58202688  0.63196494  0.37855151  1
  Ta5+  Ta36  1  0.37943322  0.36291208  0.37031850  1
  Ta5+  Ta37  1  0.31761474  0.85670527  0.61565601  1
  Ta5+  Ta38  1  0.88041108  0.90295515  0.18742379  1
  Ta5+  Ta39  1  0.87962836  0.07480596  0.37551601  1
  Ta5+  Ta40  1  0.63142995  0.38028903  0.12114815  1
  Ta5+  Ta41  1  0.11889057  0.63087074  0.13553890  1
  Ta5+  Ta42  1  0.63617872  0.12008566  0.87437801  1
  Ta5+  Ta43  1  0.62515292  0.89578244  0.12273357  1
  Ta5+  Ta44  1  0.10615404  0.64185646  0.87255842  1
  Ta5+  Ta45  1  0.18435692  0.62848809  0.39402704  1
  Ta5+  Ta46  1  0.60391788  0.12209525  0.36922647  1
  Ta5+  Ta47  1  0.13063156  0.38985789  0.37395768  1
  Ta5+  Ta48  1  0.35475921  0.60804257  0.38009810  1
  Ta5+  Ta49  1  0.55823968  0.87770531  0.36987155  1
  Ta5+  Ta50  1  0.86915705  0.88012079  0.85677625  1
  Ta5+  Ta51  1  0.88956088  0.12398264  0.86939574  1
  Ta5+  Ta52  1  0.85851708  0.89186919  0.39499957  1
  Ta5+  Ta53  1  0.37559042  0.85386818  0.85513162  1
  Ta5+  Ta54  1  0.14314219  0.40352570  0.88465708  1
  Ta5+  Ta55  1  0.14885101  0.86591454  0.61389286  1
  Ta5+  Ta56  1  0.37047746  0.12044749  0.11996585  1
  Ta5+  Ta57  1  0.38475073  0.10046399  0.86202988  1
  Ta5+  Ta58  1  0.92280770  0.13187447  0.13347665  1
  Ta5+  Ta59  1  0.86488939  0.41238456  0.63677955  1
  Ta5+  Ta60  1  0.13242184  0.87694852  0.86362622  1
  Ta5+  Ta61  1  0.55581102  0.88192009  0.63042340  1
  Ta5+  Ta62  1  0.62619805  0.11358856  0.61790960  1
  Ta5+  Ta63  1  0.89626731  0.38168061  0.87922063  1
  Ta5+  Ta64  1  0.20161791  0.88855390  0.38257996  1
  Ta5+  Ta65  1  0.38077660  0.87288003  0.37588455  1
  Ta5+  Ta66  1  0.62891408  0.87532208  0.86826542  1
  Ta5+  Ta67  1  0.61320401  0.13885817  0.13126966  1
  Ta5+  Ta68  1  0.89378361  0.86459371  0.60992390  1
  Ta5+  Ta69  1  0.38425348  0.87349319  0.11996060  1
  Ta5+  Ta70  1  0.15854497  0.40281846  0.62246154  1
  Ta5+  Ta71  1  0.63199669  0.63350775  0.63182185  1
  Ta5+  Ta72  1  0.37968911  0.41494681  0.86827449  1
  Ta5+  Ta73  1  0.38890285  0.06381931  0.61353556  1
  Ta5+  Ta74  1  0.37715582  0.39971008  0.61753610  1
  W6+  W75  1  0.87576198  0.63496366  0.87501791  1
  W6+  W76  1  0.08367636  0.12566430  0.12776279  1
  W6+  W77  1  0.08210100  0.62853860  0.62124808  1
  W6+  W78  1  0.34610934  0.60238122  0.86504979  1
  W6+  W79  1  0.84284822  0.64049479  0.37632872  1
  W6+  W80  1  0.62454224  0.38194536  0.61798592  1
  W6+  W81  1  0.88240064  0.63861983  0.15950977  1
  W6+  W82  1  0.10775913  0.37859254  0.14549020  1
  O2-  O83  1  0.13908085  0.00243546  0.13083302  1
  O2-  O84  1  0.19010860  0.01953953  0.36210566  1
  O2-  O85  1  0.08067219  -0.01269716  0.63937942  1
  O2-  O86  1  0.11330057  -0.00145837  0.87229895  1
  O2-  O87  1  0.09634646  0.51579026  0.14550742  1
  O2-  O88  1  0.14085218  0.50739264  0.36461145  1
  O2-  O89  1  0.07688625  0.48749813  0.62625348  1
  O2-  O90  1  0.10499807  0.51586372  0.89310184  1
  O2-  O91  1  0.37674901  -0.00214594  0.10900819  1
  O2-  O92  1  0.38138084  0.00375229  0.37967625  1
  O2-  O93  1  0.44211027  -0.04541242  0.62803797  1
  O2-  O94  1  0.38524316  -0.01922331  0.87500818  1
  O2-  O95  1  0.33298253  0.47793239  0.11124062  1
  O2-  O96  1  0.34094589  0.47544570  0.36966291  1
  O2-  O97  1  0.42318176  0.51048880  0.63269094  1
  O2-  O98  1  0.26995732  0.46536913  0.87784569  1
  O2-  O99  1  0.60793779  0.01536429  0.11877248  1
  O2-  O100  1  0.57983375  0.00399422  0.36338557  1
  O2-  O101  1  0.62061876  -0.00892210  0.62079456  1
  O2-  O102  1  0.64141714  0.00094589  0.88983596  1
  O2-  O103  1  0.66373946  0.49977955  0.11582923  1
  O2-  O104  1  0.59639932  0.50514456  0.37895986  1
  O2-  O105  1  0.63432607  0.51547659  0.62261191  1
  O2-  O106  1  0.65176112  0.50450781  0.87982240  1
  O2-  O107  1  0.88291595  0.01713072  0.13301122  1
  O2-  O108  1  0.80916735  -0.00057466  0.44632839  1
  O2-  O109  1  0.90302980  -0.00717699  0.59877210  1
  O2-  O110  1  0.90293845  0.00014881  0.88054921  1
  O2-  O111  1  0.88948098  0.50643947  0.12440454  1
  O2-  O112  1  0.87290702  0.50392360  0.37161458  1
  O2-  O113  1  0.84337564  0.52634980  0.61239082  1
  O2-  O114  1  0.89033422  0.50032182  0.87848864  1
  O2-  O115  1  0.13058900  0.24838530  0.12583875  1
  O2-  O116  1  0.12412202  0.23616145  0.40777010  1
  O2-  O117  1  0.09233357  0.29592858  0.61087943  1
  O2-  O118  1  0.17844405  0.24929923  0.87188246  1
  O2-  O119  1  0.06752925  0.74961612  0.15285414  1
  O2-  O120  1  0.18736643  0.75957881  0.39032805  1
  O2-  O121  1  0.10358764  0.75737135  0.60595234  1
  O2-  O122  1  0.07269420  0.76694042  0.88042389  1
  O2-  O123  1  0.33975797  0.25292794  0.11326309  1
  O2-  O124  1  0.32014350  0.24797533  0.37494488  1
  O2-  O125  1  0.27040866  0.30932304  0.62898133  1
  O2-  O126  1  0.40498392  0.23884594  0.84037242  1
  O2-  O127  1  0.38823187  0.73549153  0.12986672  1
  O2-  O128  1  0.37291173  0.73729316  0.37554693  1
  O2-  O129  1  0.33482241  0.72414419  0.60963641  1
  O2-  O130  1  0.40583846  0.73195571  0.86297284  1
  O2-  O131  1  0.68262447  0.25819164  0.13315912  1
  O2-  O132  1  0.66110784  0.25097722  0.37089425  1
  O2-  O133  1  0.62597871  0.24206810  0.61454216  1
  O2-  O134  1  0.59922229  0.25573586  0.86765709  1
  O2-  O135  1  0.65223596  0.73315854  0.11622340  1
  O2-  O136  1  0.61793680  0.75831026  0.37394804  1
  O2-  O137  1  0.61318913  0.77272702  0.62743481  1
  O2-  O138  1  0.58993447  0.75723481  0.89030441  1
  O2-  O139  1  0.86682194  0.25427905  0.13079453  1
  O2-  O140  1  0.83777883  0.30930440  0.38538700  1
  O2-  O141  1  0.96087025  0.19350448  0.63296476  1
  O2-  O142  1  0.89166264  0.25183950  0.85859050  1
  O2-  O143  1  0.85339741  0.77822131  0.15784929  1
  O2-  O144  1  0.80280641  0.77727209  0.37474515  1
  O2-  O145  1  0.80405481  0.78226421  0.61985873  1
  O2-  O146  1  0.90883668  0.76553967  0.86939347  1
  O2-  O147  1  0.11765693  0.13390093  -0.00941207  1
  O2-  O148  1  0.07699856  0.12382067  0.26412021  1
  O2-  O149  1  0.15591004  0.11496666  0.52302848  1
  O2-  O150  1  0.15780469  0.14160330  0.73183374  1
  O2-  O151  1  0.09306718  0.65635481  0.01059018  1
  O2-  O152  1  0.15322052  0.65539952  0.26186279  1
  O2-  O153  1  0.14001447  0.62056211  0.50540678  1
  O2-  O154  1  0.07902267  0.63289015  0.75649510  1
  O2-  O155  1  0.35903444  0.14181239  -0.01436282  1
  O2-  O156  1  0.37080604  0.12522350  0.24488054  1
  O2-  O157  1  0.35165233  0.12769268  0.50854166  1
  O2-  O158  1  0.49670883  0.12935412  0.62471882  1
  O2-  O159  1  0.37491114  0.62772387  -0.00177988  1
  O2-  O160  1  0.34809457  0.61222296  0.24608764  1
  O2-  O161  1  0.38908862  0.60130424  0.50156273  1
  O2-  O162  1  0.30906280  0.59852472  0.73784768  1
  O2-  O163  1  0.63924113  0.15755182  0.00525651  1
  O2-  O164  1  0.65883091  0.12978214  0.25081848  1
  O2-  O165  1  0.64454298  0.12323883  0.48668818  1
  O2-  O166  1  0.62309151  0.12722450  0.75020651  1
  O2-  O167  1  0.57977223  0.62074607  -0.00471714  1
  O2-  O168  1  0.60290419  0.63327061  0.24945602  1
  O2-  O169  1  0.59001946  0.64987591  0.50568483  1
  O2-  O170  1  0.61148891  0.63915263  0.76092225  1
  O2-  O171  1  0.89603982  0.14284366  0.00075460  1
  O2-  O172  1  0.88184884  0.14747096  0.26788678  1
  O2-  O173  1  0.86785498  0.16110810  0.49139142  1
  O2-  O174  1  0.86497553  0.10587802  0.74549773  1
  O2-  O175  1  0.88985319  0.66817344  0.02067325  1
  O2-  O176  1  0.93986800  0.65761389  0.28244697  1
  O2-  O177  1  0.79050040  0.65634329  0.49494422  1
  O2-  O178  1  0.83293298  0.64509740  0.74755370  1
  O2-  O179  1  0.17600451  0.37632099  -0.00002286  1
  O2-  O180  1  0.17886664  0.35867059  0.26905477  1
  O2-  O181  1  0.17783313  0.37956903  0.49083161  1
  O2-  O182  1  0.15948483  0.37446883  0.75449215  1
  O2-  O183  1  0.12680379  0.85525778  0.01015530  1
  O2-  O184  1  0.14301394  0.86804253  0.26344526  1
  O2-  O185  1  0.15880460  0.90789839  0.49353040  1
  O2-  O186  1  0.14099868  0.86910802  0.74531699  1
  O2-  O187  1  0.39038909  0.35706930  -0.01974711  1
  O2-  O188  1  0.39371805  0.36115234  0.24307028  1
  O2-  O189  1  0.36192423  0.36034023  0.49947264  1
  O2-  O190  1  0.48616571  0.34406492  0.62311931  1
  O2-  O191  1  0.36769197  0.84043398  -0.00732233  1
  O2-  O192  1  0.38163511  0.87063692  0.24284885  1
  O2-  O193  1  0.37358327  0.86028634  0.50394971  1
  O2-  O194  1  0.34734787  0.85977285  0.73838478  1
  O2-  O195  1  0.65583041  0.35597079  -0.00686887  1
  O2-  O196  1  0.63135988  0.37680011  0.24822607  1
  O2-  O197  1  0.67033429  0.37863635  0.48378868  1
  O2-  O198  1  0.59343158  0.37795000  0.75790013  1
  O2-  O199  1  0.66105873  0.86881583  0.00163301  1
  O2-  O200  1  0.59465441  0.86319523  0.24059102  1
  O2-  O201  1  0.55840728  0.87222824  0.49966963  1
  O2-  O202  1  0.57234963  0.88817764  0.76161450  1
  O2-  O203  1  0.84809979  0.36669208  -0.00299985  1
  O2-  O204  1  0.81688692  0.38304818  0.23058467  1
  O2-  O205  1  0.92593284  0.36565258  0.54743689  1
  O2-  O206  1  0.92378460  0.37899261  0.74111689  1
  O2-  O207  1  0.86751907  0.86849192  -0.01133749  1
  O2-  O208  1  0.94170153  0.86005459  0.29241399  1
  O2-  O209  1  0.92594122  0.84394641  0.49169049  1
  O2-  O210  1  0.90635569  0.88247238  0.73774658  1
  O2-  O211  1  -0.00627147  -0.10814664  0.12913991  1
  O2-  O212  1  -0.16181062  -0.02239876  0.29127057  1
  O2-  O213  1  -0.00179295  0.09282269  0.42500150  1
  O2-  O214  1  0.01465975  0.14633598  0.83468957  1
  O2-  O215  1  0.00530279  0.37291995  0.05803027  1
  O2-  O216  1  -0.01777452  0.38110613  0.22768325  1
  O2-  O217  1  0.00950347  0.36806909  0.39389929  1
  O2-  O218  1  0.02516445  0.35973040  0.87506224  1
  O2-  O219  1  0.24934688  -0.14758262  -0.11593003  1
  O2-  O220  1  0.24999989  -0.15685811  0.12875563  1
  O2-  O221  1  0.27181802  -0.01181999  0.61031344  1
  O2-  O222  1  0.35839788  0.09971159  0.73410632  1
  O2-  O223  1  0.22451449  0.66510297  -0.11437067  1
  O2-  O224  1  0.24053502  0.64479695  0.11090113  1
  O2-  O225  1  0.26286284  0.47809433  0.61121748  1
  O2-  O226  1  0.36463136  0.37530163  0.74958086  1
  O2-  O227  1  0.49466067  0.15887999  0.10368989  1
  O2-  O228  1  0.50644301  -0.13994450  0.08727841  1
  O2-  O229  1  0.49136265  0.16636894  0.38503485  1
  O2-  O230  1  0.50828254  0.11434294  0.89490189  1
  O2-  O231  1  0.51266849  0.34646835  0.10218896  1
  O2-  O232  1  0.48993387  0.57508956  0.13292554  1
  O2-  O233  1  0.50004856  0.35008452  0.38807155  1
  O2-  O234  1  0.45251814  0.50747975  0.86636109  1
  O2-  O235  1  0.74874860  -0.13584623  -0.16145040  1
  O2-  O236  1  0.74697898  -0.10494782  0.15746220  1
  O2-  O237  1  0.75348165  0.12894428  0.61494867  1
  O2-  O238  1  0.76023491  0.14223703  0.88637442  1
  O2-  O239  1  0.74306025  0.67194060  -0.08629539  1
  O2-  O240  1  0.78578872  0.63349421  0.25328709  1
  O2-  O241  1  0.76400705  0.34833256  0.62873300  1
  O2-  O242  1  0.76892457  0.36581226  0.84031434  1
