# generated using pymatgen
data_Gd19Ta56(WO20)8
_symmetry_space_group_name_H-M   'P 1'
_cell_length_a   15.50326736
_cell_length_b   15.51927015
_cell_length_c   15.35672032
_cell_angle_alpha   90.10582586
_cell_angle_beta   89.94684786
_cell_angle_gamma   90.01130343
_symmetry_Int_Tables_number   1
_chemical_formula_structural   Gd19Ta56(WO20)8
_chemical_formula_sum   'Gd19 Ta56 W8 O160'
_cell_volume   3694.80964456
_cell_formula_units_Z   1
loop_
 _symmetry_equiv_pos_site_id
 _symmetry_equiv_pos_as_xyz
  1  'x, y, z'
loop_
 _atom_type_symbol
 _atom_type_oxidation_number
  Gd3+  3.0
  Ta5+  5.0
  W6+  6.0
  O2-  -2.0
loop_
 _atom_site_type_symbol
 _atom_site_label
 _atom_site_symmetry_multiplicity
 _atom_site_fract_x
 _atom_site_fract_y
 _atom_site_fract_z
 _atom_site_occupancy
  Gd3+  Gd0  1  0.48277500  0.74402169  0.25229465  1
  Gd3+  Gd1  1  0.00377901  0.26198819  0.01148462  1
  Gd3+  Gd2  1  0.22110116  0.77277939  0.50777812  1
  Gd3+  Gd3  1  0.50461925  0.23940357  0.50078470  1
  Gd3+  Gd4  1  0.77025495  0.24977944  0.73384869  1
  Gd3+  Gd5  1  0.25303386  0.24495344  0.49701797  1
  Gd3+  Gd6  1  -0.00202706  0.25955024  0.49872365  1
  Gd3+  Gd7  1  0.77897041  0.73606042  -0.00818799  1
  Gd3+  Gd8  1  -0.00214289  0.24950960  0.24965626  1
  Gd3+  Gd9  1  0.49635242  0.74258265  0.74279615  1
  Gd3+  Gd10  1  0.45042836  0.74728026  -0.00177296  1
  Gd3+  Gd11  1  0.49931968  0.25082767  0.25788228  1
  Gd3+  Gd12  1  0.76803173  0.23997584  0.24883423  1
  Gd3+  Gd13  1  0.23145348  0.24928136  0.25108322  1
  Gd3+  Gd14  1  0.24036863  0.25593091  0.75353880  1
  Gd3+  Gd15  1  0.01518976  0.74799319  0.21180398  1
  Gd3+  Gd16  1  0.49339758  0.25846664  0.00810795  1
  Gd3+  Gd17  1  0.48266049  0.24754104  0.76004216  1
  Gd3+  Gd18  1  0.75584945  0.23824429  0.48397356  1
  Ta5+  Ta19  1  0.62435083  0.10558025  0.37956658  1
  Ta5+  Ta20  1  0.86078250  0.37982765  0.12195989  1
  Ta5+  Ta21  1  0.33803496  0.38593118  0.13414158  1
  Ta5+  Ta22  1  0.11874677  0.38620797  0.87897311  1
  Ta5+  Ta23  1  0.88163984  0.12032457  0.86717777  1
  Ta5+  Ta24  1  0.16960045  0.62804609  0.63582468  1
  Ta5+  Ta25  1  0.91775125  0.85785126  0.62166496  1
  Ta5+  Ta26  1  0.10275353  0.41347984  0.62980332  1
  Ta5+  Ta27  1  0.35970046  0.38456686  0.88440173  1
  Ta5+  Ta28  1  0.89851714  0.42859041  0.62425724  1
  Ta5+  Ta29  1  0.13234113  0.87417571  0.88642211  1
  Ta5+  Ta30  1  0.60888754  0.38302059  0.63138009  1
  Ta5+  Ta31  1  0.64038162  0.12500767  0.87553585  1
  Ta5+  Ta32  1  0.87153571  0.87350367  0.11940639  1
  Ta5+  Ta33  1  0.37199900  0.11207412  0.12187986  1
  Ta5+  Ta34  1  0.87399818  0.39577240  0.37668472  1
  Ta5+  Ta35  1  0.11149508  0.10715700  0.38757622  1
  Ta5+  Ta36  1  0.62813691  0.11768745  0.12344269  1
  Ta5+  Ta37  1  0.34821630  0.86856523  0.63892444  1
  Ta5+  Ta38  1  0.11590167  0.11593769  0.62901359  1
  Ta5+  Ta39  1  0.63580049  0.63044417  0.62328145  1
  Ta5+  Ta40  1  0.65303651  0.37834506  0.12503151  1
  Ta5+  Ta41  1  0.86885967  0.38493652  0.87054503  1
  Ta5+  Ta42  1  0.08823560  0.86740889  0.63794461  1
  Ta5+  Ta43  1  0.63169389  0.38090769  0.87702443  1
  Ta5+  Ta44  1  0.89711691  0.10117234  0.37481413  1
  Ta5+  Ta45  1  0.11191792  0.12637778  0.87666818  1
  Ta5+  Ta46  1  0.89951018  0.87177176  0.87354158  1
  Ta5+  Ta47  1  0.33751364  0.63365560  0.62844428  1
  Ta5+  Ta48  1  0.16460907  0.10284387  0.10255787  1
  Ta5+  Ta49  1  0.16293728  0.63465004  0.37029119  1
  Ta5+  Ta50  1  0.35248589  0.88254127  0.87420679  1
  Ta5+  Ta51  1  0.37531940  0.38657665  0.38480099  1
  Ta5+  Ta52  1  0.16617727  0.62785827  0.12909267  1
  Ta5+  Ta53  1  0.59256391  0.87847388  0.87955370  1
  Ta5+  Ta54  1  0.16997941  0.87365869  0.13096977  1
  Ta5+  Ta55  1  0.33246317  0.63175052  0.37261139  1
  Ta5+  Ta56  1  0.33798921  0.12450750  0.90443036  1
  Ta5+  Ta57  1  0.90476918  0.63969149  0.35730641  1
  Ta5+  Ta58  1  0.09268179  0.87346015  0.37432624  1
  Ta5+  Ta59  1  0.33357715  0.62036209  0.12663128  1
  Ta5+  Ta60  1  0.12553087  0.38815089  0.38137919  1
  Ta5+  Ta61  1  0.88731972  0.65615536  0.61238362  1
  Ta5+  Ta62  1  0.39900614  0.39275620  0.63032465  1
  Ta5+  Ta63  1  0.64327406  0.85583022  0.37577922  1
  Ta5+  Ta64  1  0.88447839  0.10191060  0.61373397  1
  Ta5+  Ta65  1  0.92345347  0.85999729  0.37465153  1
  Ta5+  Ta66  1  0.62704251  0.86898753  0.12193801  1
  Ta5+  Ta67  1  0.59399556  0.61934308  0.10526267  1
  Ta5+  Ta68  1  0.33743942  0.63047588  0.86702484  1
  Ta5+  Ta69  1  0.37177038  0.11144898  0.37827003  1
  Ta5+  Ta70  1  0.62822552  0.38549082  0.37873144  1
  Ta5+  Ta71  1  0.33830786  0.87245981  0.13140052  1
  Ta5+  Ta72  1  0.39173156  0.10992108  0.63798978  1
  Ta5+  Ta73  1  0.60494003  0.10708333  0.63545691  1
  Ta5+  Ta74  1  0.12998045  0.40300944  0.13190798  1
  W6+  W75  1  0.58605425  0.61872041  0.88772660  1
  W6+  W76  1  0.91127485  0.62416457  0.85790210  1
  W6+  W77  1  0.63504530  0.63429312  0.36983332  1
  W6+  W78  1  0.12696658  0.63194523  0.88455805  1
  W6+  W79  1  0.35715614  0.86536546  0.37899114  1
  W6+  W80  1  0.88701603  0.11188591  0.11816832  1
  W6+  W81  1  0.64339258  0.86062298  0.62303361  1
  W6+  W82  1  0.93579327  0.61655298  0.08140010  1
  O2-  O83  1  0.12502742  -0.00026151  0.14097541  1
  O2-  O84  1  0.14066599  -0.00786507  0.37300900  1
  O2-  O85  1  0.10612636  -0.00111833  0.63059207  1
  O2-  O86  1  0.12367522  0.00985229  0.88205286  1
  O2-  O87  1  0.09381578  0.51531651  0.14228888  1
  O2-  O88  1  0.14568520  0.50284466  0.37329164  1
  O2-  O89  1  0.18574184  0.49820020  0.60913026  1
  O2-  O90  1  0.10106616  0.50150332  0.86934218  1
  O2-  O91  1  0.38878031  -0.00637996  0.12651411  1
  O2-  O92  1  0.35034791  -0.00301567  0.37661553  1
  O2-  O93  1  0.34573962  -0.00000262  0.64093349  1
  O2-  O94  1  0.32778188  0.01054497  0.87237206  1
  O2-  O95  1  0.37724105  0.49978230  0.11701743  1
  O2-  O96  1  0.35044870  0.50202331  0.37825903  1
  O2-  O97  1  0.37494665  0.50819595  0.62771689  1
  O2-  O98  1  0.35742656  0.50195150  0.87382711  1
  O2-  O99  1  0.61232091  -0.00361980  0.11611888  1
  O2-  O100  1  0.63340935  -0.01377470  0.37428696  1
  O2-  O101  1  0.65054352  -0.00188292  0.63134774  1
  O2-  O102  1  0.62211108  0.00748411  0.87204155  1
  O2-  O103  1  0.62137999  0.49480863  0.11621856  1
  O2-  O104  1  0.65452043  0.49879043  0.37028807  1
  O2-  O105  1  0.63470244  0.50038433  0.63134400  1
  O2-  O106  1  0.57666875  0.48229064  0.86560367  1
  O2-  O107  1  0.91709970  -0.01683138  0.11361655  1
  O2-  O108  1  0.88226541  -0.01587408  0.36373507  1
  O2-  O109  1  0.90852816  -0.01453840  0.61319506  1
  O2-  O110  1  0.89143052  0.00219326  0.87431422  1
  O2-  O111  1  0.89666048  0.49081861  0.10966088  1
  O2-  O112  1  0.86660628  0.51351031  0.36540474  1
  O2-  O113  1  0.84078421  0.53484844  0.61222701  1
  O2-  O114  1  0.92553332  0.48517738  0.84735552  1
  O2-  O115  1  0.01134478  0.34919702  0.13171860  1
  O2-  O116  1  0.09821305  0.24168751  0.38258006  1
  O2-  O117  1  0.18532399  0.23359840  0.62403642  1
  O2-  O118  1  0.06778668  0.26623911  0.87537198  1
  O2-  O119  1  0.14005085  0.75222109  0.11914182  1
  O2-  O120  1  0.15277415  0.76346989  0.37507469  1
  O2-  O121  1  0.12975602  0.75083747  0.63125159  1
  O2-  O122  1  0.16278663  0.75771232  0.88836650  1
  O2-  O123  1  0.40314409  0.24350538  0.12685309  1
  O2-  O124  1  0.39699710  0.25019200  0.39029324  1
  O2-  O125  1  0.40557945  0.24733822  0.62537774  1
  O2-  O126  1  0.39812210  0.25038143  0.88444220  1
  O2-  O127  1  0.37826584  0.74475736  0.12900992  1
  O2-  O128  1  0.39511868  0.74027105  0.37526612  1
  O2-  O129  1  0.39204150  0.75166046  0.63199804  1
  O2-  O130  1  0.35358949  0.75679569  0.86702122  1
  O2-  O131  1  0.59152109  0.25096150  0.12910173  1
  O2-  O132  1  0.60098422  0.24623350  0.38146547  1
  O2-  O133  1  0.59441244  0.24476442  0.63083986  1
  O2-  O134  1  0.58714654  0.25151790  0.86822086  1
  O2-  O135  1  0.56304093  0.75825434  0.10556766  1
  O2-  O136  1  0.57265541  0.75684256  0.37612924  1
  O2-  O137  1  0.57893108  0.74113991  0.61942085  1
  O2-  O138  1  0.55600540  0.75276887  0.88936248  1
  O2-  O139  1  0.88105845  0.24957022  0.13490782  1
  O2-  O140  1  0.89364764  0.24369639  0.39469081  1
  O2-  O141  1  0.83001870  0.22536883  0.60777509  1
  O2-  O142  1  0.87470487  0.26011330  0.83994446  1
  O2-  O143  1  0.91655316  0.75925560  0.08627257  1
  O2-  O144  1  0.97933999  0.74261474  0.35861146  1
  O2-  O145  1  0.82951175  0.75988186  0.62285531  1
  O2-  O146  1  0.86300100  0.75161408  0.87270216  1
  O2-  O147  1  0.09887206  0.14702512  0.00438113  1
  O2-  O148  1  0.11066741  0.18854941  0.17522066  1
  O2-  O149  1  0.15600978  0.12518802  0.50841259  1
  O2-  O150  1  0.13523759  0.13910246  0.75072391  1
  O2-  O151  1  0.16376457  0.61060727  0.00780684  1
  O2-  O152  1  0.11847408  0.64591400  0.25345651  1
  O2-  O153  1  0.14698376  0.63947024  0.49843869  1
  O2-  O154  1  0.14710583  0.62318929  0.75493858  1
  O2-  O155  1  0.42882484  0.12268353  -0.00371638  1
  O2-  O156  1  0.40626776  0.13045957  0.25459986  1
  O2-  O157  1  0.34657102  0.13193911  0.51169741  1
  O2-  O158  1  0.34527407  0.14878479  0.75573849  1
  O2-  O159  1  0.34162351  0.63847749  -0.00604560  1
  O2-  O160  1  0.37330836  0.62682490  0.24837813  1
  O2-  O161  1  0.33387561  0.64092975  0.50314467  1
  O2-  O162  1  0.39182971  0.63179167  0.75308853  1
  O2-  O163  1  0.60580970  0.14097826  -0.00128300  1
  O2-  O164  1  0.60193144  0.12800092  0.24971999  1
  O2-  O165  1  0.64773101  0.13399419  0.50700805  1
  O2-  O166  1  0.66427923  0.14228713  0.74819956  1
  O2-  O167  1  0.67057922  0.64465343  0.01033587  1
  O2-  O168  1  0.58785933  0.63893234  0.23090273  1
  O2-  O169  1  0.65537914  0.63169754  0.50485331  1
  O2-  O170  1  0.60051588  0.63379536  0.75195952  1
  O2-  O171  1  0.91312507  0.14794365  -0.01500068  1
  O2-  O172  1  0.86961334  0.13738890  0.25480632  1
  O2-  O173  1  0.83696239  0.10364030  0.49560134  1
  O2-  O174  1  0.85179135  0.11535177  0.73611776  1
  O2-  O175  1  0.84840478  0.61262999  -0.02282647  1
  O2-  O176  1  0.91992954  0.63323012  0.23169220  1
  O2-  O177  1  0.90462992  0.64767789  0.48662515  1
  O2-  O178  1  0.92874696  0.64496850  0.72962504  1
  O2-  O179  1  0.11661141  0.38297461  0.00568233  1
  O2-  O180  1  0.11456735  0.35078988  0.25838765  1
  O2-  O181  1  0.12859618  0.35975158  0.51155352  1
  O2-  O182  1  0.13432778  0.37157360  0.74145550  1
  O2-  O183  1  0.16677220  0.89211384  0.00791349  1
  O2-  O184  1  0.10232471  0.86580190  0.24538371  1
  O2-  O185  1  0.10780925  0.87087442  0.50536986  1
  O2-  O186  1  0.11302273  0.87611895  0.75978521  1
  O2-  O187  1  0.38204266  0.36936468  0.00810282  1
  O2-  O188  1  0.38347850  0.35634203  0.25254495  1
  O2-  O189  1  0.34323253  0.36921121  0.51168675  1
  O2-  O190  1  0.35023861  0.35846195  0.74850153  1
  O2-  O191  1  0.34630372  0.86872468  0.00112426  1
  O2-  O192  1  0.38136423  0.86059200  0.24946029  1
  O2-  O193  1  0.33832594  0.87003714  0.51396073  1
  O2-  O194  1  0.40355066  0.87660193  0.75450423  1
  O2-  O195  1  0.59696747  0.36548713  -0.00150895  1
  O2-  O196  1  0.60922797  0.35839116  0.25150314  1
  O2-  O197  1  0.65744152  0.35787373  0.50756532  1
  O2-  O198  1  0.66303751  0.35496648  0.74816949  1
  O2-  O199  1  0.65059995  0.86224569  -0.01096569  1
  O2-  O200  1  0.60409845  0.86236384  0.24489796  1
  O2-  O201  1  0.67444347  0.85356796  0.49116886  1
  O2-  O202  1  0.60722899  0.85778413  0.75834600  1
  O2-  O203  1  0.90138986  0.36504596  -0.01192272  1
  O2-  O204  1  0.89625314  0.36016978  0.25802169  1
  O2-  O205  1  0.86412675  0.38153507  0.51012587  1
  O2-  O206  1  0.84543198  0.38362827  0.72516118  1
  O2-  O207  1  0.83665957  0.87685596  -0.01199468  1
  O2-  O208  1  0.90061798  0.84952231  0.23916463  1
  O2-  O209  1  0.90906323  0.84985920  0.49436981  1
  O2-  O210  1  0.90434955  0.87130120  0.75127703  1
  O2-  O211  1  0.01152450  -0.13754601  -0.08523858  1
  O2-  O212  1  0.01528549  0.10711985  0.30494440  1
  O2-  O213  1  -0.00214037  0.11171047  0.46121735  1
  O2-  O214  1  -0.00220403  0.15454798  0.62513611  1
  O2-  O215  1  0.00450048  0.63666782  -0.05274677  1
  O2-  O216  1  -0.00108402  0.38554760  0.39975017  1
  O2-  O217  1  -0.00624700  0.33605121  0.62252455  1
  O2-  O218  1  0.00795127  0.49323285  0.63943908  1
  O2-  O219  1  0.27495599  0.10946098  0.02615059  1
  O2-  O220  1  0.26179013  0.12163134  0.18424814  1
  O2-  O221  1  0.24437921  0.14980089  0.36488093  1
  O2-  O222  1  0.22955439  0.18246216  0.88536399  1
  O2-  O223  1  0.23506226  0.30827911  0.11084425  1
  O2-  O224  1  0.24026863  0.43894412  0.19394262  1
  O2-  O225  1  0.24734178  0.34217562  0.37289682  1
  O2-  O226  1  0.23972341  0.35807123  0.88108718  1
  O2-  O227  1  0.47835144  -0.09274131  -0.09476207  1
  O2-  O228  1  0.49856039  0.11196371  0.39748772  1
  O2-  O229  1  0.49784837  0.10277240  0.56554415  1
  O2-  O230  1  0.50250761  0.10722551  0.72145367  1
  O2-  O231  1  0.51279599  0.61058934  0.01154736  1
  O2-  O232  1  0.50057467  0.38975375  0.38591938  1
  O2-  O233  1  0.50310513  0.38122087  0.55582433  1
  O2-  O234  1  0.50524784  0.38601054  0.71272103  1
  O2-  O235  1  0.74381980  0.13799982  0.13027257  1
  O2-  O236  1  0.74650915  -0.14596355  0.13708007  1
  O2-  O237  1  0.74523491  0.14493592  0.36100391  1
  O2-  O238  1  0.75692470  0.13990927  0.89633294  1
  O2-  O239  1  0.75143710  0.34279329  0.05618021  1
  O2-  O240  1  0.75647387  0.39926499  0.19858100  1
  O2-  O241  1  0.75535633  0.34115526  0.36772012  1
  O2-  O242  1  0.74997944  0.40965198  0.88924042  1
