# generated using pymatgen
data_Gd19Ta56(WO20)8
_symmetry_space_group_name_H-M   'P 1'
_cell_length_a   15.53922713
_cell_length_b   15.47960418
_cell_length_c   15.38432224
_cell_angle_alpha   90.08168507
_cell_angle_beta   89.92470884
_cell_angle_gamma   90.11419107
_symmetry_Int_Tables_number   1
_chemical_formula_structural   Gd19Ta56(WO20)8
_chemical_formula_sum   'Gd19 Ta56 W8 O160'
_cell_volume   3700.54727610
_cell_formula_units_Z   1
loop_
 _symmetry_equiv_pos_site_id
 _symmetry_equiv_pos_as_xyz
  1  'x, y, z'
loop_
 _atom_type_symbol
 _atom_type_oxidation_number
  Gd3+  3.0
  Ta5+  5.0
  W6+  6.0
  O2-  -2.0
loop_
 _atom_site_type_symbol
 _atom_site_label
 _atom_site_symmetry_multiplicity
 _atom_site_fract_x
 _atom_site_fract_y
 _atom_site_fract_z
 _atom_site_occupancy
  Gd3+  Gd0  1  0.00425289  0.25680006  0.71735356  1
  Gd3+  Gd1  1  0.24681836  0.74198433  -0.00666417  1
  Gd3+  Gd2  1  -0.02247500  0.73547908  0.25130758  1
  Gd3+  Gd3  1  0.74610694  0.74707305  0.02497471  1
  Gd3+  Gd4  1  0.22092809  0.24207556  0.77205872  1
  Gd3+  Gd5  1  0.52242305  0.74169690  0.73193386  1
  Gd3+  Gd6  1  0.74477866  0.76432088  0.25753849  1
  Gd3+  Gd7  1  -0.02775631  0.73317930  0.51717915  1
  Gd3+  Gd8  1  0.75920921  0.23911058  -0.01648794  1
  Gd3+  Gd9  1  0.49097062  0.24464145  0.50570203  1
  Gd3+  Gd10  1  0.22979879  0.24599391  0.23149100  1
  Gd3+  Gd11  1  0.48876283  0.25308107  0.25315735  1
  Gd3+  Gd12  1  -0.01890521  0.75530693  -0.01284393  1
  Gd3+  Gd13  1  0.25115864  0.75020765  0.25051662  1
  Gd3+  Gd14  1  0.77565097  0.75844887  0.76854139  1
  Gd3+  Gd15  1  0.48416341  0.74709490  0.27410979  1
  Gd3+  Gd16  1  0.00172137  0.26181992  0.25275531  1
  Gd3+  Gd17  1  0.51907863  0.25317853  0.73474966  1
  Gd3+  Gd18  1  0.75917199  0.24289410  0.72948955  1
  Ta5+  Ta19  1  0.11478514  0.87911891  0.12758055  1
  Ta5+  Ta20  1  0.36151243  0.11215098  0.37682674  1
  Ta5+  Ta21  1  0.66408229  0.86865935  0.61041854  1
  Ta5+  Ta22  1  0.66382906  0.63838884  0.62038272  1
  Ta5+  Ta23  1  0.89806509  0.37539953  0.87307274  1
  Ta5+  Ta24  1  0.12359145  0.62174421  0.12379556  1
  Ta5+  Ta25  1  0.36381242  0.09907714  0.63427600  1
  Ta5+  Ta26  1  0.36227527  0.56852678  0.86860528  1
  Ta5+  Ta27  1  0.87544604  0.11791761  0.61006444  1
  Ta5+  Ta28  1  0.86728057  0.38595507  0.36892541  1
  Ta5+  Ta29  1  0.37202950  0.89716032  0.87900764  1
  Ta5+  Ta30  1  0.65498234  0.38524921  0.36621566  1
  Ta5+  Ta31  1  0.12061142  0.61967106  0.38726045  1
  Ta5+  Ta32  1  0.84842402  0.58854449  0.36765180  1
  Ta5+  Ta33  1  0.36078469  0.11042635  0.12747611  1
  Ta5+  Ta34  1  0.89487102  0.90968794  0.86579192  1
  Ta5+  Ta35  1  0.64440141  0.40432674  0.61723419  1
  Ta5+  Ta36  1  0.31087172  0.42414344  0.63394024  1
  Ta5+  Ta37  1  0.09733226  0.85811047  0.63864053  1
  Ta5+  Ta38  1  0.82906073  0.62431036  0.61976620  1
  Ta5+  Ta39  1  0.88823066  0.11686779  0.86358113  1
  Ta5+  Ta40  1  0.65046380  0.06450359  0.61747052  1
  Ta5+  Ta41  1  0.90276284  0.61788027  0.86150220  1
  Ta5+  Ta42  1  0.10722380  0.87008203  0.38459430  1
  Ta5+  Ta43  1  0.37155574  0.61277028  0.63263938  1
  Ta5+  Ta44  1  0.36296267  0.61799101  0.38390987  1
  Ta5+  Ta45  1  0.13282022  0.37358495  0.38383345  1
  Ta5+  Ta46  1  0.10944435  0.12380788  0.11198960  1
  Ta5+  Ta47  1  0.37933074  0.13914117  0.88133981  1
  Ta5+  Ta48  1  0.61680638  0.61676147  0.37761697  1
  Ta5+  Ta49  1  0.13504702  0.61752652  0.64539173  1
  Ta5+  Ta50  1  0.12995489  0.88494766  0.88187342  1
  Ta5+  Ta51  1  0.88353713  0.38563868  0.11645221  1
  Ta5+  Ta52  1  0.64919480  0.37526050  0.12710715  1
  Ta5+  Ta53  1  0.83003056  0.88134623  0.61921545  1
  Ta5+  Ta54  1  0.35921450  0.37456188  0.39021528  1
  Ta5+  Ta55  1  0.11891535  0.12063152  0.38009689  1
  Ta5+  Ta56  1  0.61474141  0.37283492  0.87588829  1
  Ta5+  Ta57  1  0.40547746  0.88168808  0.12718256  1
  Ta5+  Ta58  1  0.86586849  0.88750169  0.12098905  1
  Ta5+  Ta59  1  0.62506751  0.11657378  0.86659933  1
  Ta5+  Ta60  1  0.88885994  0.38717296  0.61254592  1
  Ta5+  Ta61  1  0.10481897  0.61401433  0.86942926  1
  Ta5+  Ta62  1  0.59483106  0.61201605  0.09882379  1
  Ta5+  Ta63  1  0.37403035  0.38063978  0.87337311  1
  Ta5+  Ta64  1  0.63444300  0.87435782  0.87325633  1
  Ta5+  Ta65  1  0.63300935  0.13449413  0.12233030  1
  Ta5+  Ta66  1  0.35558112  0.87318295  0.40015826  1
  Ta5+  Ta67  1  0.12192744  0.10571449  0.62698097  1
  Ta5+  Ta68  1  0.14194179  0.38494408  0.63046430  1
  Ta5+  Ta69  1  0.05720108  0.10984147  0.87026817  1
  Ta5+  Ta70  1  0.87510862  0.12968796  0.37133128  1
  Ta5+  Ta71  1  0.60742327  0.89137863  0.37949710  1
  Ta5+  Ta72  1  0.63265886  0.13799852  0.38080028  1
  Ta5+  Ta73  1  0.61012903  0.90782473  0.12581039  1
  Ta5+  Ta74  1  0.06531782  0.37328018  0.87773096  1
  W6+  W75  1  0.38263628  0.86232461  0.64764880  1
  W6+  W76  1  0.64446460  0.62229892  0.87811715  1
  W6+  W77  1  0.87570312  0.87559132  0.37989462  1
  W6+  W78  1  0.38171611  0.37987580  0.12831379  1
  W6+  W79  1  0.90884467  0.13426798  0.11423027  1
  W6+  W80  1  0.12224123  0.38318976  0.11589133  1
  W6+  W81  1  0.40172930  0.63018597  0.11183610  1
  W6+  W82  1  0.88008384  0.60816972  0.11335825  1
  O2-  O83  1  0.11150141  -0.00277518  0.14520557  1
  O2-  O84  1  0.11110511  -0.00652948  0.37002963  1
  O2-  O85  1  0.10697357  -0.01635859  0.63469274  1
  O2-  O86  1  0.14486714  0.00305177  0.87703769  1
  O2-  O87  1  0.14608924  0.50901437  0.15055965  1
  O2-  O88  1  0.12299747  0.49929292  0.36889290  1
  O2-  O89  1  0.09576346  0.50544409  0.65265374  1
  O2-  O90  1  0.10944805  0.49469835  0.86738514  1
  O2-  O91  1  0.33766755  -0.01381003  0.12613945  1
  O2-  O92  1  0.34243137  -0.00723979  0.36406363  1
  O2-  O93  1  0.40377848  -0.00440586  0.67006199  1
  O2-  O94  1  0.35078332  0.01526923  0.87307533  1
  O2-  O95  1  0.40351304  0.49899256  0.12419359  1
  O2-  O96  1  0.34228772  0.49611237  0.37938181  1
  O2-  O97  1  0.42105686  0.50332233  0.64204963  1
  O2-  O98  1  0.45211933  0.48808363  0.85729837  1
  O2-  O99  1  0.66757964  0.01967382  0.13968190  1
  O2-  O100  1  0.61588265  0.01598260  0.37837606  1
  O2-  O101  1  0.57917605  -0.02464244  0.57841855  1
  O2-  O102  1  0.63728667  -0.00348040  0.85861087  1
  O2-  O103  1  0.60580195  0.49055500  0.12062473  1
  O2-  O104  1  0.60561745  0.49754489  0.34139781  1
  O2-  O105  1  0.61631585  0.51547427  0.64329703  1
  O2-  O106  1  0.63237958  0.48825116  0.87086234  1
  O2-  O107  1  0.88023539  0.00228336  0.11123270  1
  O2-  O108  1  0.87950025  0.01123470  0.37830499  1
  O2-  O109  1  0.87728355  -0.00100592  0.59723319  1
  O2-  O110  1  0.82533641  0.00112962  0.89681826  1
  O2-  O111  1  0.93785353  0.48760550  0.08964209  1
  O2-  O112  1  0.93166741  0.49598096  0.38894473  1
  O2-  O113  1  0.88160777  0.50805496  0.61755578  1
  O2-  O114  1  0.87784308  0.49984815  0.88020182  1
  O2-  O115  1  0.12438004  0.24760451  0.11625857  1
  O2-  O116  1  0.09280935  0.24989085  0.38711259  1
  O2-  O117  1  0.14400729  0.24400228  0.63661164  1
  O2-  O118  1  0.07168386  0.23829821  0.86227191  1
  O2-  O119  1  0.16903766  0.75166497  0.12334408  1
  O2-  O120  1  0.05717731  0.73943053  0.38776995  1
  O2-  O121  1  0.06685351  0.72974260  0.63524386  1
  O2-  O122  1  0.11602877  0.74858656  0.91124347  1
  O2-  O123  1  0.36348339  0.24607072  0.15435792  1
  O2-  O124  1  0.40523889  0.23998170  0.38208456  1
  O2-  O125  1  0.43896849  0.19775706  0.63169517  1
  O2-  O126  1  0.32869889  0.25386801  0.88043081  1
  O2-  O127  1  0.34422962  0.76930082  0.10837335  1
  O2-  O128  1  0.37685152  0.75132079  0.38480762  1
  O2-  O129  1  0.42012971  0.72880682  0.63043751  1
  O2-  O130  1  0.26261013  0.84532099  0.87570485  1
  O2-  O131  1  0.68948522  0.24730744  0.12526722  1
  O2-  O132  1  0.59034726  0.26953827  0.38722373  1
  O2-  O133  1  0.54565602  0.33041527  0.60829437  1
  O2-  O134  1  0.66362465  0.24295781  0.86453977  1
  O2-  O135  1  0.66919996  0.70152574  0.14978814  1
  O2-  O136  1  0.61046823  0.74751509  0.35172990  1
  O2-  O137  1  0.61022629  0.75195242  0.60440814  1
  O2-  O138  1  0.68717015  0.75575217  0.88976553  1
  O2-  O139  1  0.93316805  0.27194503  0.11934966  1
  O2-  O140  1  0.90914019  0.26374396  0.36481088  1
  O2-  O141  1  0.87781114  0.25301900  0.63962681  1
  O2-  O142  1  0.84726314  0.25042320  0.85166334  1
  O2-  O143  1  0.85111464  0.74044598  0.14323711  1
  O2-  O144  1  0.86653390  0.73607934  0.35216784  1
  O2-  O145  1  0.86718279  0.74788308  0.63656695  1
  O2-  O146  1  0.89840355  0.75828720  0.85398006  1
  O2-  O147  1  0.07420650  0.11201300  -0.00286893  1
  O2-  O148  1  0.11096108  0.14522732  0.25110256  1
  O2-  O149  1  0.10636336  0.11450571  0.50142244  1
  O2-  O150  1  0.13340559  0.12317243  0.75627112  1
  O2-  O151  1  0.16274742  0.61805166  0.00309265  1
  O2-  O152  1  0.11655806  0.65392374  0.25411329  1
  O2-  O153  1  0.11818942  0.62273069  0.51175874  1
  O2-  O154  1  0.17285614  0.64433926  0.76283346  1
  O2-  O155  1  0.39211202  0.12722412  0.00987076  1
  O2-  O156  1  0.40643972  0.11597136  0.25384297  1
  O2-  O157  1  0.39452744  0.10710126  0.49758480  1
  O2-  O158  1  0.33675074  0.14292065  0.75392977  1
  O2-  O159  1  0.34126526  0.63031078  -0.02671191  1
  O2-  O160  1  0.35337229  0.64879812  0.25094620  1
  O2-  O161  1  0.36131437  0.61800750  0.50608259  1
  O2-  O162  1  0.37324959  0.63571229  0.76771015  1
  O2-  O163  1  0.62753051  0.12805084  -0.00389789  1
  O2-  O164  1  0.60441835  0.15043269  0.25600984  1
  O2-  O165  1  0.59938726  0.14256031  0.50520184  1
  O2-  O166  1  0.62258148  0.14025836  0.72508864  1
  O2-  O167  1  0.68387786  0.61191559  0.00805883  1
  O2-  O168  1  0.73040939  0.63131353  0.32195586  1
  O2-  O169  1  0.64773191  0.61130307  0.49074679  1
  O2-  O170  1  0.64611625  0.65943804  0.74771943  1
  O2-  O171  1  0.87075286  0.14801032  -0.01483177  1
  O2-  O172  1  0.92451573  0.13457535  0.25629514  1
  O2-  O173  1  0.90443940  0.14667745  0.49070446  1
  O2-  O174  1  0.84436297  0.11863071  0.73992977  1
  O2-  O175  1  0.85410883  0.65528279  -0.01643140  1
  O2-  O176  1  0.90206954  0.60285156  0.25421591  1
  O2-  O177  1  0.85636513  0.63030856  0.48693712  1
  O2-  O178  1  0.83181839  0.62087989  0.75486017  1
  O2-  O179  1  0.07870165  0.37223062  -0.00265274  1
  O2-  O180  1  0.12622611  0.35353361  0.25121922  1
  O2-  O181  1  0.15644564  0.38435586  0.50410681  1
  O2-  O182  1  0.12411554  0.35750760  0.75836881  1
  O2-  O183  1  0.16942779  0.88095914  0.01468777  1
  O2-  O184  1  0.10218701  0.84521345  0.25312225  1
  O2-  O185  1  0.08928982  0.85684318  0.50656418  1
  O2-  O186  1  0.11392130  0.85465994  0.76311397  1
  O2-  O187  1  0.37503480  0.37735242  -0.00791200  1
  O2-  O188  1  0.40813088  0.37335123  0.27303638  1
  O2-  O189  1  0.36386612  0.36808971  0.51918481  1
  O2-  O190  1  0.34156531  0.35653086  0.73348699  1
  O2-  O191  1  0.40882732  0.87769854  -0.00795195  1
  O2-  O192  1  0.37430642  0.85665275  0.24917581  1
  O2-  O193  1  0.34847966  0.88468023  0.51697900  1
  O2-  O194  1  0.42925517  0.84460897  0.78543523  1
  O2-  O195  1  0.63961082  0.35390042  -0.00010237  1
  O2-  O196  1  0.60234564  0.35389545  0.24209858  1
  O2-  O197  1  0.65667166  0.39917394  0.49085367  1
  O2-  O198  1  0.63164702  0.35421942  0.74704684  1
  O2-  O199  1  0.62294019  0.87711597  0.00622213  1
  O2-  O200  1  0.63699133  0.88239024  0.25688007  1
  O2-  O201  1  0.67266088  0.86559997  0.47561139  1
  O2-  O202  1  0.63022371  0.84861553  0.74718544  1
  O2-  O203  1  0.84509977  0.35764627  -0.00430741  1
  O2-  O204  1  0.91099637  0.38708950  0.24570466  1
  O2-  O205  1  0.85991317  0.37022244  0.49312441  1
  O2-  O206  1  0.91144790  0.37860158  0.74705711  1
  O2-  O207  1  0.85948491  0.85376979  -0.00655139  1
  O2-  O208  1  0.88547910  0.87213587  0.24392878  1
  O2-  O209  1  0.88845250  0.84913374  0.50837258  1
  O2-  O210  1  0.85685794  0.88955521  0.74943936  1
  O2-  O211  1  0.01085674  -0.11352378  -0.08088368  1
  O2-  O212  1  -0.00326056  -0.14839183  0.10681000  1
  O2-  O213  1  -0.00176700  0.12877584  0.64364472  1
  O2-  O214  1  -0.02971008  0.01673447  0.82298421  1
  O2-  O215  1  0.00342814  0.61569472  -0.05365925  1
  O2-  O216  1  0.00821552  0.66881894  0.11608187  1
  O2-  O217  1  0.00856981  0.36069051  0.60598795  1
  O2-  O218  1  0.00690715  0.62228987  0.78726263  1
  O2-  O219  1  0.24062543  0.12369726  0.13299931  1
  O2-  O220  1  0.23063255  -0.15391765  0.37356016  1
  O2-  O221  1  0.24412114  0.14257231  0.36627297  1
  O2-  O222  1  0.24746444  0.09484349  0.60561014  1
  O2-  O223  1  0.28544993  0.47265180  -0.13805604  1
  O2-  O224  1  0.23719157  0.65450017  0.37668176  1
  O2-  O225  1  0.25101553  0.32479043  0.36302279  1
  O2-  O226  1  0.25646585  0.55740728  0.63449511  1
  O2-  O227  1  0.50407593  -0.02627894  0.12451468  1
  O2-  O228  1  0.51753149  -0.18430405  0.14574795  1
  O2-  O229  1  0.48740607  -0.11757261  0.39014149  1
  O2-  O230  1  0.49734959  0.14344574  0.85272064  1
  O2-  O231  1  0.50849565  0.63903904  0.01994696  1
  O2-  O232  1  0.51768471  0.63163774  0.19765986  1
  O2-  O233  1  0.48976586  0.62339591  0.37658832  1
  O2-  O234  1  0.49710422  0.32800524  0.86180433  1
  O2-  O235  1  0.74175908  -0.13220840  0.12908609  1
  O2-  O236  1  0.75163987  0.14518713  0.37542939  1
  O2-  O237  1  0.74919023  0.14735508  0.59781613  1
  O2-  O238  1  0.72377717  -0.01992222  0.66750225  1
  O2-  O239  1  0.76336391  0.41025673  0.14592420  1
  O2-  O240  1  0.75563766  0.32744109  0.33239805  1
  O2-  O241  1  0.77373667  0.48094676  0.36998822  1
  O2-  O242  1  0.75987553  0.37170832  0.64437947  1
