# generated using pymatgen
data_Gd19Ta56(WO20)8
_symmetry_space_group_name_H-M   'P 1'
_cell_length_a   15.60039475
_cell_length_b   15.61589196
_cell_length_c   14.99518509
_cell_angle_alpha   89.91618832
_cell_angle_beta   90.33314634
_cell_angle_gamma   90.01629681
_symmetry_Int_Tables_number   1
_chemical_formula_structural   Gd19Ta56(WO20)8
_chemical_formula_sum   'Gd19 Ta56 W8 O160'
_cell_volume   3652.97240466
_cell_formula_units_Z   1
loop_
 _symmetry_equiv_pos_site_id
 _symmetry_equiv_pos_as_xyz
  1  'x, y, z'
loop_
 _atom_type_symbol
 _atom_type_oxidation_number
  Gd3+  3.0
  Ta5+  5.0
  W6+  6.0
  O2-  -2.0
loop_
 _atom_site_type_symbol
 _atom_site_label
 _atom_site_symmetry_multiplicity
 _atom_site_fract_x
 _atom_site_fract_y
 _atom_site_fract_z
 _atom_site_occupancy
  Gd3+  Gd0  1  0.50715321  0.78196536  0.47658250  1
  Gd3+  Gd1  1  0.51801736  0.73856190  0.23403825  1
  Gd3+  Gd2  1  0.53543759  0.24844425  0.04525128  1
  Gd3+  Gd3  1  0.77269379  0.75069103  0.02432764  1
  Gd3+  Gd4  1  0.24255653  0.74948044  0.74759172  1
  Gd3+  Gd5  1  0.47853543  0.74933491  0.75724595  1
  Gd3+  Gd6  1  0.78168563  0.75969424  0.27116699  1
  Gd3+  Gd7  1  0.74213582  0.75410167  0.75503070  1
  Gd3+  Gd8  1  0.22496527  0.24585361  0.76241891  1
  Gd3+  Gd9  1  0.20272200  0.23519006  0.02802968  1
  Gd3+  Gd10  1  -0.01257924  0.25975272  0.50038539  1
  Gd3+  Gd11  1  0.23989461  0.75349671  0.03050470  1
  Gd3+  Gd12  1  0.00222199  0.25446838  0.26049032  1
  Gd3+  Gd13  1  0.25098434  0.74308777  0.50964616  1
  Gd3+  Gd14  1  -0.00805076  0.25926164  0.78331145  1
  Gd3+  Gd15  1  0.26035960  0.25841787  0.50846103  1
  Gd3+  Gd16  1  0.74791806  0.75564301  0.50665902  1
  Gd3+  Gd17  1  0.50248238  0.23850292  0.49432525  1
  Gd3+  Gd18  1  0.77128418  0.24840443  0.25172976  1
  Ta5+  Ta19  1  0.10258578  0.87808558  0.62038838  1
  Ta5+  Ta20  1  0.36084692  0.87356612  0.34724085  1
  Ta5+  Ta21  1  0.59714106  0.87950615  0.88888534  1
  Ta5+  Ta22  1  0.33024412  0.37419609  0.32147988  1
  Ta5+  Ta23  1  0.08618755  0.63076193  0.61791342  1
  Ta5+  Ta24  1  0.06154797  0.63628142  0.12990404  1
  Ta5+  Ta25  1  0.92458657  0.87084343  0.14490999  1
  Ta5+  Ta26  1  0.12940881  0.63745922  0.36350368  1
  Ta5+  Ta27  1  0.61004778  0.37049921  0.63013238  1
  Ta5+  Ta28  1  0.40881573  0.61904780  0.09938033  1
  Ta5+  Ta29  1  0.89455456  0.87787675  0.62996064  1
  Ta5+  Ta30  1  0.36633717  0.61006452  0.87944894  1
  Ta5+  Ta31  1  0.71702810  0.11860180  0.10350597  1
  Ta5+  Ta32  1  0.11553320  0.62763108  0.87876387  1
  Ta5+  Ta33  1  0.09090202  0.87897719  0.13006504  1
  Ta5+  Ta34  1  0.37679276  0.88149698  0.62168280  1
  Ta5+  Ta35  1  0.38442928  0.88199693  0.88540824  1
  Ta5+  Ta36  1  0.70498480  0.37724758  0.09691615  1
  Ta5+  Ta37  1  0.88511613  0.62437958  0.63202389  1
  Ta5+  Ta38  1  0.36579718  0.37421459  0.08625344  1
  Ta5+  Ta39  1  0.38946031  0.61242097  0.61628894  1
  Ta5+  Ta40  1  0.63952148  0.91531678  0.36806495  1
  Ta5+  Ta41  1  0.13112526  0.11836944  0.38875641  1
  Ta5+  Ta42  1  0.65429235  0.88732466  0.13081472  1
  Ta5+  Ta43  1  0.35760534  0.12619609  0.88306696  1
  Ta5+  Ta44  1  0.92740642  0.86764944  0.41013405  1
  Ta5+  Ta45  1  0.60065026  0.61679993  0.62281724  1
  Ta5+  Ta46  1  0.90567350  0.62073840  0.40825818  1
  Ta5+  Ta47  1  0.83646288  0.08702800  0.39286455  1
  Ta5+  Ta48  1  0.07238467  0.11766500  0.13619425  1
  Ta5+  Ta49  1  0.63493031  0.11803389  0.36265080  1
  Ta5+  Ta50  1  0.86546866  0.11703285  0.89455084  1
  Ta5+  Ta51  1  0.62814683  0.37001807  0.88757249  1
  Ta5+  Ta52  1  0.38222850  0.12576446  0.11236943  1
  Ta5+  Ta53  1  0.61254291  0.61503635  0.87583959  1
  Ta5+  Ta54  1  0.85463980  0.38015946  0.64339392  1
  Ta5+  Ta55  1  0.87499817  0.61684758  0.88258117  1
  Ta5+  Ta56  1  0.63461979  0.12058244  0.89982774  1
  Ta5+  Ta57  1  0.11114480  0.10874268  0.87673130  1
  Ta5+  Ta58  1  0.35929517  0.12002412  0.35482139  1
  Ta5+  Ta59  1  0.13098273  0.12198363  0.60729848  1
  Ta5+  Ta60  1  0.62338262  0.35235704  0.35561815  1
  Ta5+  Ta61  1  0.89253718  0.86958896  0.88261880  1
  Ta5+  Ta62  1  0.12955922  0.39526859  0.14663370  1
  Ta5+  Ta63  1  0.89543776  0.11497376  0.13572881  1
  Ta5+  Ta64  1  0.85085971  0.40381562  0.38277152  1
  Ta5+  Ta65  1  0.16151727  0.87655111  0.36449107  1
  Ta5+  Ta66  1  0.12836053  0.39170346  0.37666606  1
  Ta5+  Ta67  1  0.41197258  0.88008358  0.09634312  1
  Ta5+  Ta68  1  0.63730119  0.12578093  0.63847792  1
  Ta5+  Ta69  1  0.65170206  0.56049543  0.37897428  1
  Ta5+  Ta70  1  0.87297225  0.38096116  0.12101107  1
  Ta5+  Ta71  1  0.36984887  0.37662517  0.65788820  1
  Ta5+  Ta72  1  0.14578152  0.38332378  0.89597562  1
  Ta5+  Ta73  1  0.85588107  0.36950874  0.90217891  1
  Ta5+  Ta74  1  0.31532263  0.37272690  0.90638870  1
  W6+  W75  1  0.62919716  0.88687941  0.63716783  1
  W6+  W76  1  0.65478345  0.61618322  0.12620338  1
  W6+  W77  1  0.12912898  0.87748872  0.87435705  1
  W6+  W78  1  0.90130097  0.62110670  0.14742706  1
  W6+  W79  1  0.37914568  0.12431729  0.62483125  1
  W6+  W80  1  0.11186202  0.38421978  0.62625508  1
  W6+  W81  1  0.37828135  0.61686969  0.36069110  1
  W6+  W82  1  0.88722072  0.12748302  0.63861945  1
  O2-  O83  1  0.09836732  0.00009382  0.13794191  1
  O2-  O84  1  0.14906368  -0.00054112  0.37653638  1
  O2-  O85  1  0.10685165  0.00121401  0.61857685  1
  O2-  O86  1  0.07171096  -0.00117236  0.86049294  1
  O2-  O87  1  0.10108773  0.51205924  0.13516502  1
  O2-  O88  1  0.13630597  0.51589903  0.36190100  1
  O2-  O89  1  0.10907974  0.51724955  0.63426063  1
  O2-  O90  1  0.14248352  0.51308141  0.89071921  1
  O2-  O91  1  0.40049040  0.00293423  0.10318575  1
  O2-  O92  1  0.35438133  -0.00028280  0.35586414  1
  O2-  O93  1  0.35048491  -0.00505450  0.61507663  1
  O2-  O94  1  0.37502218  0.00216734  0.88258758  1
  O2-  O95  1  0.40377877  0.49870112  0.09020537  1
  O2-  O96  1  0.36454491  0.48147752  0.35623277  1
  O2-  O97  1  0.35066023  0.49721134  0.63259562  1
  O2-  O98  1  0.34486823  0.49428492  0.88402363  1
  O2-  O99  1  0.70219635  -0.00827516  0.09896143  1
  O2-  O100  1  0.56706101  0.01240268  0.34555454  1
  O2-  O101  1  0.59241543  0.01596345  0.63082255  1
  O2-  O102  1  0.60825811  -0.00068322  0.89962584  1
  O2-  O103  1  0.69455757  0.49632847  0.11614632  1
  O2-  O104  1  0.57284551  0.46813813  0.36160454  1
  O2-  O105  1  0.62740832  0.49916952  0.61436216  1
  O2-  O106  1  0.62805394  0.49625883  0.88156932  1
  O2-  O107  1  0.90038581  -0.01222333  0.14667934  1
  O2-  O108  1  0.90996953  -0.01197778  0.39923047  1
  O2-  O109  1  0.88919524  -0.00622981  0.63843013  1
  O2-  O110  1  0.87531581  -0.01125086  0.88653172  1
  O2-  O111  1  0.91423549  0.49159190  0.12795991  1
  O2-  O112  1  0.92748152  0.50031190  0.39459111  1
  O2-  O113  1  0.87075245  0.50182344  0.64447897  1
  O2-  O114  1  0.84985403  0.50139210  0.89033651  1
  O2-  O115  1  0.11296191  0.25231463  0.14916939  1
  O2-  O116  1  0.10877436  0.25854110  0.38753296  1
  O2-  O117  1  0.11111656  0.24894405  0.59279880  1
  O2-  O118  1  0.12127749  0.24628297  0.88811122  1
  O2-  O119  1  0.02360246  0.76447729  0.13393310  1
  O2-  O120  1  0.19700310  0.74622213  0.36908530  1
  O2-  O121  1  0.14714548  0.74678693  0.62333493  1
  O2-  O122  1  0.18487248  0.74348276  0.88609285  1
  O2-  O123  1  0.33002094  0.24078123  0.10591411  1
  O2-  O124  1  0.36900093  0.27046703  0.38669960  1
  O2-  O125  1  0.38517252  0.26329548  0.59190973  1
  O2-  O126  1  0.30298282  0.24075570  0.90154038  1
  O2-  O127  1  0.38583368  0.75234664  0.09660152  1
  O2-  O128  1  0.41734133  0.75322306  0.35605659  1
  O2-  O129  1  0.35270850  0.74001486  0.63082706  1
  O2-  O130  1  0.37861714  0.74978060  0.87290174  1
  O2-  O131  1  0.70196222  0.24557365  0.09655303  1
  O2-  O132  1  0.57261798  0.23838016  0.35257861  1
  O2-  O133  1  0.58482611  0.24145357  0.62849480  1
  O2-  O134  1  0.60042422  0.24399049  0.90445204  1
  O2-  O135  1  0.66804913  0.75416076  0.15773690  1
  O2-  O136  1  0.59153313  0.79919892  0.34958784  1
  O2-  O137  1  0.65107558  0.73753804  0.62597316  1
  O2-  O138  1  0.59483283  0.74621967  0.85508011  1
  O2-  O139  1  0.89233366  0.25319690  0.15408970  1
  O2-  O140  1  0.91785597  0.29926026  0.37300147  1
  O2-  O141  1  0.91901939  0.26648035  0.64233061  1
  O2-  O142  1  0.85804598  0.24573992  0.88767759  1
  O2-  O143  1  0.85302802  0.75361920  0.14873261  1
  O2-  O144  1  0.86782429  0.75172331  0.41200307  1
  O2-  O145  1  0.83843548  0.74659344  0.62750433  1
  O2-  O146  1  0.82636978  0.74780755  0.88269313  1
  O2-  O147  1  0.10106421  0.12189945  0.00453540  1
  O2-  O148  1  0.07337639  0.12463761  0.27444590  1
  O2-  O149  1  0.05061892  0.12148061  0.48996707  1
  O2-  O150  1  0.09934843  0.15133236  0.74175905  1
  O2-  O151  1  0.10966845  0.65525518  0.01063350  1
  O2-  O152  1  0.12346084  0.65527720  0.23581737  1
  O2-  O153  1  0.14609760  0.63879471  0.49740997  1
  O2-  O154  1  0.14299778  0.63921173  0.75365015  1
  O2-  O155  1  0.42792688  0.14706679  -0.01040889  1
  O2-  O156  1  0.41036140  0.13775891  0.24244381  1
  O2-  O157  1  0.40359221  0.12766209  0.47575104  1
  O2-  O158  1  0.38768964  0.15025934  0.76582859  1
  O2-  O159  1  0.31777400  0.63065121  -0.00104320  1
  O2-  O160  1  0.40924523  0.62814780  0.22516297  1
  O2-  O161  1  0.33845515  0.62271288  0.50004291  1
  O2-  O162  1  0.34101482  0.62832168  0.75318297  1
  O2-  O163  1  0.60155343  0.12003767  0.02939741  1
  O2-  O164  1  0.67345237  0.12628211  0.23227874  1
  O2-  O165  1  0.60568710  0.13316513  0.49026538  1
  O2-  O166  1  0.63906193  0.12719635  0.76902262  1
  O2-  O167  1  0.67562861  0.64174246  -0.01909345  1
  O2-  O168  1  0.63573422  0.62486243  0.27425068  1
  O2-  O169  1  0.64582276  0.62850899  0.48431956  1
  O2-  O170  1  0.65489716  0.62252003  0.75283418  1
  O2-  O171  1  0.91641641  0.12273775  0.00712347  1
  O2-  O172  1  0.87976704  0.13005004  0.28260642  1
  O2-  O173  1  0.87930799  0.14554385  0.49290723  1
  O2-  O174  1  0.91511986  0.13145948  0.77653108  1
  O2-  O175  1  0.87309843  0.64089173  0.00698246  1
  O2-  O176  1  0.85984634  0.63067365  0.29031799  1
  O2-  O177  1  0.82260382  0.62161890  0.51067348  1
  O2-  O178  1  0.83465566  0.63186533  0.75761153  1
  O2-  O179  1  0.10964038  0.37104602  0.02047451  1
  O2-  O180  1  0.05731219  0.38660734  0.26361038  1
  O2-  O181  1  0.06679374  0.39298775  0.48694063  1
  O2-  O182  1  0.11347285  0.35542633  0.76304226  1
  O2-  O183  1  0.12846315  0.85595069  0.01129711  1
  O2-  O184  1  0.15538477  0.86463918  0.23829865  1
  O2-  O185  1  0.16894430  0.86781266  0.50638476  1
  O2-  O186  1  0.16554774  0.87559269  0.73175948  1
  O2-  O187  1  0.42573542  0.33586193  -0.01796766  1
  O2-  O188  1  0.39635708  0.36030209  0.21919980  1
  O2-  O189  1  0.48797515  0.39192772  0.62706379  1
  O2-  O190  1  0.36810050  0.34753750  0.77592903  1
  O2-  O191  1  0.31752651  0.87461946  -0.00110197  1
  O2-  O192  1  0.37272711  0.87184265  0.22235643  1
  O2-  O193  1  0.37087152  0.85282434  0.48941972  1
  O2-  O194  1  0.34739172  0.86409921  0.74970871  1
  O2-  O195  1  0.59332221  0.37664030  0.01630990  1
  O2-  O196  1  0.65681859  0.35280055  0.23216310  1
  O2-  O197  1  0.60080617  0.35165142  0.49484490  1
  O2-  O198  1  0.60635179  0.36672431  0.76093442  1
  O2-  O199  1  0.65658819  0.84710199  0.00014214  1
  O2-  O200  1  0.70064458  0.89456831  0.25634112  1
  O2-  O201  1  0.63431873  0.87342413  0.49218402  1
  O2-  O202  1  0.66511813  0.87912730  0.78058510  1
  O2-  O203  1  0.92778425  0.36101271  0.00013328  1
  O2-  O204  1  0.84105007  0.39144622  0.25511656  1
  O2-  O205  1  0.86953953  0.37768153  0.51623392  1
  O2-  O206  1  0.89465789  0.37382474  0.77194660  1
  O2-  O207  1  0.88173518  0.85573541  0.01354894  1
  O2-  O208  1  0.89562760  0.85451141  0.27748713  1
  O2-  O209  1  0.82926069  0.87641901  0.51355546  1
  O2-  O210  1  0.84801728  0.86026660  0.75604878  1
  O2-  O211  1  0.00169882  -0.16886946  -0.12480710  1
  O2-  O212  1  0.04065916  -0.14884704  0.37171321  1
  O2-  O213  1  -0.01062642  -0.13186562  0.53127635  1
  O2-  O214  1  0.00232807  -0.15536308  0.68792784  1
  O2-  O215  1  -0.00586714  0.62432592  -0.12858469  1
  O2-  O216  1  0.01415163  0.66693286  0.37339886  1
  O2-  O217  1  -0.01971215  0.61932390  0.53709398  1
  O2-  O218  1  -0.01220712  0.65947065  0.69249876  1
  O2-  O219  1  0.23191515  0.10075340  -0.14009953  1
  O2-  O220  1  0.24488588  0.15296331  0.33553165  1
  O2-  O221  1  0.21003071  0.12219255  0.49917958  1
  O2-  O222  1  0.24530652  0.14829409  0.65664164  1
  O2-  O223  1  0.24793770  0.39694808  0.11013398  1
  O2-  O224  1  0.21605853  0.37269341  0.26860703  1
  O2-  O225  1  0.24037380  0.38018867  0.43435622  1
  O2-  O226  1  0.24632160  0.34414859  0.63530378  1
  O2-  O227  1  0.48156730  -0.12678327  -0.02324106  1
  O2-  O228  1  0.53019266  -0.13536066  0.15201639  1
  O2-  O229  1  0.49535764  -0.16765460  0.62592894  1
  O2-  O230  1  0.49466677  -0.11679904  0.81268654  1
  O2-  O231  1  0.49074694  0.61109134  -0.11286923  1
  O2-  O232  1  0.52693935  0.65236053  0.09712583  1
  O2-  O233  1  0.49812134  0.65119272  0.54693683  1
  O2-  O234  1  0.49855900  0.60949046  0.69981886  1
  O2-  O235  1  0.74751338  0.11752303  -0.04893320  1
  O2-  O236  1  0.72812534  0.01692070  0.39428156  1
  O2-  O237  1  0.74438925  0.17796555  0.38279984  1
  O2-  O238  1  0.75201062  0.13415414  0.62120027  1
  O2-  O239  1  0.74081827  0.36782569  -0.04643055  1
  O2-  O240  1  0.75492373  0.50421095  0.38512169  1
  O2-  O241  1  0.73919216  0.34104174  0.39049905  1
  O2-  O242  1  0.73831594  0.35804274  0.64126015  1
