# generated using pymatgen
data_Gd19Ta56(WO20)8
_symmetry_space_group_name_H-M   'P 1'
_cell_length_a   15.50742626
_cell_length_b   15.48531768
_cell_length_c   15.34927922
_cell_angle_alpha   89.91278246
_cell_angle_beta   89.90590112
_cell_angle_gamma   89.86432561
_symmetry_Int_Tables_number   1
_chemical_formula_structural   Gd19Ta56(WO20)8
_chemical_formula_sum   'Gd19 Ta56 W8 O160'
_cell_volume   3685.91678665
_cell_formula_units_Z   1
loop_
 _symmetry_equiv_pos_site_id
 _symmetry_equiv_pos_as_xyz
  1  'x, y, z'
loop_
 _atom_type_symbol
 _atom_type_oxidation_number
  Gd3+  3.0
  Ta5+  5.0
  W6+  6.0
  O2-  -2.0
loop_
 _atom_site_type_symbol
 _atom_site_label
 _atom_site_symmetry_multiplicity
 _atom_site_fract_x
 _atom_site_fract_y
 _atom_site_fract_z
 _atom_site_occupancy
  Gd3+  Gd0  1  0.73789856  0.76608856  0.49098038  1
  Gd3+  Gd1  1  0.01035967  0.23411214  0.76716071  1
  Gd3+  Gd2  1  0.49335588  0.23868121  0.75672264  1
  Gd3+  Gd3  1  -0.00620084  0.71785220  0.50099051  1
  Gd3+  Gd4  1  0.22260135  0.25217539  0.23698573  1
  Gd3+  Gd5  1  0.51375368  0.72163032  0.01064292  1
  Gd3+  Gd6  1  0.73813494  0.23761280  0.49361264  1
  Gd3+  Gd7  1  0.25388662  0.25304618  0.47248553  1
  Gd3+  Gd8  1  0.03942306  0.24026855  0.01460328  1
  Gd3+  Gd9  1  -0.01675112  0.74086954  -0.01000873  1
  Gd3+  Gd10  1  0.25670761  0.26469181  0.73868362  1
  Gd3+  Gd11  1  0.78286001  0.73774955  0.75070355  1
  Gd3+  Gd12  1  0.54711806  0.25953645  0.25711501  1
  Gd3+  Gd13  1  -0.01918998  0.28173298  0.23013212  1
  Gd3+  Gd14  1  0.01147011  0.73406529  0.24138804  1
  Gd3+  Gd15  1  0.49989413  0.76136833  0.76436907  1
  Gd3+  Gd16  1  0.24312382  0.78172398  -0.02538826  1
  Gd3+  Gd17  1  0.26254308  0.75317210  0.51069998  1
  Gd3+  Gd18  1  0.00425314  0.74877996  0.76229690  1
  Ta5+  Ta19  1  0.36979632  0.12932511  0.60853520  1
  Ta5+  Ta20  1  0.93112986  0.88274461  0.38904882  1
  Ta5+  Ta21  1  0.38308219  0.12492867  0.13501088  1
  Ta5+  Ta22  1  0.33525499  0.13284901  0.89185828  1
  Ta5+  Ta23  1  0.85024567  0.11418198  0.12852632  1
  Ta5+  Ta24  1  0.61983663  0.63261586  0.35213418  1
  Ta5+  Ta25  1  0.65361380  0.37732677  0.11471306  1
  Ta5+  Ta26  1  0.37095091  0.87423704  0.12438994  1
  Ta5+  Ta27  1  0.36438581  0.62137140  0.87336842  1
  Ta5+  Ta28  1  0.84825104  0.62049596  0.14986886  1
  Ta5+  Ta29  1  0.63742646  0.86631075  0.11683754  1
  Ta5+  Ta30  1  0.09916142  0.90113951  0.86866438  1
  Ta5+  Ta31  1  0.34268355  0.93641413  0.86493330  1
  Ta5+  Ta32  1  0.36229981  0.88507831  0.62849839  1
  Ta5+  Ta33  1  0.87679357  0.88127612  0.60659000  1
  Ta5+  Ta34  1  0.08869557  0.12287235  0.37801801  1
  Ta5+  Ta35  1  0.64134526  0.87632532  0.89393202  1
  Ta5+  Ta36  1  0.81705197  0.42635432  0.11632096  1
  Ta5+  Ta37  1  0.34416744  0.61782948  0.12068568  1
  Ta5+  Ta38  1  0.17840804  0.62554533  0.12983860  1
  Ta5+  Ta39  1  0.15638142  0.44049467  0.12444518  1
  Ta5+  Ta40  1  0.09636500  0.87478039  0.37555134  1
  Ta5+  Ta41  1  0.61935938  0.11755533  0.11260439  1
  Ta5+  Ta42  1  0.60603497  0.37570712  0.88207106  1
  Ta5+  Ta43  1  0.13153159  0.12723345  0.61302597  1
  Ta5+  Ta44  1  0.88448102  0.12376098  0.37332464  1
  Ta5+  Ta45  1  0.12487477  0.88747921  0.12747381  1
  Ta5+  Ta46  1  0.12205633  0.61516191  0.63132911  1
  Ta5+  Ta47  1  0.61835716  0.37647103  0.62365021  1
  Ta5+  Ta48  1  0.61288547  0.12184562  0.62325681  1
  Ta5+  Ta49  1  0.14202120  0.61844114  0.37059107  1
  Ta5+  Ta50  1  0.61571735  0.88084930  0.62525025  1
  Ta5+  Ta51  1  0.37729640  0.38417103  0.13876780  1
  Ta5+  Ta52  1  0.88928260  0.35979214  0.61633643  1
  Ta5+  Ta53  1  0.12976162  0.38043032  0.61374911  1
  Ta5+  Ta54  1  0.64405872  0.61164973  0.86624669  1
  Ta5+  Ta55  1  0.16687363  0.12122198  0.88033425  1
  Ta5+  Ta56  1  0.37846530  0.63443525  0.35990641  1
  Ta5+  Ta57  1  0.12083008  0.61805813  0.88860915  1
  Ta5+  Ta58  1  0.37267452  0.88236495  0.36826687  1
  Ta5+  Ta59  1  0.63179334  0.62214960  0.61555977  1
  Ta5+  Ta60  1  0.60568127  0.87900614  0.35784150  1
  Ta5+  Ta61  1  0.39122576  0.62396645  0.62007258  1
  Ta5+  Ta62  1  0.38944349  0.39277511  0.36532724  1
  Ta5+  Ta63  1  0.09112487  0.38420197  0.37315938  1
  Ta5+  Ta64  1  0.37830055  0.38561596  0.61471758  1
  Ta5+  Ta65  1  0.67300631  0.59784720  0.11172363  1
  Ta5+  Ta66  1  0.87669859  0.59474691  0.61792749  1
  Ta5+  Ta67  1  0.86536574  0.87184474  0.15745342  1
  Ta5+  Ta68  1  0.89046542  0.12578038  0.61393754  1
  Ta5+  Ta69  1  0.86084705  0.11620363  0.87759909  1
  Ta5+  Ta70  1  0.87016056  0.61898234  0.36118685  1
  Ta5+  Ta71  1  0.44253100  0.07438866  0.37445398  1
  Ta5+  Ta72  1  0.84649196  0.87899542  0.91499846  1
  Ta5+  Ta73  1  0.83387924  0.37835472  0.36292396  1
  Ta5+  Ta74  1  0.61078573  0.10600437  0.37166916  1
  W6+  W75  1  0.62909601  0.12804063  0.87888461  1
  W6+  W76  1  0.37653943  0.37690223  0.88495669  1
  W6+  W77  1  0.87397446  0.34952543  0.88668833  1
  W6+  W78  1  0.87065614  0.55127572  0.95961387  1
  W6+  W79  1  0.66353786  0.38313069  0.37401947  1
  W6+  W80  1  0.13347430  0.37543296  0.88280985  1
  W6+  W81  1  0.13510196  0.10149654  0.13965184  1
  W6+  W82  1  0.10989217  0.87678279  0.61052709  1
  O2-  O83  1  0.06627931  -0.00917364  0.13774881  1
  O2-  O84  1  0.09031728  0.00064980  0.38446153  1
  O2-  O85  1  0.12637836  0.00999616  0.61432284  1
  O2-  O86  1  0.09261577  0.02024346  0.85481600  1
  O2-  O87  1  0.08099065  0.52975446  0.14564050  1
  O2-  O88  1  0.08676457  0.51119803  0.37472068  1
  O2-  O89  1  0.16347711  0.49761446  0.62913803  1
  O2-  O90  1  0.16057927  0.50720486  0.89241313  1
  O2-  O91  1  0.37817359  -0.00384823  0.13020558  1
  O2-  O92  1  0.33046310  -0.00722688  0.35907677  1
  O2-  O93  1  0.35411595  0.00792133  0.62964147  1
  O2-  O94  1  0.42044394  0.02923530  0.87714950  1
  O2-  O95  1  0.39676954  0.50297723  0.14728809  1
  O2-  O96  1  0.40819852  0.51214029  0.35723066  1
  O2-  O97  1  0.35619461  0.50538674  0.63590680  1
  O2-  O98  1  0.36689762  0.50491110  0.85008303  1
  O2-  O99  1  0.63280522  -0.00714161  0.11160507  1
  O2-  O100  1  0.65969348  -0.01522059  0.35663941  1
  O2-  O101  1  0.63719761  0.00094665  0.63218851  1
  O2-  O102  1  0.62855425  -0.00696056  0.88127627  1
  O2-  O103  1  0.60678079  0.49045415  0.11314283  1
  O2-  O104  1  0.63679255  0.51736079  0.37121657  1
  O2-  O105  1  0.63436868  0.49992402  0.63430107  1
  O2-  O106  1  0.64877738  0.49234475  0.84722108  1
  O2-  O107  1  0.87653390  -0.00554858  0.13599544  1
  O2-  O108  1  0.89164581  -0.00027087  0.38319227  1
  O2-  O109  1  0.89871784  0.00359062  0.62088864  1
  O2-  O110  1  0.85523083  -0.00671699  0.86676477  1
  O2-  O111  1  0.91203336  0.52282338  0.08797996  1
  O2-  O112  1  0.83160692  0.50113960  0.35991685  1
  O2-  O113  1  0.85592409  0.47856037  0.64195032  1
  O2-  O114  1  0.85558912  0.48000628  0.86210314  1
  O2-  O115  1  0.10439824  0.23001621  0.14889529  1
  O2-  O116  1  0.12312917  0.25645049  0.36853748  1
  O2-  O117  1  0.16963558  0.25843854  0.60383656  1
  O2-  O118  1  0.11352390  0.23793419  0.87969196  1
  O2-  O119  1  0.03838524  0.79993209  0.11176777  1
  O2-  O120  1  0.07971593  0.73436611  0.37883176  1
  O2-  O121  1  0.07436795  0.74130458  0.62631192  1
  O2-  O122  1  0.09292216  0.75620074  0.88143822  1
  O2-  O123  1  0.35333867  0.24658870  0.15749371  1
  O2-  O124  1  0.30543128  0.30168368  0.34568125  1
  O2-  O125  1  0.34289277  0.25977118  0.59834260  1
  O2-  O126  1  0.32744802  0.25639603  0.87790455  1
  O2-  O127  1  0.38635306  0.74909147  0.08795040  1
  O2-  O128  1  0.32777494  0.75937369  0.37936630  1
  O2-  O129  1  0.37066697  0.74908117  0.62561301  1
  O2-  O130  1  0.42965059  0.73278728  0.88709434  1
  O2-  O131  1  0.61251241  0.25269864  0.12455521  1
  O2-  O132  1  0.63682773  0.23815357  0.37586077  1
  O2-  O133  1  0.64450634  0.24589394  0.61720924  1
  O2-  O134  1  0.57032071  0.25130614  0.88001921  1
  O2-  O135  1  0.64274412  0.73793791  0.09695897  1
  O2-  O136  1  0.66408051  0.76295108  0.35918441  1
  O2-  O137  1  0.64819061  0.75395717  0.62581071  1
  O2-  O138  1  0.60362722  0.74845566  0.88059036  1
  O2-  O139  1  0.93236901  0.20397263  0.11586041  1
  O2-  O140  1  0.84053728  0.24514448  0.37434869  1
  O2-  O141  1  0.83592079  0.24525522  0.61228456  1
  O2-  O142  1  0.93925051  0.21410216  0.89885139  1
  O2-  O143  1  0.87177936  0.74402163  0.18225921  1
  O2-  O144  1  0.88953142  0.75248379  0.38676004  1
  O2-  O145  1  0.86738271  0.74991050  0.57687228  1
  O2-  O146  1  0.88499160  0.76806595  0.87167612  1
  O2-  O147  1  0.13196623  0.11977754  0.00103666  1
  O2-  O148  1  0.16701671  0.11708855  0.27734751  1
  O2-  O149  1  0.16431313  0.13284623  0.48627757  1
  O2-  O150  1  0.15474791  0.14934890  0.73935416  1
  O2-  O151  1  0.14225275  0.66573192  0.01117676  1
  O2-  O152  1  0.14378345  0.65675613  0.24850750  1
  O2-  O153  1  0.15144805  0.63892027  0.50428838  1
  O2-  O154  1  0.10830839  0.62539290  0.75827398  1
  O2-  O155  1  0.33765101  0.13137873  0.01483685  1
  O2-  O156  1  0.41994932  0.12325857  0.26491227  1
  O2-  O157  1  0.37417720  0.12972037  0.47698003  1
  O2-  O158  1  0.36276493  0.15594994  0.74121264  1
  O2-  O159  1  0.39457648  0.60909046  -0.00450503  1
  O2-  O160  1  0.37188279  0.65435989  0.23904130  1
  O2-  O161  1  0.35550717  0.63282611  0.49921251  1
  O2-  O162  1  0.40527481  0.64118370  0.74911151  1
  O2-  O163  1  0.66667866  0.13592597  0.00294511  1
  O2-  O164  1  0.61425116  0.12090250  0.24280172  1
  O2-  O165  1  0.63870384  0.11501595  0.49812633  1
  O2-  O166  1  0.59394475  0.13161685  0.74958618  1
  O2-  O167  1  0.60704751  0.60896681  -0.01350923  1
  O2-  O168  1  0.62650064  0.63137964  0.23108157  1
  O2-  O169  1  0.65482012  0.64438445  0.49194672  1
  O2-  O170  1  0.60062280  0.64237356  0.74742612  1
  O2-  O171  1  0.83602682  0.11224338  0.00007013  1
  O2-  O172  1  0.83035964  0.12291328  0.25161263  1
  O2-  O173  1  0.82751716  0.11828165  0.50194016  1
  O2-  O174  1  0.88422113  0.13586598  0.74712544  1
  O2-  O175  1  0.86200335  0.66514078  0.02847838  1
  O2-  O176  1  0.93652253  0.60420486  0.25778052  1
  O2-  O177  1  0.88138900  0.60698136  0.49070740  1
  O2-  O178  1  0.90175897  0.65163776  0.72525964  1
  O2-  O179  1  0.11978274  0.37383322  0.02756996  1
  O2-  O180  1  0.10819189  0.37829599  0.24371018  1
  O2-  O181  1  0.15878454  0.37999120  0.48183476  1
  O2-  O182  1  0.12168324  0.35239887  0.73977317  1
  O2-  O183  1  0.13859641  0.88695194  -0.00294659  1
  O2-  O184  1  0.12317581  0.85516301  0.25188677  1
  O2-  O185  1  0.15433126  0.84754580  0.48474737  1
  O2-  O186  1  0.07726381  0.87645641  0.74796559  1
  O2-  O187  1  0.36582087  0.37414234  0.02055253  1
  O2-  O188  1  0.44591670  0.36540526  0.25180748  1
  O2-  O189  1  0.35799226  0.39216294  0.48863182  1
  O2-  O190  1  0.38778646  0.35177227  0.74184055  1
  O2-  O191  1  0.35561019  0.88712822  -0.02067617  1
  O2-  O192  1  0.39292749  0.85741602  0.24352609  1
  O2-  O193  1  0.35833163  0.87571079  0.50153009  1
  O2-  O194  1  0.38931415  0.87689432  0.76455256  1
  O2-  O195  1  0.66825414  0.36177131  -0.01511359  1
  O2-  O196  1  0.64300070  0.37148399  0.24022175  1
  O2-  O197  1  0.67355502  0.37634868  0.51339074  1
  O2-  O198  1  0.59653491  0.35377918  0.74807895  1
  O2-  O199  1  0.56408876  0.86281924  0.00576894  1
  O2-  O200  1  0.58368550  0.86371044  0.22963894  1
  O2-  O201  1  0.62169149  0.86446587  0.49036827  1
  O2-  O202  1  0.60525860  0.86627702  0.75355101  1
  O2-  O203  1  0.85821391  0.36022441  0.02336059  1
  O2-  O204  1  0.85794465  0.37206351  0.23027691  1
  O2-  O205  1  0.85221619  0.37143581  0.49500403  1
  O2-  O206  1  0.91124398  0.33565865  0.74192986  1
  O2-  O207  1  0.88416870  0.84976607  0.03557922  1
  O2-  O208  1  0.93955636  0.87554773  0.25837735  1
  O2-  O209  1  0.97878350  0.87378920  0.52324871  1
  O2-  O210  1  0.89403497  0.84472649  0.72030435  1
  O2-  O211  1  -0.01664526  -0.11101265  -0.08929902  1
  O2-  O212  1  -0.01005936  0.15055509  0.29549675  1
  O2-  O213  1  -0.01425230  0.13934714  0.45518827  1
  O2-  O214  1  0.01002974  0.16464144  0.62798605  1
  O2-  O215  1  -0.00086116  0.60816573  -0.08613391  1
  O2-  O216  1  -0.02759449  0.36389108  0.36455495  1
  O2-  O217  1  0.00796179  0.36502046  0.58970549  1
  O2-  O218  1  0.00580670  0.58475181  0.60126022  1
  O2-  O219  1  0.26187831  0.03278953  -0.16310384  1
  O2-  O220  1  0.24869103  -0.14256747  0.12414738  1
  O2-  O221  1  0.24326212  -0.14262812  0.63929339  1
  O2-  O222  1  0.22931643  -0.13077754  0.85670650  1
  O2-  O223  1  0.24152175  0.52199816  0.07105292  1
  O2-  O224  1  0.26035803  0.38914506  0.18408188  1
  O2-  O225  1  0.25778293  0.59027395  0.36502447  1
  O2-  O226  1  0.25033374  0.66472359  0.87569468  1
  O2-  O227  1  0.49829511  0.12512801  0.09739353  1
  O2-  O228  1  0.48974166  -0.06789117  0.38135770  1
  O2-  O229  1  0.49207120  0.14644975  0.61060877  1
  O2-  O230  1  0.49370394  -0.12764182  0.62242952  1
  O2-  O231  1  0.50115241  0.41851473  -0.08546497  1
  O2-  O232  1  0.50198250  0.66109371  0.37510287  1
  O2-  O233  1  0.50063633  0.37465411  0.59507349  1
  O2-  O234  1  0.50819127  0.62235592  0.59376305  1
  O2-  O235  1  0.73019632  -0.12321525  -0.01343975  1
  O2-  O236  1  0.74775986  -0.12881656  0.17677259  1
  O2-  O237  1  0.75486258  -0.11977944  0.60142040  1
  O2-  O238  1  0.75143898  -0.14277707  0.82945530  1
  O2-  O239  1  0.75561662  0.52339506  0.02945383  1
  O2-  O240  1  0.76212522  0.53654030  0.19237633  1
  O2-  O241  1  0.75676272  0.62778895  0.64046128  1
  O2-  O242  1  0.75788245  0.64154619  0.85831739  1
