# generated using pymatgen
data_Gd19Ta56(WO20)8
_symmetry_space_group_name_H-M   'P 1'
_cell_length_a   15.51753505
_cell_length_b   15.46419481
_cell_length_c   15.27525573
_cell_angle_alpha   89.95096750
_cell_angle_beta   90.09569326
_cell_angle_gamma   90.24898975
_symmetry_Int_Tables_number   1
_chemical_formula_structural   Gd19Ta56(WO20)8
_chemical_formula_sum   'Gd19 Ta56 W8 O160'
_cell_volume   3665.50379848
_cell_formula_units_Z   1
loop_
 _symmetry_equiv_pos_site_id
 _symmetry_equiv_pos_as_xyz
  1  'x, y, z'
loop_
 _atom_type_symbol
 _atom_type_oxidation_number
  Gd3+  3.0
  Ta5+  5.0
  W6+  6.0
  O2-  -2.0
loop_
 _atom_site_type_symbol
 _atom_site_label
 _atom_site_symmetry_multiplicity
 _atom_site_fract_x
 _atom_site_fract_y
 _atom_site_fract_z
 _atom_site_occupancy
  Gd3+  Gd0  1  0.46237942  0.24627327  0.26766426  1
  Gd3+  Gd1  1  0.45768326  0.25866254  0.49435920  1
  Gd3+  Gd2  1  0.25819840  0.75934648  0.76225948  1
  Gd3+  Gd3  1  0.56923358  0.76824935  0.01975138  1
  Gd3+  Gd4  1  0.26309618  0.73080158  0.26010718  1
  Gd3+  Gd5  1  0.02164105  0.75199746  0.72934505  1
  Gd3+  Gd6  1  0.26776068  0.75471982  0.01056988  1
  Gd3+  Gd7  1  0.51026480  0.76329879  0.49280885  1
  Gd3+  Gd8  1  -0.03445221  0.21579293  0.25857786  1
  Gd3+  Gd9  1  0.70458634  0.23660699  0.00206316  1
  Gd3+  Gd10  1  0.01229194  0.73949414  0.24375900  1
  Gd3+  Gd11  1  0.77553926  0.72655523  0.22805688  1
  Gd3+  Gd12  1  0.24306809  0.26176839  0.24454308  1
  Gd3+  Gd13  1  0.04879918  0.75056451  0.47843773  1
  Gd3+  Gd14  1  -0.02215583  0.25158673  0.76026963  1
  Gd3+  Gd15  1  0.74528246  0.76697268  0.76712597  1
  Gd3+  Gd16  1  0.27448388  0.75212073  0.50894219  1
  Gd3+  Gd17  1  0.71791817  0.24559172  0.75321089  1
  Gd3+  Gd18  1  -0.00880710  0.24388899  0.49313024  1
  Ta5+  Ta19  1  0.63131192  0.64358360  0.36867066  1
  Ta5+  Ta20  1  0.39050647  0.14392252  0.86437935  1
  Ta5+  Ta21  1  0.14473286  0.10415188  0.38127533  1
  Ta5+  Ta22  1  0.14382404  0.37435215  0.09171356  1
  Ta5+  Ta23  1  0.37338231  0.89281030  0.88679622  1
  Ta5+  Ta24  1  0.60159418  0.62527691  0.86246066  1
  Ta5+  Ta25  1  0.40772571  0.37219753  0.86780640  1
  Ta5+  Ta26  1  0.57271132  0.36395792  0.12318989  1
  Ta5+  Ta27  1  0.38523134  0.61359747  0.64316171  1
  Ta5+  Ta28  1  0.90787915  0.87421282  0.91010422  1
  Ta5+  Ta29  1  0.40445842  0.37135432  0.11696128  1
  Ta5+  Ta30  1  0.14183073  0.58687881  0.37015634  1
  Ta5+  Ta31  1  0.89366461  0.88729186  0.12674125  1
  Ta5+  Ta32  1  0.11922768  0.38528441  0.37600859  1
  Ta5+  Ta33  1  0.11863686  0.39447897  0.64063312  1
  Ta5+  Ta34  1  0.88614990  0.58951140  0.61861460  1
  Ta5+  Ta35  1  0.40310510  0.12988333  0.64254775  1
  Ta5+  Ta36  1  0.64959157  0.59917208  0.11469595  1
  Ta5+  Ta37  1  0.84886523  0.08906781  0.12640747  1
  Ta5+  Ta38  1  0.40589025  0.62123810  0.12658458  1
  Ta5+  Ta39  1  0.84608003  0.35516591  0.61876177  1
  Ta5+  Ta40  1  0.21378442  0.93931527  0.37806440  1
  Ta5+  Ta41  1  0.39362415  0.88132490  0.63658294  1
  Ta5+  Ta42  1  0.65001721  0.62778970  0.62466842  1
  Ta5+  Ta43  1  0.61111714  0.90254410  0.87425782  1
  Ta5+  Ta44  1  0.11846847  0.61133495  0.11372449  1
  Ta5+  Ta45  1  0.11216627  0.12490032  0.86829108  1
  Ta5+  Ta46  1  0.88395479  0.88661516  0.61363313  1
  Ta5+  Ta47  1  0.56701479  0.13222649  0.12278450  1
  Ta5+  Ta48  1  0.12860071  0.37430659  0.89107158  1
  Ta5+  Ta49  1  0.14102276  0.89415927  0.61366121  1
  Ta5+  Ta50  1  0.84069543  0.11509024  0.87986147  1
  Ta5+  Ta51  1  0.11561458  0.62266180  0.88783655  1
  Ta5+  Ta52  1  0.60500281  0.38543075  0.62876509  1
  Ta5+  Ta53  1  0.13456630  0.89235453  0.14662478  1
  Ta5+  Ta54  1  0.41110882  0.92821279  0.12670822  1
  Ta5+  Ta55  1  0.57268655  0.13185971  0.63432031  1
  Ta5+  Ta56  1  0.87948116  0.62598572  0.87951698  1
  Ta5+  Ta57  1  0.11542432  0.88150886  0.90322283  1
  Ta5+  Ta58  1  0.36020056  0.38305629  0.63520413  1
  Ta5+  Ta59  1  0.34239750  0.09404279  0.38352326  1
  Ta5+  Ta60  1  0.88479900  0.85310855  0.37362358  1
  Ta5+  Ta61  1  0.57788454  0.37630128  0.87620862  1
  Ta5+  Ta62  1  0.36164918  0.12390155  0.11529142  1
  Ta5+  Ta63  1  0.33618112  0.42296535  0.37802814  1
  Ta5+  Ta64  1  0.67714322  0.89881191  0.38029351  1
  Ta5+  Ta65  1  0.87078650  0.34749339  0.11601007  1
  Ta5+  Ta66  1  0.14615602  0.59255376  0.62207689  1
  Ta5+  Ta67  1  0.55753212  0.14223968  0.86453188  1
  Ta5+  Ta68  1  0.83004524  0.35634485  0.37120603  1
  Ta5+  Ta69  1  0.66369192  0.91218894  0.12943706  1
  Ta5+  Ta70  1  0.63540895  0.89027381  0.62362716  1
  Ta5+  Ta71  1  0.90594203  0.59578643  0.12056270  1
  Ta5+  Ta72  1  0.37433794  0.88866562  0.37182573  1
  Ta5+  Ta73  1  0.60768729  0.13211080  0.37942460  1
  Ta5+  Ta74  1  0.40108663  0.62248629  0.87628921  1
  W6+  W75  1  0.86372716  0.11126006  0.61354456  1
  W6+  W76  1  0.11912734  0.13715787  0.12255931  1
  W6+  W77  1  0.90140762  0.59690443  0.37809933  1
  W6+  W78  1  0.40064350  0.61278435  0.38147596  1
  W6+  W79  1  0.83433033  0.10222903  0.40076518  1
  W6+  W80  1  0.83238095  0.37376312  0.88313977  1
  W6+  W81  1  0.58167991  0.39826851  0.37939490  1
  W6+  W82  1  0.11586842  0.14382342  0.62704502  1
  O2-  O83  1  0.12438751  0.00840270  0.14607588  1
  O2-  O84  1  0.08580764  0.00074324  0.37874790  1
  O2-  O85  1  0.12551269  0.00885090  0.61936126  1
  O2-  O86  1  0.11893463  -0.00488867  0.86045721  1
  O2-  O87  1  0.16391857  0.49885065  0.10442467  1
  O2-  O88  1  0.06158228  0.49079195  0.34708276  1
  O2-  O89  1  0.06055224  0.50934736  0.65481646  1
  O2-  O90  1  0.11024985  0.50395468  0.88809840  1
  O2-  O91  1  0.31212802  0.00215894  0.11317956  1
  O2-  O92  1  0.42609297  0.00514164  0.38610074  1
  O2-  O93  1  0.41430624  -0.00196535  0.64181610  1
  O2-  O94  1  0.38881811  0.00863940  0.87980438  1
  O2-  O95  1  0.41198323  0.49981808  0.12326194  1
  O2-  O96  1  0.44747200  0.47788574  0.37706700  1
  O2-  O97  1  0.41806714  0.49808947  0.62795794  1
  O2-  O98  1  0.40404175  0.50322393  0.88644549  1
  O2-  O99  1  0.63754265  0.03320230  0.12120730  1
  O2-  O100  1  0.61884965  0.00659008  0.38935530  1
  O2-  O101  1  0.60215928  0.00414309  0.62195583  1
  O2-  O102  1  0.57888360  0.01630636  0.86868490  1
  O2-  O103  1  0.61732627  0.48612907  0.11497471  1
  O2-  O104  1  0.63126265  0.52572253  0.38132174  1
  O2-  O105  1  0.60306776  0.51701395  0.63603448  1
  O2-  O106  1  0.59757208  0.50559744  0.87993773  1
  O2-  O107  1  0.93589359  0.00618657  0.10217369  1
  O2-  O108  1  0.79046288  -0.05329800  0.39641571  1
  O2-  O109  1  0.91568946  -0.00518786  0.65087802  1
  O2-  O110  1  0.86819773  -0.01671920  0.87854370  1
  O2-  O111  1  0.90282539  0.47334685  0.11419195  1
  O2-  O112  1  0.86394454  0.47223840  0.37472956  1
  O2-  O113  1  0.89652107  0.47158068  0.62796004  1
  O2-  O114  1  0.85074458  0.51198959  0.86099738  1
  O2-  O115  1  0.17633395  0.25425325  0.10572758  1
  O2-  O116  1  0.03268319  0.30276177  0.36042346  1
  O2-  O117  1  0.07889565  0.27711107  0.64193946  1
  O2-  O118  1  0.10207576  0.25512781  0.86205580  1
  O2-  O119  1  0.13663790  0.74094416  0.14358687  1
  O2-  O120  1  0.18379264  0.70551110  0.39889356  1
  O2-  O121  1  0.14372819  0.72572245  0.60076482  1
  O2-  O122  1  0.14311604  0.75680782  0.88588796  1
  O2-  O123  1  0.35318361  0.25060076  0.13565670  1
  O2-  O124  1  0.36978080  0.22006714  0.37978198  1
  O2-  O125  1  0.39222843  0.26449376  0.63735056  1
  O2-  O126  1  0.35628197  0.26101039  0.85886838  1
  O2-  O127  1  0.33954482  0.73462480  0.13477284  1
  O2-  O128  1  0.35547582  0.75235374  0.37669002  1
  O2-  O129  1  0.35410761  0.74513378  0.64317409  1
  O2-  O130  1  0.34397288  0.74369388  0.88378963  1
  O2-  O131  1  0.62870903  0.24299716  0.13733691  1
  O2-  O132  1  0.55518850  0.25729074  0.38058466  1
  O2-  O133  1  0.59667721  0.25834163  0.63535065  1
  O2-  O134  1  0.62678506  0.25305626  0.86915576  1
  O2-  O135  1  0.68513797  0.78514388  0.11911112  1
  O2-  O136  1  0.69009600  0.76579168  0.36425468  1
  O2-  O137  1  0.66079647  0.75381101  0.64544880  1
  O2-  O138  1  0.64123620  0.75914322  0.87370156  1
  O2-  O139  1  0.87746813  0.21829172  0.11861024  1
  O2-  O140  1  0.87934016  0.23295508  0.37815795  1
  O2-  O141  1  0.90775587  0.24234725  0.62420711  1
  O2-  O142  1  0.80416288  0.23765464  0.88853957  1
  O2-  O143  1  0.90372223  0.74213726  0.14293037  1
  O2-  O144  1  0.86617980  0.73333143  0.35587635  1
  O2-  O145  1  1.01798525  0.84520956  0.60591160  1
  O2-  O146  1  0.85357982  0.75858431  0.87142384  1
  O2-  O147  1  0.10887977  0.12606350  -0.01194044  1
  O2-  O148  1  0.11460426  0.16508023  0.26779870  1
  O2-  O149  1  0.12272563  0.17110211  0.48681171  1
  O2-  O150  1  0.05220955  0.12855768  0.75222324  1
  O2-  O151  1  0.18047278  0.63755756  -0.00411664  1
  O2-  O152  1  0.17235298  0.61251123  0.24729645  1
  O2-  O153  1  0.12057412  0.58125865  0.49992388  1
  O2-  O154  1  0.14480856  0.64120590  0.76058470  1
  O2-  O155  1  0.37467129  0.14141165  -0.00532800  1
  O2-  O156  1  0.37375619  0.12461588  0.24783328  1
  O2-  O157  1  0.38299727  0.12752512  0.51757113  1
  O2-  O158  1  0.34057658  0.12221287  0.74938364  1
  O2-  O159  1  0.35792105  0.62599864  0.00789042  1
  O2-  O160  1  0.36573589  0.61540884  0.24605670  1
  O2-  O161  1  0.42056286  0.64739314  0.52200046  1
  O2-  O162  1  0.33335502  0.62285225  0.76415239  1
  O2-  O163  1  0.57034704  0.14881526  -0.00321287  1
  O2-  O164  1  0.55881659  0.13003941  0.26084652  1
  O2-  O165  1  0.56921767  0.14091622  0.50076224  1
  O2-  O166  1  0.62598040  0.12998645  0.75075172  1
  O2-  O167  1  0.64933998  0.63507458  -0.00666076  1
  O2-  O168  1  0.65167517  0.63988070  0.24086502  1
  O2-  O169  1  0.61857342  0.65657733  0.50555498  1
  O2-  O170  1  0.68317072  0.62998925  0.76198944  1
  O2-  O171  1  0.80209831  0.10437462  0.00542248  1
  O2-  O172  1  0.86778232  0.09987909  0.25212108  1
  O2-  O173  1  0.93373580  0.10890341  0.49106060  1
  O2-  O174  1  0.84788742  0.13735202  0.75547044  1
  O2-  O175  1  0.86723303  0.62854082  -0.00201168  1
  O2-  O176  1  0.86771671  0.60750046  0.24552689  1
  O2-  O177  1  0.94082441  0.64231910  0.52366040  1
  O2-  O178  1  0.89561595  0.63842866  0.73046499  1
  O2-  O179  1  0.05483078  0.36965978  0.00721009  1
  O2-  O180  1  0.14055177  0.36849119  0.22512029  1
  O2-  O181  1  0.10909486  0.38775833  0.50304267  1
  O2-  O182  1  0.14854956  0.39118229  0.76189658  1
  O2-  O183  1  0.17022799  0.87306853  0.02607098  1
  O2-  O184  1  0.18983018  0.87147574  0.25736625  1
  O2-  O185  1  0.16142725  0.86238751  0.48687866  1
  O2-  O186  1  0.13975062  0.84592523  0.73204479  1
  O2-  O187  1  0.40831996  0.36198518  -0.00383255  1
  O2-  O188  1  0.35631708  0.37237764  0.25925718  1
  O2-  O189  1  0.35244498  0.38130520  0.49757079  1
  O2-  O190  1  0.34704451  0.39739525  0.75484429  1
  O2-  O191  1  0.37666192  0.86765691  0.01827660  1
  O2-  O192  1  0.38835260  0.88617011  0.23838231  1
  O2-  O193  1  0.39250070  0.85923157  0.50464646  1
  O2-  O194  1  0.37954016  0.86406116  0.76246849  1
  O2-  O195  1  0.60856038  0.35407916  -0.00314876  1
  O2-  O196  1  0.56182657  0.37270882  0.24772457  1
  O2-  O197  1  0.55243521  0.38288180  0.51566928  1
  O2-  O198  1  0.63032979  0.37551002  0.75595954  1
  O2-  O199  1  0.65867554  0.89891020  -0.01114664  1
  O2-  O200  1  0.66411606  0.90088905  0.25499001  1
  O2-  O201  1  0.62594546  0.86352457  0.49500714  1
  O2-  O202  1  0.66246948  0.89041953  0.75704730  1
  O2-  O203  1  0.79549565  0.35909579  0.02153712  1
  O2-  O204  1  0.86311229  0.34065195  0.24530561  1
  O2-  O205  1  0.87611989  0.35077614  0.49424710  1
  O2-  O206  1  0.84508725  0.34383655  0.74719019  1
  O2-  O207  1  0.84741488  0.85025228  0.01765282  1
  O2-  O208  1  0.85383807  0.86679783  0.24688913  1
  O2-  O209  1  0.88849048  0.83486333  0.49927399  1
  O2-  O210  1  0.87995097  0.80715410  0.70591801  1
  O2-  O211  1  0.01057808  -0.11109148  -0.01609138  1
  O2-  O212  1  0.01564211  -0.12889211  0.16933513  1
  O2-  O213  1  0.00442174  -0.16080911  0.36205903  1
  O2-  O214  1  0.00572266  -0.14847556  0.83016774  1
  O2-  O215  1  0.02372460  0.60717566  0.03280373  1
  O2-  O216  1  0.01675124  0.60277143  0.19012736  1
  O2-  O217  1  0.02653556  0.65692924  0.36590736  1
  O2-  O218  1  -0.00062686  0.65574692  0.86249552  1
  O2-  O219  1  0.24919453  -0.11651353  -0.12049658  1
  O2-  O220  1  0.24158714  0.04965832  0.30431760  1
  O2-  O221  1  0.24452398  0.04443426  0.45957624  1
  O2-  O222  1  0.26605970  -0.11688954  0.62108372  1
  O2-  O223  1  0.21579043  0.37472063  -0.02535115  1
  O2-  O224  1  0.23810892  0.50186234  0.37969379  1
  O2-  O225  1  0.23126469  0.33252662  0.37468129  1
  O2-  O226  1  0.26879505  0.59632109  0.60035459  1
  O2-  O227  1  0.46948733  0.04040133  0.11874651  1
  O2-  O228  1  0.53438812  -0.11799018  0.11614011  1
  O2-  O229  1  0.51423815  -0.16002935  0.63032978  1
  O2-  O230  1  0.49972818  -0.14476400  0.89922427  1
  O2-  O231  1  0.50133821  0.66890222  -0.06242703  1
  O2-  O232  1  0.52429995  0.65725339  0.12095629  1
  O2-  O233  1  0.51931716  0.68665900  0.36153822  1
  O2-  O234  1  0.50077595  0.63096686  0.78360760  1
  O2-  O235  1  0.78464228  -0.03702246  0.12948842  1
  O2-  O236  1  0.71940907  0.15539289  0.35327107  1
  O2-  O237  1  0.77570703  0.11153349  0.52274579  1
  O2-  O238  1  0.76079134  -0.10014707  0.61003786  1
  O2-  O239  1  0.76953186  0.60573662  0.12265658  1
  O2-  O240  1  0.71411013  0.35590451  0.37807484  1
  O2-  O241  1  0.72953099  0.38394908  0.60433085  1
  O2-  O242  1  0.76798430  0.60394658  0.59504038  1
