# generated using pymatgen
data_Gd19Ta56(WO20)8
_symmetry_space_group_name_H-M   'P 1'
_cell_length_a   15.60707821
_cell_length_b   15.53823310
_cell_length_c   15.15010876
_cell_angle_alpha   89.86061762
_cell_angle_beta   89.80581160
_cell_angle_gamma   90.06717725
_symmetry_Int_Tables_number   1
_chemical_formula_structural   Gd19Ta56(WO20)8
_chemical_formula_sum   'Gd19 Ta56 W8 O160'
_cell_volume   3673.96409412
_cell_formula_units_Z   1
loop_
 _symmetry_equiv_pos_site_id
 _symmetry_equiv_pos_as_xyz
  1  'x, y, z'
loop_
 _atom_type_symbol
 _atom_type_oxidation_number
  Gd3+  3.0
  Ta5+  5.0
  W6+  6.0
  O2-  -2.0
loop_
 _atom_site_type_symbol
 _atom_site_label
 _atom_site_symmetry_multiplicity
 _atom_site_fract_x
 _atom_site_fract_y
 _atom_site_fract_z
 _atom_site_occupancy
  Gd3+  Gd0  1  0.50448803  0.77783359  0.47364301  1
  Gd3+  Gd1  1  0.25717410  0.76204145  0.72924958  1
  Gd3+  Gd2  1  0.24525550  0.24883617  0.76034966  1
  Gd3+  Gd3  1  0.73978586  0.74973010  0.77793105  1
  Gd3+  Gd4  1  0.48715294  0.24815940  0.26193492  1
  Gd3+  Gd5  1  0.24468862  0.76047121  0.22330304  1
  Gd3+  Gd6  1  0.75520985  0.24548352  -0.02792967  1
  Gd3+  Gd7  1  -0.00389860  0.25664480  0.23838844  1
  Gd3+  Gd8  1  -0.02474850  0.74865347  -0.00704297  1
  Gd3+  Gd9  1  0.27135679  0.77903111  0.48417277  1
  Gd3+  Gd10  1  0.74767035  0.73253220  0.25930536  1
  Gd3+  Gd11  1  0.30333142  0.24646974  0.49755265  1
  Gd3+  Gd12  1  0.00206644  0.26123969  0.49091874  1
  Gd3+  Gd13  1  0.23225481  0.75389528  -0.02177968  1
  Gd3+  Gd14  1  0.00699106  0.75621413  0.74697951  1
  Gd3+  Gd15  1  0.50201807  0.24060224  0.71947672  1
  Gd3+  Gd16  1  0.73075581  0.26837809  0.24866468  1
  Gd3+  Gd17  1  0.74190117  0.73685344  0.51758772  1
  Gd3+  Gd18  1  0.72014453  0.73991329  0.01773941  1
  Ta5+  Ta19  1  0.09255444  0.60774852  0.86051324  1
  Ta5+  Ta20  1  0.82717557  0.88106311  0.38947759  1
  Ta5+  Ta21  1  0.88172548  0.88263993  0.64187841  1
  Ta5+  Ta22  1  0.16020638  0.12313883  0.61877977  1
  Ta5+  Ta23  1  0.86869970  0.39086585  0.12340696  1
  Ta5+  Ta24  1  0.09016029  0.90035705  0.86632127  1
  Ta5+  Ta25  1  0.38311827  0.63796640  0.60866080  1
  Ta5+  Ta26  1  0.87966225  0.89878109  0.87478569  1
  Ta5+  Ta27  1  0.58490589  0.61688409  0.15903640  1
  Ta5+  Ta28  1  0.57888547  0.87133352  0.89048268  1
  Ta5+  Ta29  1  0.58845818  0.61039703  0.89707741  1
  Ta5+  Ta30  1  0.44260120  0.86933718  0.65842904  1
  Ta5+  Ta31  1  0.11998993  0.61996892  0.10594494  1
  Ta5+  Ta32  1  0.85773276  0.87904774  0.13154994  1
  Ta5+  Ta33  1  0.41077959  0.12426199  0.86949307  1
  Ta5+  Ta34  1  0.41855799  0.88128535  0.30037327  1
  Ta5+  Ta35  1  0.08721827  0.14299880  0.86071958  1
  Ta5+  Ta36  1  0.40828154  0.37449464  0.85414830  1
  Ta5+  Ta37  1  0.12007411  0.88709896  0.60979230  1
  Ta5+  Ta38  1  0.13626953  0.13154931  0.11008783  1
  Ta5+  Ta39  1  0.65020040  0.11628574  0.12965637  1
  Ta5+  Ta40  1  0.57415198  0.12223920  0.90097046  1
  Ta5+  Ta41  1  0.62173320  0.37083551  0.45160296  1
  Ta5+  Ta42  1  0.66107834  0.36719244  0.66173154  1
  Ta5+  Ta43  1  0.63132920  0.12695279  0.38853967  1
  Ta5+  Ta44  1  0.13248849  0.62852104  0.61025503  1
  Ta5+  Ta45  1  0.85940919  0.12273791  0.12722508  1
  Ta5+  Ta46  1  0.89349018  0.61819686  0.64730633  1
  Ta5+  Ta47  1  0.12814602  0.62993744  0.36424721  1
  Ta5+  Ta48  1  0.60896221  0.87082801  0.64792162  1
  Ta5+  Ta49  1  0.60459796  0.87554732  0.14518319  1
  Ta5+  Ta50  1  0.92407593  0.13876176  0.88430267  1
  Ta5+  Ta51  1  0.34655533  0.38481870  0.34473921  1
  Ta5+  Ta52  1  0.85699616  0.38793991  0.38380384  1
  Ta5+  Ta53  1  0.56854988  0.36200453  0.90424061  1
  Ta5+  Ta54  1  0.65993413  0.88505982  0.38493535  1
  Ta5+  Ta55  1  0.86231251  0.12525297  0.37238716  1
  Ta5+  Ta56  1  0.40272313  0.62494314  0.34963452  1
  Ta5+  Ta57  1  0.09656289  0.89030814  0.10796204  1
  Ta5+  Ta58  1  0.87869331  0.60006029  0.86748071  1
  Ta5+  Ta59  1  0.12254256  0.12186725  0.36892416  1
  Ta5+  Ta60  1  0.14487734  0.37579859  0.11052947  1
  Ta5+  Ta61  1  0.36478696  0.09877482  0.36324597  1
  Ta5+  Ta62  1  0.89008082  0.37098579  0.64549437  1
  Ta5+  Ta63  1  0.37138994  0.09840764  0.62035684  1
  Ta5+  Ta64  1  0.36350251  0.61507316  0.10396090  1
  Ta5+  Ta65  1  0.14317723  0.38782962  0.34669794  1
  Ta5+  Ta66  1  0.88892875  0.12444800  0.63211084  1
  Ta5+  Ta67  1  0.41807436  0.40049201  0.59012058  1
  Ta5+  Ta68  1  0.37667914  0.88108638  0.86764603  1
  Ta5+  Ta69  1  0.62346267  0.37806896  0.11404661  1
  Ta5+  Ta70  1  0.08740205  0.36372140  0.86761254  1
  Ta5+  Ta71  1  0.92373270  0.35850919  0.87977478  1
  Ta5+  Ta72  1  0.89131423  0.63195010  0.38859466  1
  Ta5+  Ta73  1  0.16681425  0.38651844  0.61773404  1
  Ta5+  Ta74  1  0.61506167  0.60586840  0.38299575  1
  W6+  W75  1  0.39282265  0.36328465  0.09616889  1
  W6+  W76  1  0.63849533  0.11602590  0.64651791  1
  W6+  W77  1  0.38843553  0.11366935  0.10249825  1
  W6+  W78  1  0.13506860  0.88130588  0.36411782  1
  W6+  W79  1  0.39344210  0.87054543  0.08411814  1
  W6+  W80  1  0.87186374  0.62075557  0.12115754  1
  W6+  W81  1  0.62920134  0.61406715  0.64386603  1
  W6+  W82  1  0.34832269  0.61408959  0.84989208  1
  O2-  O83  1  0.09243088  0.01077938  0.12511294  1
  O2-  O84  1  0.08950135  0.01100689  0.37280933  1
  O2-  O85  1  0.11288890  0.00847766  0.62609935  1
  O2-  O86  1  0.10462883  0.01637545  0.84275454  1
  O2-  O87  1  0.14585918  0.50004477  0.11631092  1
  O2-  O88  1  0.10846093  0.50062490  0.37143824  1
  O2-  O89  1  0.14944215  0.50974943  0.63179231  1
  O2-  O90  1  0.09828888  0.49076771  0.84089969  1
  O2-  O91  1  0.42529052  -0.00098350  0.09209350  1
  O2-  O92  1  0.36641636  -0.02362814  0.36640635  1
  O2-  O93  1  0.41583757  -0.01120747  0.61106944  1
  O2-  O94  1  0.39068342  0.00010962  0.86972454  1
  O2-  O95  1  0.37344330  0.49818591  0.11046037  1
  O2-  O96  1  0.37260352  0.50735768  0.36388640  1
  O2-  O97  1  0.42475936  0.51857632  0.58386442  1
  O2-  O98  1  0.37565400  0.48783583  0.83940418  1
  O2-  O99  1  0.62831326  -0.00277176  0.14906954  1
  O2-  O100  1  0.64894023  0.01127695  0.36374266  1
  O2-  O101  1  0.62884863  -0.01304686  0.64414761  1
  O2-  O102  1  0.58299652  -0.00899319  0.89689607  1
  O2-  O103  1  0.59076607  0.49885493  0.13968778  1
  O2-  O104  1  0.60211801  0.47848746  0.39394670  1
  O2-  O105  1  0.63192102  0.48194850  0.65505504  1
  O2-  O106  1  0.58517983  0.48926679  0.90268291  1
  O2-  O107  1  0.87751993  0.00126702  0.12226383  1
  O2-  O108  1  0.84252351  0.00943866  0.38337109  1
  O2-  O109  1  0.90702605  0.00154141  0.61850213  1
  O2-  O110  1  0.87843467  0.01608176  0.89285769  1
  O2-  O111  1  0.92040862  0.49466563  0.10347787  1
  O2-  O112  1  0.86741967  0.50921756  0.40045409  1
  O2-  O113  1  0.89478451  0.49515426  0.63304519  1
  O2-  O114  1  0.88276859  0.48203855  0.87541368  1
  O2-  O115  1  0.09372599  0.25110995  0.11876624  1
  O2-  O116  1  0.09164060  0.26674414  0.36550189  1
  O2-  O117  1  0.19374844  0.25378382  0.60429437  1
  O2-  O118  1  0.15554103  0.25226956  0.87568890  1
  O2-  O119  1  0.11639223  0.74920939  0.08663939  1
  O2-  O120  1  0.18663841  0.74458189  0.36512609  1
  O2-  O121  1  0.16963787  0.75711999  0.60043011  1
  O2-  O122  1  0.08118092  0.75589944  0.88186990  1
  O2-  O123  1  0.42695562  0.23592234  0.12930429  1
  O2-  O124  1  0.35829683  0.24922303  0.35046743  1
  O2-  O125  1  0.39483008  0.23437858  0.61103195  1
  O2-  O126  1  0.37783444  0.24775350  0.82085706  1
  O2-  O127  1  0.32179548  0.74662147  0.09715091  1
  O2-  O128  1  0.39809401  0.76364526  0.35006054  1
  O2-  O129  1  0.42550242  0.73619607  0.66748858  1
  O2-  O130  1  0.32447121  0.75128266  0.85880746  1
  O2-  O131  1  0.67371076  0.25391210  0.10328158  1
  O2-  O132  1  0.59200198  0.26288662  0.39792081  1
  O2-  O133  1  0.62143538  0.25218096  0.63269343  1
  O2-  O134  1  0.61754232  0.24580954  0.92330203  1
  O2-  O135  1  0.63574561  0.73715171  0.15026800  1
  O2-  O136  1  0.64358455  0.73787428  0.38211036  1
  O2-  O137  1  0.66799525  0.74671888  0.64795136  1
  O2-  O138  1  0.63585029  0.74740799  0.89612513  1
  O2-  O139  1  0.86387052  0.25701832  0.15987421  1
  O2-  O140  1  0.90550732  0.26419551  0.36990912  1
  O2-  O141  1  0.92925124  0.24910648  0.62201392  1
  O2-  O142  1  0.86603468  0.24743941  0.86064030  1
  O2-  O143  1  0.82203642  0.75318123  0.12989953  1
  O2-  O144  1  0.83485837  0.74487425  0.39185409  1
  O2-  O145  1  0.87330461  0.74916918  0.66536464  1
  O2-  O146  1  0.89308154  0.75264413  0.85768919  1
  O2-  O147  1  0.11456556  0.12639679  -0.01069633  1
  O2-  O148  1  0.09900026  0.14369471  0.24666808  1
  O2-  O149  1  0.09996567  0.14791346  0.49719821  1
  O2-  O150  1  0.10681672  0.16285338  0.72639487  1
  O2-  O151  1  0.14944453  0.61698244  -0.02647170  1
  O2-  O152  1  0.13021428  0.63803266  0.23740512  1
  O2-  O153  1  0.16736940  0.62487808  0.48952657  1
  O2-  O154  1  0.13576221  0.65977596  0.74398310  1
  O2-  O155  1  0.35950203  0.14689578  -0.01966522  1
  O2-  O156  1  0.42172699  0.11110732  0.25487778  1
  O2-  O157  1  0.41159075  0.12373361  0.47456039  1
  O2-  O158  1  0.42949830  0.11271152  0.73242384  1
  O2-  O159  1  0.32491359  0.62177693  -0.01330352  1
  O2-  O160  1  0.33750011  0.63742557  0.23864225  1
  O2-  O161  1  0.35168198  0.65259400  0.47812802  1
  O2-  O162  1  0.31510593  0.61668961  0.71032168  1
  O2-  O163  1  0.57113417  0.12210481  0.03729934  1
  O2-  O164  1  0.60773748  0.15874944  0.25115518  1
  O2-  O165  1  0.61889901  0.11574597  0.50697432  1
  O2-  O166  1  0.60872926  0.13854330  0.77859640  1
  O2-  O167  1  0.62895977  0.62394335  0.02154208  1
  O2-  O168  1  0.67313442  0.60523285  0.26490965  1
  O2-  O169  1  0.66565596  0.61061663  0.49965293  1
  O2-  O170  1  0.63805188  0.62519306  0.78270042  1
  O2-  O171  1  0.91239073  0.15529373  0.01767800  1
  O2-  O172  1  0.92318197  0.12398843  0.26080088  1
  O2-  O173  1  0.91145217  0.13622646  0.48875453  1
  O2-  O174  1  0.92025234  0.12133471  0.75004562  1
  O2-  O175  1  0.82397896  0.63669523  -0.02298158  1
  O2-  O176  1  0.87204187  0.63136010  0.26621138  1
  O2-  O177  1  0.85730602  0.63819498  0.52505435  1
  O2-  O178  1  0.81361998  0.61440128  0.75236399  1
  O2-  O179  1  0.10565363  0.37787058  -0.00727103  1
  O2-  O180  1  0.08291950  0.37749345  0.23057383  1
  O2-  O181  1  0.08531336  0.37645047  0.52621677  1
  O2-  O182  1  0.13912322  0.35647917  0.73519098  1
  O2-  O183  1  0.14284089  0.88943187  -0.01136489  1
  O2-  O184  1  0.13817765  0.86290098  0.22133201  1
  O2-  O185  1  0.18089422  0.89622043  0.50179212  1
  O2-  O186  1  0.13860815  0.85824959  0.73957916  1
  O2-  O187  1  0.36514664  0.35541182  -0.03368970  1
  O2-  O188  1  0.41718291  0.37716997  0.24436792  1
  O2-  O189  1  0.39686357  0.36538760  0.46638445  1
  O2-  O190  1  0.44008033  0.37562664  0.71150078  1
  O2-  O191  1  0.30915382  0.87932979  -0.02387023  1
  O2-  O192  1  0.32748896  0.87973997  0.21221442  1
  O2-  O193  1  0.39089993  0.84034719  0.53570168  1
  O2-  O194  1  0.33146043  0.88467462  0.74428470  1
  O2-  O195  1  0.52655832  0.36348376  0.03863020  1
  O2-  O196  1  0.60205392  0.34124813  0.23114548  1
  O2-  O197  1  0.54091001  0.37779575  0.54781672  1
  O2-  O198  1  0.61117528  0.35013271  0.77702758  1
  O2-  O199  1  0.63698319  0.86605083  0.02094131  1
  O2-  O200  1  0.66627812  0.86257360  0.25315568  1
  O2-  O201  1  0.62966865  0.85341844  0.51437070  1
  O2-  O202  1  0.64385640  0.86285563  0.77738246  1
  O2-  O203  1  0.86475996  0.34841751  0.00402749  1
  O2-  O204  1  0.89374716  0.39275850  0.26144901  1
  O2-  O205  1  0.89577157  0.36847404  0.50746457  1
  O2-  O206  1  0.95614240  0.37173787  0.74722152  1
  O2-  O207  1  0.83168332  0.86030014  -0.00632144  1
  O2-  O208  1  0.84600636  0.87382012  0.25628640  1
  O2-  O209  1  0.83336869  0.86689865  0.52820853  1
  O2-  O210  1  0.81876985  0.88704046  0.75558243  1
  O2-  O211  1  -0.01119358  -0.11107636  -0.05402465  1
  O2-  O212  1  -0.01919359  -0.14853633  0.11974186  1
  O2-  O213  1  0.00457934  -0.15311743  0.60949792  1
  O2-  O214  1  -0.02158518  -0.10291653  0.78116374  1
  O2-  O215  1  -0.01222935  0.61374958  -0.06513113  1
  O2-  O216  1  0.00933419  0.65104375  0.39400912  1
  O2-  O217  1  0.01260160  0.64670932  0.60591484  1
  O2-  O218  1  -0.02567356  0.61186334  0.76876116  1
  O2-  O219  1  0.25147761  0.12875306  0.12520864  1
  O2-  O220  1  0.24304982  0.11866431  0.36014032  1
  O2-  O221  1  0.26351335  0.10203336  0.53893835  1
  O2-  O222  1  0.26522439  0.11378681  0.69893014  1
  O2-  O223  1  0.25604598  0.34597449  0.11078158  1
  O2-  O224  1  0.24256334  0.41101041  0.27600299  1
  O2-  O225  1  0.23370791  0.35746005  0.42906881  1
  O2-  O226  1  0.29005682  0.39377059  0.60677884  1
  O2-  O227  1  0.47204464  -0.15298115  -0.03972099  1
  O2-  O228  1  0.49156303  -0.15256236  0.19119398  1
  O2-  O229  1  0.52310598  -0.11853779  0.36824005  1
  O2-  O230  1  0.48442722  -0.14863649  0.79647439  1
  O2-  O231  1  0.47949915  0.65203617  0.10549851  1
  O2-  O232  1  0.51247015  0.61572246  0.27421060  1
  O2-  O233  1  0.50463754  0.63483531  0.43404020  1
  O2-  O234  1  0.47679410  0.64087504  0.88540507  1
  O2-  O235  1  0.75363435  0.11454047  0.04856300  1
  O2-  O236  1  0.76204582  0.12499433  0.21389423  1
  O2-  O237  1  0.74973828  0.17599754  0.38175609  1
  O2-  O238  1  0.77429424  0.13697966  0.63156025  1
  O2-  O239  1  0.74876215  0.40337996  0.14540136  1
  O2-  O240  1  0.74074955  0.36612934  0.36580477  1
  O2-  O241  1  0.71214407  0.37084173  0.53261865  1
  O2-  O242  1  0.78070663  0.35475717  0.69436064  1
