# generated using pymatgen
data_Gd19Ta56(WO20)8
_symmetry_space_group_name_H-M   'P 1'
_cell_length_a   15.49512747
_cell_length_b   15.51543834
_cell_length_c   15.24908979
_cell_angle_alpha   89.78051258
_cell_angle_beta   89.85490115
_cell_angle_gamma   90.03978847
_symmetry_Int_Tables_number   1
_chemical_formula_structural   Gd19Ta56(WO20)8
_chemical_formula_sum   'Gd19 Ta56 W8 O160'
_cell_volume   3666.05045443
_cell_formula_units_Z   1
loop_
 _symmetry_equiv_pos_site_id
 _symmetry_equiv_pos_as_xyz
  1  'x, y, z'
loop_
 _atom_type_symbol
 _atom_type_oxidation_number
  Gd3+  3.0
  Ta5+  5.0
  W6+  6.0
  O2-  -2.0
loop_
 _atom_site_type_symbol
 _atom_site_label
 _atom_site_symmetry_multiplicity
 _atom_site_fract_x
 _atom_site_fract_y
 _atom_site_fract_z
 _atom_site_occupancy
  Gd3+  Gd0  1  0.51610051  0.24127873  0.00930798  1
  Gd3+  Gd1  1  -0.00338110  0.25661201  0.74848257  1
  Gd3+  Gd2  1  0.01512165  0.74846440  0.75790546  1
  Gd3+  Gd3  1  0.02129568  0.25214051  -0.01513018  1
  Gd3+  Gd4  1  0.22301401  0.25073551  0.48998408  1
  Gd3+  Gd5  1  0.26094102  0.74574342  0.73812352  1
  Gd3+  Gd6  1  0.74254307  0.76377349  0.70985307  1
  Gd3+  Gd7  1  -0.02449837  0.76871012  0.26666573  1
  Gd3+  Gd8  1  0.69894109  0.24331629  0.73448734  1
  Gd3+  Gd9  1  0.25193414  0.74885695  0.51546700  1
  Gd3+  Gd10  1  0.74715347  0.76297825  0.27299080  1
  Gd3+  Gd11  1  0.27722959  0.23750633  0.02133357  1
  Gd3+  Gd12  1  0.75797620  0.74066436  -0.00203791  1
  Gd3+  Gd13  1  0.23818705  0.73757815  0.24327306  1
  Gd3+  Gd14  1  0.76633607  0.22552634  0.27579127  1
  Gd3+  Gd15  1  -0.02302453  0.26063975  0.50688882  1
  Gd3+  Gd16  1  0.24197477  0.21028953  0.25836153  1
  Gd3+  Gd17  1  0.25528629  0.74397506  -0.01282040  1
  Gd3+  Gd18  1  0.51606981  0.26226099  0.49366162  1
  Ta5+  Ta19  1  0.07574244  0.12254057  0.36892387  1
  Ta5+  Ta20  1  0.39647984  0.87836656  0.63299745  1
  Ta5+  Ta21  1  0.16016696  0.38237376  0.83667651  1
  Ta5+  Ta22  1  0.38526506  0.87146124  0.12459433  1
  Ta5+  Ta23  1  0.13893666  0.88724827  0.11732198  1
  Ta5+  Ta24  1  0.40293407  0.61608404  0.86810217  1
  Ta5+  Ta25  1  0.85994098  0.37678624  0.90070165  1
  Ta5+  Ta26  1  0.10242369  0.37834540  0.35418047  1
  Ta5+  Ta27  1  0.89942324  0.63128143  0.62744050  1
  Ta5+  Ta28  1  0.35090707  0.38887540  0.38686368  1
  Ta5+  Ta29  1  0.64579850  0.11371122  0.88883442  1
  Ta5+  Ta30  1  0.10811236  0.88450741  0.37780182  1
  Ta5+  Ta31  1  0.39170386  0.12790961  0.86668394  1
  Ta5+  Ta32  1  0.85545997  0.12500372  0.89085832  1
  Ta5+  Ta33  1  0.41294435  0.12339926  0.37980351  1
  Ta5+  Ta34  1  0.39016977  0.62205090  0.12413458  1
  Ta5+  Ta35  1  0.59036150  0.86808558  0.38148806  1
  Ta5+  Ta36  1  0.13178961  0.39107903  0.61831064  1
  Ta5+  Ta37  1  0.90711126  0.11444278  0.39006697  1
  Ta5+  Ta38  1  0.86010879  0.11519843  0.64038737  1
  Ta5+  Ta39  1  0.60501640  0.38906702  0.63778616  1
  Ta5+  Ta40  1  0.62128830  0.86877553  0.86551223  1
  Ta5+  Ta41  1  0.41095947  0.62706699  0.63036373  1
  Ta5+  Ta42  1  0.65458292  0.37776639  0.89187295  1
  Ta5+  Ta43  1  0.06463980  0.62930271  0.58915155  1
  Ta5+  Ta44  1  0.60422541  0.11205071  0.62618279  1
  Ta5+  Ta45  1  0.13663727  0.88297094  0.85724489  1
  Ta5+  Ta46  1  0.34695720  0.12474905  0.62654363  1
  Ta5+  Ta47  1  0.89936250  0.89457273  0.43304789  1
  Ta5+  Ta48  1  0.66311964  0.11225686  0.11042068  1
  Ta5+  Ta49  1  0.38348258  0.63066458  0.37927771  1
  Ta5+  Ta50  1  0.89630901  0.61678131  0.88258884  1
  Ta5+  Ta51  1  0.85549328  0.38747094  0.64241065  1
  Ta5+  Ta52  1  0.13325926  0.11679593  0.62391681  1
  Ta5+  Ta53  1  0.89572665  0.87509245  0.10593141  1
  Ta5+  Ta54  1  0.39446764  0.36901729  0.86772463  1
  Ta5+  Ta55  1  0.14302137  0.61136776  0.83901276  1
  Ta5+  Ta56  1  0.92223848  0.88266712  0.62870413  1
  Ta5+  Ta57  1  0.57884195  0.63393046  0.63042593  1
  Ta5+  Ta58  1  0.64574990  0.62050193  0.86782406  1
  Ta5+  Ta59  1  0.15553823  0.12409105  0.83749085  1
  Ta5+  Ta60  1  0.58837325  0.11563299  0.36261544  1
  Ta5+  Ta61  1  0.88847011  0.61578543  0.13715545  1
  Ta5+  Ta62  1  0.08895476  0.87361633  0.60058761  1
  Ta5+  Ta63  1  0.07935356  0.63298604  0.07098382  1
  Ta5+  Ta64  1  0.83409427  0.38389144  0.39138052  1
  Ta5+  Ta65  1  0.90740030  0.12226501  0.13525296  1
  Ta5+  Ta66  1  0.63409867  0.36917131  0.12743313  1
  Ta5+  Ta67  1  0.56317421  0.87379304  0.62821154  1
  Ta5+  Ta68  1  0.39497943  0.38156383  0.14386146  1
  Ta5+  Ta69  1  0.61806529  0.86831856  0.12355506  1
  Ta5+  Ta70  1  0.38525258  0.87782940  0.86593839  1
  Ta5+  Ta71  1  0.62374801  0.61980908  0.38387725  1
  Ta5+  Ta72  1  0.88675925  0.87890638  0.87316777  1
  Ta5+  Ta73  1  0.34095156  0.38529780  0.62834571  1
  Ta5+  Ta74  1  0.10825049  0.61779876  0.38940425  1
  W6+  W75  1  0.86890635  0.63379193  0.40377340  1
  W6+  W76  1  0.33091330  0.04319189  0.17699232  1
  W6+  W77  1  0.64347658  0.62266485  0.12560618  1
  W6+  W78  1  0.92453658  0.36607548  0.15240583  1
  W6+  W79  1  0.35956531  0.87745122  0.38077767  1
  W6+  W80  1  0.66789613  0.37064900  0.38255655  1
  W6+  W81  1  0.11534996  0.39490976  0.09543754  1
  W6+  W82  1  0.10813340  0.12969301  0.10669500  1
  O2-  O83  1  0.09982661  -0.00430050  0.11500631  1
  O2-  O84  1  0.11792990  0.00777396  0.38382414  1
  O2-  O85  1  0.11060430  0.00107992  0.60879014  1
  O2-  O86  1  0.17144954  -0.00088562  0.84447743  1
  O2-  O87  1  0.11672041  0.53052657  0.11169057  1
  O2-  O88  1  0.07667197  0.49654194  0.37660127  1
  O2-  O89  1  0.09362388  0.50336575  0.60196755  1
  O2-  O90  1  0.19839126  0.50320795  0.83276056  1
  O2-  O91  1  0.26379781  -0.07850044  0.11562312  1
  O2-  O92  1  0.39459375  0.00665122  0.38195993  1
  O2-  O93  1  0.37023106  0.00640752  0.62769750  1
  O2-  O94  1  0.39864964  0.00654371  0.87102082  1
  O2-  O95  1  0.36391829  0.49762399  0.12411490  1
  O2-  O96  1  0.35050663  0.51479815  0.39688673  1
  O2-  O97  1  0.38237162  0.49918775  0.61599151  1
  O2-  O98  1  0.41648928  0.48873091  0.88789697  1
  O2-  O99  1  0.65963802  -0.01468517  0.11206429  1
  O2-  O100  1  0.59099069  -0.00575182  0.36576960  1
  O2-  O101  1  0.55927080  0.00306546  0.63673193  1
  O2-  O102  1  0.62971051  -0.00915728  0.87769162  1
  O2-  O103  1  0.63691688  0.48642631  0.12427557  1
  O2-  O104  1  0.64806325  0.50613705  0.38414672  1
  O2-  O105  1  0.57907967  0.50312133  0.64853309  1
  O2-  O106  1  0.63566822  0.49926059  0.87025776  1
  O2-  O107  1  0.90557199  -0.00042956  0.11829594  1
  O2-  O108  1  0.85654686  -0.00010616  0.39054589  1
  O2-  O109  1  0.89714925  0.00364500  0.65738159  1
  O2-  O110  1  0.88314687  0.00936300  0.87868680  1
  O2-  O111  1  0.90536074  0.49979366  0.15342551  1
  O2-  O112  1  0.85005424  0.50104003  0.38740391  1
  O2-  O113  1  0.87667850  0.50394879  0.63686677  1
  O2-  O114  1  0.89929097  0.49114288  0.88265254  1
  O2-  O115  1  0.14151999  0.26250832  0.07227371  1
  O2-  O116  1  0.13409016  0.24855206  0.36476518  1
  O2-  O117  1  0.11064892  0.25805591  0.63166055  1
  O2-  O118  1  0.12562923  0.25464003  0.83648477  1
  O2-  O119  1  0.15587540  0.73423033  0.10688923  1
  O2-  O120  1  0.09232127  0.74868455  0.36488493  1
  O2-  O121  1  0.11051570  0.74776039  0.57846959  1
  O2-  O122  1  0.16066385  0.74959887  0.85571368  1
  O2-  O123  1  0.30264055  0.30476404  0.16015089  1
  O2-  O124  1  0.33301168  0.25223702  0.38487289  1
  O2-  O125  1  0.33172303  0.25873251  0.61284450  1
  O2-  O126  1  0.44773771  0.25578222  0.87251842  1
  O2-  O127  1  0.33423542  0.73856747  0.11666207  1
  O2-  O128  1  0.31100301  0.73939392  0.37797491  1
  O2-  O129  1  0.38992043  0.74984227  0.65976288  1
  O2-  O130  1  0.35190704  0.74313857  0.86171100  1
  O2-  O131  1  0.64796509  0.24202069  0.09221290  1
  O2-  O132  1  0.65183132  0.22741582  0.37119297  1
  O2-  O133  1  0.57910861  0.24804921  0.62904667  1
  O2-  O134  1  0.62625200  0.24076647  0.89868175  1
  O2-  O135  1  0.68730544  0.76362965  0.13117888  1
  O2-  O136  1  0.65630797  0.75645363  0.39126602  1
  O2-  O137  1  0.61249751  0.75599335  0.63275285  1
  O2-  O138  1  0.69220525  0.76069519  0.85463964  1
  O2-  O139  1  0.96575491  0.23403533  0.13148585  1
  O2-  O140  1  0.85849760  0.24057042  0.40490578  1
  O2-  O141  1  0.89285216  0.25325938  0.63282543  1
  O2-  O142  1  0.91126775  0.25178265  0.87971273  1
  O2-  O143  1  0.87641857  0.74752946  0.09157684  1
  O2-  O144  1  0.87932859  0.77397628  0.38558607  1
  O2-  O145  1  0.89759900  0.75878678  0.65471978  1
  O2-  O146  1  0.89150396  0.75045595  0.89145551  1
  O2-  O147  1  0.10722605  0.12631411  -0.04634934  1
  O2-  O148  1  0.10903293  0.13442784  0.24633702  1
  O2-  O149  1  0.08892698  0.15308488  0.50245363  1
  O2-  O150  1  0.06972621  0.12061876  0.74232069  1
  O2-  O151  1  0.16037036  0.62679428  -0.03124956  1
  O2-  O152  1  0.17814738  0.61680143  0.28963798  1
  O2-  O153  1  0.18023053  0.61929532  0.48846437  1
  O2-  O154  1  0.13357281  0.64594826  0.71394914  1
  O2-  O155  1  0.39821905  0.15180512  -0.00572822  1
  O2-  O156  1  0.37553544  0.14641935  0.25470221  1
  O2-  O157  1  0.41391627  0.14480532  0.51512986  1
  O2-  O158  1  0.40166302  0.14547017  0.74199205  1
  O2-  O159  1  0.36318589  0.62748492  -0.00730302  1
  O2-  O160  1  0.35673473  0.63284859  0.24798773  1
  O2-  O161  1  0.38562191  0.65348419  0.50416300  1
  O2-  O162  1  0.35223472  0.60902516  0.75564949  1
  O2-  O163  1  0.58203506  0.10829281  0.00708031  1
  O2-  O164  1  0.61867164  0.12153018  0.22540555  1
  O2-  O165  1  0.59482521  0.12367672  0.50044039  1
  O2-  O166  1  0.60073963  0.13100622  0.75944962  1
  O2-  O167  1  0.62816774  0.65459749  -0.01296635  1
  O2-  O168  1  0.66705364  0.63919352  0.26420431  1
  O2-  O169  1  0.59915368  0.62853158  0.50909646  1
  O2-  O170  1  0.66395336  0.63583914  0.74105137  1
  O2-  O171  1  0.91483833  0.13963830  0.00178991  1
  O2-  O172  1  0.89516152  0.13074076  0.26153246  1
  O2-  O173  1  0.90836508  0.12118718  0.52594878  1
  O2-  O174  1  0.89767835  0.14301958  0.75920123  1
  O2-  O175  1  0.77252600  0.61620682  -0.09640243  1
  O2-  O176  1  0.86158213  0.65726299  0.25620235  1
  O2-  O177  1  0.82898989  0.65008201  0.52940452  1
  O2-  O178  1  0.87600798  0.63385450  0.76019176  1
  O2-  O179  1  0.10550258  0.39255994  -0.05418975  1
  O2-  O180  1  0.09356192  0.37638439  0.23272129  1
  O2-  O181  1  0.09037983  0.35559758  0.49268118  1
  O2-  O182  1  0.07496312  0.39108623  0.74235453  1
  O2-  O183  1  0.15293002  0.86682657  -0.01206213  1
  O2-  O184  1  0.15074441  0.86407465  0.24823892  1
  O2-  O185  1  0.17855952  0.87164403  0.48139723  1
  O2-  O186  1  0.12977214  0.85443344  0.72824686  1
  O2-  O187  1  0.39403298  0.34552292  0.01678052  1
  O2-  O188  1  0.40434165  0.39169895  0.27619089  1
  O2-  O189  1  0.40818835  0.36857435  0.49871575  1
  O2-  O190  1  0.39809069  0.37203168  0.74529479  1
  O2-  O191  1  0.36435855  0.86116587  -0.00949632  1
  O2-  O192  1  0.35305813  0.85106977  0.24279530  1
  O2-  O193  1  0.36725067  0.85357634  0.51473233  1
  O2-  O194  1  0.32790968  0.88106712  0.75475517  1
  O2-  O195  1  0.58201402  0.37476646  -0.00618021  1
  O2-  O196  1  0.68536847  0.34743212  0.23679683  1
  O2-  O197  1  0.60733126  0.37560531  0.51320540  1
  O2-  O198  1  0.60613177  0.36016608  0.76831008  1
  O2-  O199  1  0.64245324  0.85186360  -0.00686975  1
  O2-  O200  1  0.63590203  0.86650039  0.25086643  1
  O2-  O201  1  0.58258291  0.87908210  0.50495062  1
  O2-  O202  1  0.64639666  0.87704646  0.74056608  1
  O2-  O203  1  0.92435726  0.36236877  0.00734354  1
  O2-  O204  1  0.86593361  0.34664821  0.27361613  1
  O2-  O205  1  0.88133110  0.37526001  0.51584978  1
  O2-  O206  1  0.89737773  0.37216639  0.75953215  1
  O2-  O207  1  0.82998489  0.88228462  -0.00714198  1
  O2-  O208  1  0.84648774  0.85888335  0.21666887  1
  O2-  O209  1  0.82960177  0.87455055  0.53299410  1
  O2-  O210  1  0.83871746  0.87316179  0.76040407  1
  O2-  O211  1  0.01402990  -0.15374538  0.12781956  1
  O2-  O212  1  -0.00813112  -0.10114931  0.32812298  1
  O2-  O213  1  0.01317493  -0.12866239  0.48937238  1
  O2-  O214  1  0.01025762  -0.12504268  0.86183224  1
  O2-  O215  1  -0.03732830  0.61509016  0.01555903  1
  O2-  O216  1  0.01056631  0.66020415  0.17400625  1
  O2-  O217  1  0.00045109  0.63297753  0.46642488  1
  O2-  O218  1  0.02144900  0.62942062  0.85053738  1
  O2-  O219  1  0.27259736  0.15654421  -0.11941410  1
  O2-  O220  1  0.24787886  0.13401534  0.12515604  1
  O2-  O221  1  0.24208706  0.11926535  0.54963341  1
  O2-  O222  1  0.23017876  0.12466394  0.71228753  1
  O2-  O223  1  0.27596579  0.34280867  -0.11467159  1
  O2-  O224  1  0.23056278  0.38755263  0.36426149  1
  O2-  O225  1  0.24121657  0.39252342  0.54345020  1
  O2-  O226  1  0.23311715  0.38678202  0.70516351  1
  O2-  O227  1  0.50497648  -0.17605855  0.11606808  1
  O2-  O228  1  0.43967317  -0.02028665  0.13374120  1
  O2-  O229  1  0.48371836  -0.17318810  0.35635898  1
  O2-  O230  1  0.50423333  -0.15755563  0.86243934  1
  O2-  O231  1  0.50448833  0.63052250  0.13362189  1
  O2-  O232  1  0.51262040  0.34135887  0.15043904  1
  O2-  O233  1  0.50105344  0.62986367  0.35584275  1
  O2-  O234  1  0.51769440  0.64378517  0.85245861  1
  O2-  O235  1  0.74542283  0.10866017  -0.02839913  1
  O2-  O236  1  0.78086562  0.13978019  0.14221231  1
  O2-  O237  1  0.73570692  0.12618845  0.62950498  1
  O2-  O238  1  0.75096160  0.13415489  0.81635145  1
  O2-  O239  1  0.75570875  0.40463621  -0.03142059  1
  O2-  O240  1  0.77580492  0.61344907  0.08996779  1
  O2-  O241  1  0.73380629  0.37139479  0.64344572  1
  O2-  O242  1  0.75982815  0.32633010  0.83384221  1
