# generated using pymatgen
data_Gd19Ta56(WO20)8
_symmetry_space_group_name_H-M   'P 1'
_cell_length_a   15.57254491
_cell_length_b   15.59306767
_cell_length_c   15.16593642
_cell_angle_alpha   90.08746840
_cell_angle_beta   89.81125328
_cell_angle_gamma   90.54719918
_symmetry_Int_Tables_number   1
_chemical_formula_structural   Gd19Ta56(WO20)8
_chemical_formula_sum   'Gd19 Ta56 W8 O160'
_cell_volume   3682.45745583
_cell_formula_units_Z   1
loop_
 _symmetry_equiv_pos_site_id
 _symmetry_equiv_pos_as_xyz
  1  'x, y, z'
loop_
 _atom_type_symbol
 _atom_type_oxidation_number
  Gd3+  3.0
  Ta5+  5.0
  W6+  6.0
  O2-  -2.0
loop_
 _atom_site_type_symbol
 _atom_site_label
 _atom_site_symmetry_multiplicity
 _atom_site_fract_x
 _atom_site_fract_y
 _atom_site_fract_z
 _atom_site_occupancy
  Gd3+  Gd0  1  0.52014503  0.27679972  -0.01125970  1
  Gd3+  Gd1  1  0.24790551  0.26577186  0.24443647  1
  Gd3+  Gd2  1  0.52830945  0.24989348  0.76319345  1
  Gd3+  Gd3  1  0.28049457  0.25492012  0.74893294  1
  Gd3+  Gd4  1  0.48876046  0.26068834  0.50600270  1
  Gd3+  Gd5  1  0.49717681  0.27439058  0.22486812  1
  Gd3+  Gd6  1  0.73594425  0.73957126  0.00035956  1
  Gd3+  Gd7  1  0.24991697  0.26043297  0.50762302  1
  Gd3+  Gd8  1  0.73394941  0.77407659  0.48661276  1
  Gd3+  Gd9  1  -0.01633970  0.22760610  0.47901550  1
  Gd3+  Gd10  1  0.75361709  0.26296199  0.77893834  1
  Gd3+  Gd11  1  0.54323735  0.76959690  0.25593372  1
  Gd3+  Gd12  1  0.24704353  0.74661003  0.75657862  1
  Gd3+  Gd13  1  -0.01854560  0.24560922  0.01444950  1
  Gd3+  Gd14  1  0.25666841  0.73771542  0.49580444  1
  Gd3+  Gd15  1  0.74870011  0.74364861  0.73819482  1
  Gd3+  Gd16  1  0.00446302  0.75306389  0.76731116  1
  Gd3+  Gd17  1  0.50854840  0.73695759  0.49496578  1
  Gd3+  Gd18  1  -0.03623726  0.74800528  0.46424890  1
  Ta5+  Ta19  1  0.11900387  0.61494244  0.88399293  1
  Ta5+  Ta20  1  0.10874219  0.11612356  0.63542194  1
  Ta5+  Ta21  1  0.42941603  0.45068005  0.81644212  1
  Ta5+  Ta22  1  0.14628579  0.11474200  0.37480694  1
  Ta5+  Ta23  1  0.09952132  0.60813160  0.63144995  1
  Ta5+  Ta24  1  0.11666880  0.12124464  0.13766151  1
  Ta5+  Ta25  1  0.12376397  0.37962850  0.12004512  1
  Ta5+  Ta26  1  0.38620554  0.62612525  0.35995130  1
  Ta5+  Ta27  1  0.12441515  0.88167591  0.88523358  1
  Ta5+  Ta28  1  0.11002190  0.87637457  0.62792152  1
  Ta5+  Ta29  1  0.82182975  0.12158387  0.90779842  1
  Ta5+  Ta30  1  0.81403107  0.12314871  0.10491620  1
  Ta5+  Ta31  1  0.36815901  0.38572452  0.37695136  1
  Ta5+  Ta32  1  0.38137288  0.60675038  0.63117165  1
  Ta5+  Ta33  1  0.64785935  0.40723201  0.87095773  1
  Ta5+  Ta34  1  0.66133104  0.37633711  0.60800912  1
  Ta5+  Ta35  1  0.56456493  0.57231928  0.63327678  1
  Ta5+  Ta36  1  0.40615241  0.43796403  0.65237475  1
  Ta5+  Ta37  1  0.10223275  0.63004955  0.12651233  1
  Ta5+  Ta38  1  0.14983501  0.12668240  0.88187912  1
  Ta5+  Ta39  1  0.84797689  0.37626663  0.37021272  1
  Ta5+  Ta40  1  0.65304122  0.12367729  0.89183213  1
  Ta5+  Ta41  1  0.65943671  0.95414677  0.37710191  1
  Ta5+  Ta42  1  0.38057518  0.10225624  0.87140728  1
  Ta5+  Ta43  1  0.60903152  0.62425866  0.12399081  1
  Ta5+  Ta44  1  0.89085594  0.60839565  0.62880087  1
  Ta5+  Ta45  1  0.82849431  0.10010387  0.35081339  1
  Ta5+  Ta46  1  0.89661196  0.88168708  0.63374208  1
  Ta5+  Ta47  1  0.88063575  0.61301427  0.86544919  1
  Ta5+  Ta48  1  0.35834407  0.12611507  0.11358460  1
  Ta5+  Ta49  1  0.65636026  0.61806134  0.37812313  1
  Ta5+  Ta50  1  0.12125295  0.87135319  0.38190353  1
  Ta5+  Ta51  1  0.12099212  0.38021411  0.38203291  1
  Ta5+  Ta52  1  0.39588994  0.88693235  0.62862998  1
  Ta5+  Ta53  1  0.38185669  0.62342247  0.87856479  1
  Ta5+  Ta54  1  0.60608590  0.89997285  0.62863502  1
  Ta5+  Ta55  1  0.83281969  0.37046391  0.11858528  1
  Ta5+  Ta56  1  0.66627220  0.39290091  0.11564760  1
  Ta5+  Ta57  1  0.87565447  0.88664406  0.87108101  1
  Ta5+  Ta58  1  0.87021389  0.12425300  0.64750447  1
  Ta5+  Ta59  1  0.64275698  0.13652819  0.59928218  1
  Ta5+  Ta60  1  0.64419490  0.13300546  0.10854888  1
  Ta5+  Ta61  1  0.40771320  0.08690656  0.62907084  1
  Ta5+  Ta62  1  0.59071796  0.13197954  0.34655251  1
  Ta5+  Ta63  1  0.83386921  0.88100786  0.12488401  1
  Ta5+  Ta64  1  0.89822800  0.37184982  0.87203088  1
  Ta5+  Ta65  1  0.14668249  0.87278576  0.13521223  1
  Ta5+  Ta66  1  0.61321574  0.88150494  0.88280503  1
  Ta5+  Ta67  1  0.36895078  0.38714770  0.07742712  1
  Ta5+  Ta68  1  0.86002304  0.61891300  0.12796693  1
  Ta5+  Ta69  1  0.59954531  0.63272707  0.86216103  1
  Ta5+  Ta70  1  0.62092725  0.38185297  0.36572201  1
  Ta5+  Ta71  1  0.86099010  0.36650233  0.60776295  1
  Ta5+  Ta72  1  0.66663592  0.89098361  0.13360653  1
  Ta5+  Ta73  1  0.13804526  0.61288233  0.37827642  1
  Ta5+  Ta74  1  0.35235914  0.12235120  0.36076608  1
  W6+  W75  1  0.14331178  0.36945855  0.87577738  1
  W6+  W76  1  0.40957421  0.87875165  0.12935709  1
  W6+  W77  1  0.44461046  0.61935546  0.12442880  1
  W6+  W78  1  0.81972249  0.62478373  0.38184817  1
  W6+  W79  1  0.87410230  0.90555451  0.37653239  1
  W6+  W80  1  0.39991917  0.87912693  0.37218860  1
  W6+  W81  1  0.37457815  0.86260962  0.88770528  1
  W6+  W82  1  0.12902556  0.36215834  0.64041119  1
  O2-  O83  1  0.12940771  -0.00119429  0.13158255  1
  O2-  O84  1  0.12932072  -0.00601139  0.39351593  1
  O2-  O85  1  0.13820583  0.00044257  0.61979484  1
  O2-  O86  1  0.14674025  0.00015649  0.88354002  1
  O2-  O87  1  0.11203925  0.49858910  0.11800995  1
  O2-  O88  1  0.08864625  0.49917234  0.39544067  1
  O2-  O89  1  0.09620035  0.49179646  0.63336211  1
  O2-  O90  1  0.11048161  0.49891841  0.88357191  1
  O2-  O91  1  0.38165022  0.01456465  0.13737981  1
  O2-  O92  1  0.36994395  0.00809449  0.37170702  1
  O2-  O93  1  0.32849030  -0.00672266  0.60675035  1
  O2-  O94  1  0.42021597  -0.00815536  0.87178285  1
  O2-  O95  1  0.41891647  0.48516917  0.11849534  1
  O2-  O96  1  0.37658064  0.50451344  0.38437654  1
  O2-  O97  1  0.30296127  0.50879374  0.62526591  1
  O2-  O98  1  0.32534003  0.51601112  0.86173607  1
  O2-  O99  1  0.64457619  0.01230642  0.12361094  1
  O2-  O100  1  0.55449757  0.01352297  0.38238427  1
  O2-  O101  1  0.64819693  0.01501507  0.61613054  1
  O2-  O102  1  0.62963234  0.00344237  0.88702670  1
  O2-  O103  1  0.66068661  0.51590218  0.10774031  1
  O2-  O104  1  0.62061924  0.50023103  0.39278818  1
  O2-  O105  1  0.65862841  0.49534170  0.63520695  1
  O2-  O106  1  0.66524714  0.52838857  0.85552894  1
  O2-  O107  1  0.82645058  0.00000419  0.09430002  1
  O2-  O108  1  0.92587146  0.03933640  0.37891466  1
  O2-  O109  1  0.87040765  0.00164629  0.63604476  1
  O2-  O110  1  0.85931792  0.00292547  0.87465780  1
  O2-  O111  1  0.84127819  0.49909293  0.11436934  1
  O2-  O112  1  0.83836063  0.49017610  0.37851724  1
  O2-  O113  1  0.89615545  0.48887443  0.61876713  1
  O2-  O114  1  0.90790258  0.49717828  0.85693619  1
  O2-  O115  1  0.08398299  0.24927506  0.13706501  1
  O2-  O116  1  0.14984995  0.24703436  0.36517580  1
  O2-  O117  1  0.17801201  0.22217434  0.63995298  1
  O2-  O118  1  0.19301830  0.24320192  0.87407057  1
  O2-  O119  1  0.10752148  0.75479623  0.13733615  1
  O2-  O120  1  0.10571182  0.73325332  0.40146257  1
  O2-  O121  1  0.10606080  0.74951993  0.64746788  1
  O2-  O122  1  0.12641217  0.75283188  0.86003569  1
  O2-  O123  1  0.40592255  0.25761665  0.09270154  1
  O2-  O124  1  0.32937135  0.25784161  0.37813626  1
  O2-  O125  1  0.35253930  0.19321268  0.60005776  1
  O2-  O126  1  0.44197039  0.20985675  0.88260725  1
  O2-  O127  1  0.44841789  0.75450967  0.14130518  1
  O2-  O128  1  0.43459594  0.74692786  0.36324888  1
  O2-  O129  1  0.28861136  0.70319805  0.62648861  1
  O2-  O130  1  0.31987927  0.73430727  0.88421917  1
  O2-  O131  1  0.60772188  0.26970509  0.11557076  1
  O2-  O132  1  0.60412347  0.25384488  0.33433120  1
  O2-  O133  1  0.58695274  0.25528927  0.62071212  1
  O2-  O134  1  0.63090161  0.26299387  0.88087769  1
  O2-  O135  1  0.64613797  0.75286554  0.13587832  1
  O2-  O136  1  0.61667431  0.74048339  0.38961741  1
  O2-  O137  1  0.69287204  0.81088257  0.62259809  1
  O2-  O138  1  0.66784007  0.75514597  0.86212402  1
  O2-  O139  1  0.85768060  0.24838248  0.10295472  1
  O2-  O140  1  0.85957246  0.20984650  0.39603667  1
  O2-  O141  1  0.90949051  0.24470529  0.60579374  1
  O2-  O142  1  0.86417948  0.24664515  0.89014808  1
  O2-  O143  1  0.83574036  0.74419591  0.11353511  1
  O2-  O144  1  0.84152067  0.76446392  0.38354999  1
  O2-  O145  1  0.89385092  0.75180555  0.65347280  1
  O2-  O146  1  0.87196383  0.74594660  0.84485790  1
  O2-  O147  1  0.10122167  0.13676361  -0.00231495  1
  O2-  O148  1  0.08206093  0.11759380  0.26023487  1
  O2-  O149  1  0.10629852  0.14531295  0.49705536  1
  O2-  O150  1  0.09658180  0.12222658  0.76102964  1
  O2-  O151  1  0.14988760  0.63535954  0.00460508  1
  O2-  O152  1  0.11744049  0.61735200  0.25363760  1
  O2-  O153  1  0.16033599  0.61986501  0.51947002  1
  O2-  O154  1  0.15648241  0.62243320  0.75487248  1
  O2-  O155  1  0.33834840  0.11458333  -0.01081286  1
  O2-  O156  1  0.38367553  0.17247500  0.23726327  1
  O2-  O157  1  0.51032637  0.11915796  0.57154851  1
  O2-  O158  1  0.43382146  0.12418216  0.74387896  1
  O2-  O159  1  0.41240120  0.62756276  -0.00339130  1
  O2-  O160  1  0.45518258  0.61017460  0.26111206  1
  O2-  O161  1  0.38561543  0.65304656  0.49429985  1
  O2-  O162  1  0.39280734  0.65354080  0.74772166  1
  O2-  O163  1  0.57189648  0.13836343  -0.00100463  1
  O2-  O164  1  0.55991952  0.13645860  0.22121247  1
  O2-  O165  1  0.63666670  0.15446198  0.47444323  1
  O2-  O166  1  0.64595658  0.15234423  0.74367766  1
  O2-  O167  1  0.61509531  0.64536745  -0.01040352  1
  O2-  O168  1  0.63568442  0.62445157  0.25457507  1
  O2-  O169  1  0.61246260  0.63376334  0.52130653  1
  O2-  O170  1  0.60992863  0.65184983  0.73034972  1
  O2-  O171  1  0.90877772  0.11877376  0.00600691  1
  O2-  O172  1  0.84018379  0.11986874  0.23052785  1
  O2-  O173  1  0.99068680  0.11092279  0.60824732  1
  O2-  O174  1  0.83974461  0.13839045  0.76402327  1
  O2-  O175  1  0.83143291  0.62247813  -0.02084740  1
  O2-  O176  1  0.84443278  0.62203313  0.24530897  1
  O2-  O177  1  0.82022579  0.64721760  0.53246837  1
  O2-  O178  1  0.82225815  0.61402186  0.74529381  1
  O2-  O179  1  0.09239589  0.35459236  0.00243409  1
  O2-  O180  1  0.13328078  0.37659972  0.25507070  1
  O2-  O181  1  0.08952427  0.33461950  0.49901662  1
  O2-  O182  1  0.01191724  0.33592539  0.85268584  1
  O2-  O183  1  0.15274442  0.86709533  0.00391508  1
  O2-  O184  1  0.16475032  0.86884059  0.26638434  1
  O2-  O185  1  0.16988588  0.85884646  0.50921045  1
  O2-  O186  1  0.16476929  0.87524072  0.75088016  1
  O2-  O187  1  0.40319556  0.38590783  -0.04152881  1
  O2-  O188  1  0.36150483  0.36146461  0.24515049  1
  O2-  O189  1  0.37961857  0.35858782  0.51000288  1
  O2-  O190  1  0.40329452  0.33522636  0.74758284  1
  O2-  O191  1  0.35619217  0.87388217  0.02103266  1
  O2-  O192  1  0.45882261  0.88955486  0.24832124  1
  O2-  O193  1  0.36846403  0.84031557  0.51335811  1
  O2-  O194  1  0.35774849  0.85068518  0.73904349  1
  O2-  O195  1  0.61088107  0.39880423  -0.00910119  1
  O2-  O196  1  0.62643716  0.39518020  0.24043195  1
  O2-  O197  1  0.59482884  0.36474208  0.50057085  1
  O2-  O198  1  0.63974348  0.36171968  0.74307620  1
  O2-  O199  1  0.65299418  0.86781346  0.00277165  1
  O2-  O200  1  0.64984964  0.89070530  0.27090381  1
  O2-  O201  1  0.63076377  0.89181878  0.48639999  1
  O2-  O202  1  0.61829283  0.88897008  0.75159858  1
  O2-  O203  1  0.90253212  0.37777678  0.00004649  1
  O2-  O204  1  0.86271532  0.35968152  0.24749423  1
  O2-  O205  1  0.91471716  0.35708094  0.48011219  1
  O2-  O206  1  0.86695488  0.35989272  0.73640644  1
  O2-  O207  1  0.83442749  0.85609467  -0.01769083  1
  O2-  O208  1  0.86205766  0.89595463  0.24077214  1
  O2-  O209  1  0.84691833  0.86426199  0.51941433  1
  O2-  O210  1  0.82548903  0.87483948  0.74946424  1
  O2-  O211  1  0.00026167  -0.12374602  -0.11441622  1
  O2-  O212  1  0.00457615  -0.14302333  0.36548764  1
  O2-  O213  1  0.00620158  -0.13455071  0.55154765  1
  O2-  O214  1  0.00335235  -0.10824403  0.70936304  1
  O2-  O215  1  -0.00112406  0.64464489  -0.10687754  1
  O2-  O216  1  -0.01685746  0.62527345  0.11123245  1
  O2-  O217  1  -0.00501016  0.63291987  0.55308179  1
  O2-  O218  1  -0.01082592  0.61786937  0.71702075  1
  O2-  O219  1  0.23602290  0.15844588  0.12706020  1
  O2-  O220  1  0.24217829  0.11696544  0.29023439  1
  O2-  O221  1  0.26139123  0.12401848  0.45290731  1
  O2-  O222  1  0.27074316  0.11172411  0.81179741  1
  O2-  O223  1  0.24544950  0.35807642  0.10945757  1
  O2-  O224  1  0.23937132  0.39531241  0.40484636  1
  O2-  O225  1  0.25848571  0.63983047  0.36645497  1
  O2-  O226  1  0.20190494  0.37081203  0.75582093  1
  O2-  O227  1  0.50534386  -0.16315408  -0.10557501  1
  O2-  O228  1  0.46880587  0.16368793  0.39341748  1
  O2-  O229  1  0.50677422  -0.18271136  0.61829629  1
  O2-  O230  1  0.48531388  -0.02827407  0.64884222  1
  O2-  O231  1  0.49893832  0.56204108  -0.13760506  1
  O2-  O232  1  0.48975049  0.36038804  0.36469706  1
  O2-  O233  1  0.47105981  0.52363941  0.56189687  1
  O2-  O234  1  0.51416114  0.47804293  0.71795517  1
  O2-  O235  1  0.73076231  0.16677722  0.00207065  1
  O2-  O236  1  0.69890603  0.07705365  0.31839800  1
  O2-  O237  1  0.77231970  -0.00833739  0.42180445  1
  O2-  O238  1  0.76744199  0.13483956  0.58501930  1
  O2-  O239  1  0.76649832  0.38485056  -0.12300444  1
  O2-  O240  1  0.73497210  0.33984552  0.38785103  1
  O2-  O241  1  0.76536227  0.41412202  0.54311865  1
  O2-  O242  1  0.75257441  0.29081294  0.63359403  1
