# generated using pymatgen
data_Gd19Ta56(WO20)8
_symmetry_space_group_name_H-M   'P 1'
_cell_length_a   15.45388680
_cell_length_b   15.42133167
_cell_length_c   15.40082100
_cell_angle_alpha   90.02368449
_cell_angle_beta   89.90839088
_cell_angle_gamma   90.02807114
_symmetry_Int_Tables_number   1
_chemical_formula_structural   Gd19Ta56(WO20)8
_chemical_formula_sum   'Gd19 Ta56 W8 O160'
_cell_volume   3670.31073068
_cell_formula_units_Z   1
loop_
 _symmetry_equiv_pos_site_id
 _symmetry_equiv_pos_as_xyz
  1  'x, y, z'
loop_
 _atom_type_symbol
 _atom_type_oxidation_number
  Gd3+  3.0
  Ta5+  5.0
  W6+  6.0
  O2-  -2.0
loop_
 _atom_site_type_symbol
 _atom_site_label
 _atom_site_symmetry_multiplicity
 _atom_site_fract_x
 _atom_site_fract_y
 _atom_site_fract_z
 _atom_site_occupancy
  Gd3+  Gd0  1  0.74409537  0.72035632  -0.00317718  1
  Gd3+  Gd1  1  0.00242600  0.24899195  0.50397516  1
  Gd3+  Gd2  1  0.49847941  0.25808735  0.48178773  1
  Gd3+  Gd3  1  0.48947404  0.79441581  0.49862879  1
  Gd3+  Gd4  1  0.26571156  0.24152371  0.24005415  1
  Gd3+  Gd5  1  0.49806092  0.75617988  0.26429496  1
  Gd3+  Gd6  1  0.48935485  0.25716591  0.76631319  1
  Gd3+  Gd7  1  0.00951672  0.74484765  0.46728755  1
  Gd3+  Gd8  1  0.49358084  0.25915945  0.02534729  1
  Gd3+  Gd9  1  0.47369628  0.76676784  0.73975559  1
  Gd3+  Gd10  1  0.24702877  0.74105164  0.51547745  1
  Gd3+  Gd11  1  0.02237318  0.74747368  0.76016307  1
  Gd3+  Gd12  1  0.73715571  0.25022016  0.48393114  1
  Gd3+  Gd13  1  0.25320857  0.25481891  0.48625951  1
  Gd3+  Gd14  1  0.26308487  0.23429905  -0.01362582  1
  Gd3+  Gd15  1  0.00205537  0.24455763  0.27030540  1
  Gd3+  Gd16  1  -0.00050611  0.23875774  0.77123679  1
  Gd3+  Gd17  1  0.75074562  0.24808902  0.77220481  1
  Gd3+  Gd18  1  0.73890630  0.74077551  0.23562691  1
  Ta5+  Ta19  1  0.33251371  0.87562844  0.36349230  1
  Ta5+  Ta20  1  0.64262202  0.39333788  0.62856462  1
  Ta5+  Ta21  1  0.66315531  0.87110460  0.37667220  1
  Ta5+  Ta22  1  0.11959737  0.61207106  0.62435139  1
  Ta5+  Ta23  1  0.86454734  0.85957422  0.87308139  1
  Ta5+  Ta24  1  0.65345570  0.87208641  0.62449049  1
  Ta5+  Ta25  1  0.17149996  0.63832222  0.35673884  1
  Ta5+  Ta26  1  0.40941617  0.45207996  0.13551015  1
  Ta5+  Ta27  1  0.38749578  0.37823915  0.63117706  1
  Ta5+  Ta28  1  0.85407317  0.09139275  0.62540453  1
  Ta5+  Ta29  1  0.61732862  0.11495387  0.34843093  1
  Ta5+  Ta30  1  0.83284834  0.86173311  0.38085280  1
  Ta5+  Ta31  1  0.19483782  0.86260378  0.13077724  1
  Ta5+  Ta32  1  0.88235973  0.60924834  0.13581285  1
  Ta5+  Ta33  1  0.36491346  0.61126932  0.62358962  1
  Ta5+  Ta34  1  0.40683851  0.88591982  0.11809927  1
  Ta5+  Ta35  1  0.62712768  0.38462218  0.36306581  1
  Ta5+  Ta36  1  0.13500774  0.87036216  0.62779406  1
  Ta5+  Ta37  1  0.85997943  0.61731684  0.63457950  1
  Ta5+  Ta38  1  0.15104259  0.62685602  0.87989142  1
  Ta5+  Ta39  1  0.86245810  0.11026648  0.89961800  1
  Ta5+  Ta40  1  0.81575534  0.62898653  0.38898609  1
  Ta5+  Ta41  1  0.89192153  0.10355475  0.13620427  1
  Ta5+  Ta42  1  0.14710218  0.38645445  0.63086715  1
  Ta5+  Ta43  1  0.87508247  0.37900786  0.88540954  1
  Ta5+  Ta44  1  0.62309262  0.38765201  0.88588478  1
  Ta5+  Ta45  1  0.62680224  0.62610824  0.63808048  1
  Ta5+  Ta46  1  0.87746979  0.38770606  0.38214503  1
  Ta5+  Ta47  1  0.85934656  0.38731808  0.63182069  1
  Ta5+  Ta48  1  0.12699358  0.63636752  0.13141581  1
  Ta5+  Ta49  1  0.10528859  0.08328613  0.13506024  1
  Ta5+  Ta50  1  0.33439778  0.04820491  0.85208812  1
  Ta5+  Ta51  1  0.12816985  0.39155707  0.12650099  1
  Ta5+  Ta52  1  0.36113884  0.12898334  0.62892290  1
  Ta5+  Ta53  1  0.38994001  0.39269549  0.32838225  1
  Ta5+  Ta54  1  0.60489686  0.61255602  0.12189299  1
  Ta5+  Ta55  1  0.14622941  0.87155877  0.88769260  1
  Ta5+  Ta56  1  0.30370103  0.90316783  0.62396869  1
  Ta5+  Ta57  1  0.35462555  0.87078383  0.87154891  1
  Ta5+  Ta58  1  0.40894637  0.11168497  0.33478484  1
  Ta5+  Ta59  1  0.12662954  0.37651032  0.87950842  1
  Ta5+  Ta60  1  0.13560246  0.39352846  0.37820916  1
  Ta5+  Ta61  1  0.13110028  0.07320966  0.61752838  1
  Ta5+  Ta62  1  0.88182887  0.62686297  0.87799954  1
  Ta5+  Ta63  1  0.16688950  0.86319054  0.36691778  1
  Ta5+  Ta64  1  0.88714452  0.36703886  0.13065891  1
  Ta5+  Ta65  1  0.64431133  0.63553986  0.38766008  1
  Ta5+  Ta66  1  0.31866285  0.63778204  0.87353805  1
  Ta5+  Ta67  1  0.63473932  0.87389289  0.86981407  1
  Ta5+  Ta68  1  0.34061851  0.63452895  0.36293332  1
  Ta5+  Ta69  1  0.13028457  0.11077545  0.37664772  1
  Ta5+  Ta70  1  0.60487527  0.10550385  0.64395512  1
  Ta5+  Ta71  1  0.37986281  0.64999268  0.10860379  1
  Ta5+  Ta72  1  0.89232560  0.85322917  0.61843693  1
  Ta5+  Ta73  1  0.37486381  0.39869996  0.89080129  1
  Ta5+  Ta74  1  0.65247155  0.38034296  0.12005345  1
  W6+  W75  1  0.60813447  0.12298485  0.89206998  1
  W6+  W76  1  0.86477620  0.11219687  0.37552614  1
  W6+  W77  1  0.34898169  0.08027854  0.10088612  1
  W6+  W78  1  0.64061357  0.88047096  0.11714080  1
  W6+  W79  1  0.88903718  0.85457315  0.12515088  1
  W6+  W80  1  0.64167114  0.12055959  0.11781243  1
  W6+  W81  1  0.57758586  0.63113792  0.87063638  1
  W6+  W82  1  0.09631332  0.10370366  0.93017042  1
  O2-  O83  1  0.12085581  -0.03498031  0.15095536  1
  O2-  O84  1  0.14418579  -0.00905240  0.36572695  1
  O2-  O85  1  0.06417077  -0.02787929  0.59214932  1
  O2-  O86  1  0.08047177  -0.03386023  0.92068589  1
  O2-  O87  1  0.15313954  0.50684228  0.14367651  1
  O2-  O88  1  0.14527149  0.51020073  0.34742112  1
  O2-  O89  1  0.08231471  0.49206822  0.61959596  1
  O2-  O90  1  0.14256013  0.49719572  0.86834401  1
  O2-  O91  1  0.29779389  -0.04766711  0.12540908  1
  O2-  O92  1  0.36678041  -0.00066889  0.37232981  1
  O2-  O93  1  0.37720749  0.01116004  0.60342995  1
  O2-  O94  1  0.43077036  -0.02388607  0.83381518  1
  O2-  O95  1  0.32250618  0.53319177  0.12127926  1
  O2-  O96  1  0.35141388  0.50332256  0.35684603  1
  O2-  O97  1  0.41703658  0.50148398  0.62011547  1
  O2-  O98  1  0.35096417  0.51836427  0.89853903  1
  O2-  O99  1  0.68308197  0.00852956  0.11163954  1
  O2-  O100  1  0.63550210  -0.00756660  0.35878189  1
  O2-  O101  1  0.59054565  -0.01630767  0.63376514  1
  O2-  O102  1  0.61397410  -0.00973515  0.87555649  1
  O2-  O103  1  0.66631346  0.50874598  0.13285903  1
  O2-  O104  1  0.63866038  0.50551599  0.37551768  1
  O2-  O105  1  0.59278526  0.50543605  0.63827726  1
  O2-  O106  1  0.59032004  0.49720827  0.85427346  1
  O2-  O107  1  0.89599077  -0.01552131  0.12271551  1
  O2-  O108  1  0.84279870  -0.01889716  0.38347961  1
  O2-  O109  1  0.89279202  -0.01984538  0.64119399  1
  O2-  O110  1  0.85882406  -0.01380735  0.88036835  1
  O2-  O111  1  0.85183710  0.49351164  0.12714673  1
  O2-  O112  1  0.85510601  0.50563034  0.39274894  1
  O2-  O113  1  0.90860786  0.50296375  0.63092371  1
  O2-  O114  1  0.87217493  0.50257805  0.87490781  1
  O2-  O115  1  0.20769930  0.29592146  0.11100304  1
  O2-  O116  1  0.11232136  0.25594545  0.39648088  1
  O2-  O117  1  0.12882262  0.27492031  0.58238631  1
  O2-  O118  1  0.12781747  0.24104153  0.89807916  1
  O2-  O119  1  0.12088884  0.76505792  0.13802071  1
  O2-  O120  1  0.10193538  0.74866248  0.34854317  1
  O2-  O121  1  0.11202460  0.74207439  0.63035634  1
  O2-  O122  1  0.10045463  0.75266276  0.88992318  1
  O2-  O123  1  0.36983934  0.21444577  0.08742113  1
  O2-  O124  1  0.40034490  0.24392894  0.34029977  1
  O2-  O125  1  0.36550510  0.26099519  0.67544862  1
  O2-  O126  1  0.40509592  0.27077609  0.90178347  1
  O2-  O127  1  0.44643044  0.76042214  0.11279169  1
  O2-  O128  1  0.39912912  0.75676004  0.38131786  1
  O2-  O129  1  0.42650966  0.72001677  0.60733529  1
  O2-  O130  1  0.37909535  0.75180512  0.85726877  1
  O2-  O131  1  0.63827667  0.25720781  0.09561681  1
  O2-  O132  1  0.61312986  0.25075134  0.38297594  1
  O2-  O133  1  0.75089929  0.29527586  0.62963000  1
  O2-  O134  1  0.58010252  0.26538949  0.89420158  1
  O2-  O135  1  0.64863473  0.73716922  0.11636192  1
  O2-  O136  1  0.58592114  0.75406650  0.38996809  1
  O2-  O137  1  0.59579512  0.75989013  0.62599934  1
  O2-  O138  1  0.56234796  0.76979797  0.86663357  1
  O2-  O139  1  0.90809387  0.24422325  0.14430715  1
  O2-  O140  1  0.89814031  0.25158579  0.37704927  1
  O2-  O141  1  0.96129385  0.30993585  0.63989667  1
  O2-  O142  1  0.87201533  0.24623538  0.86921273  1
  O2-  O143  1  0.83040455  0.72948519  0.11979307  1
  O2-  O144  1  0.88371227  0.73543984  0.38784137  1
  O2-  O145  1  0.92740299  0.72539683  0.61285903  1
  O2-  O146  1  0.81146950  0.73708057  0.86210751  1
  O2-  O147  1  0.18668806  0.11672451  0.04503469  1
  O2-  O148  1  0.14641574  0.14693914  0.24259397  1
  O2-  O149  1  0.10062996  0.11720432  0.50163298  1
  O2-  O150  1  0.06433620  0.13478420  0.69351386  1
  O2-  O151  1  0.14953492  0.62979088  0.01285578  1
  O2-  O152  1  0.19787309  0.64642480  0.23307121  1
  O2-  O153  1  0.12688476  0.63982565  0.49048341  1
  O2-  O154  1  0.11355232  0.62531791  0.75195747  1
  O2-  O155  1  0.34118969  0.09809564  -0.03848049  1
  O2-  O156  1  0.33492186  0.11128533  0.23260799  1
  O2-  O157  1  0.37988363  0.17845199  0.51676912  1
  O2-  O158  1  0.32254502  0.11906190  0.75595244  1
  O2-  O159  1  0.32996365  0.67018295  0.00088270  1
  O2-  O160  1  0.38549988  0.65536762  0.24082900  1
  O2-  O161  1  0.34605923  0.62518676  0.49183030  1
  O2-  O162  1  0.35781396  0.62815238  0.74749898  1
  O2-  O163  1  0.55795500  0.12550592  0.01803700  1
  O2-  O164  1  0.65892934  0.15136520  0.23849064  1
  O2-  O165  1  0.61433568  0.18667375  0.55414740  1
  O2-  O166  1  0.62498377  0.16430160  0.75174313  1
  O2-  O167  1  0.62610101  0.62259142  -0.00234585  1
  O2-  O168  1  0.60962988  0.64056664  0.25253845  1
  O2-  O169  1  0.63136430  0.63268812  0.51606291  1
  O2-  O170  1  0.54763243  0.64130353  0.73556688  1
  O2-  O171  1  0.84342839  0.12852539  0.01793617  1
  O2-  O172  1  0.83260064  0.11268956  0.23979368  1
  O2-  O173  1  0.88918649  0.14581765  0.52061089  1
  O2-  O174  1  0.87231807  0.16075270  0.72262582  1
  O2-  O175  1  0.88115729  0.62819939  0.00240820  1
  O2-  O176  1  0.83855411  0.62356832  0.25394416  1
  O2-  O177  1  0.82377692  0.62682538  0.51864893  1
  O2-  O178  1  0.91470777  0.63806155  0.75469317  1
  O2-  O179  1  0.11424777  0.38798399  0.00211552  1
  O2-  O180  1  0.11572855  0.34723894  0.25046474  1
  O2-  O181  1  0.17274307  0.40382044  0.49495875  1
  O2-  O182  1  0.11961398  0.35092654  0.74781333  1
  O2-  O183  1  0.19497145  0.85691080  0.00807346  1
  O2-  O184  1  0.23567416  0.84954596  0.25694474  1
  O2-  O185  1  0.12898881  0.84302917  0.49213613  1
  O2-  O186  1  0.11639703  0.86818368  0.76122140  1
  O2-  O187  1  0.41257556  0.39840488  0.01960870  1
  O2-  O188  1  0.34142549  0.36871786  0.20765274  1
  O2-  O189  1  0.36878795  0.35340974  0.51278616  1
  O2-  O190  1  0.41997857  0.39432639  0.77542197  1
  O2-  O191  1  0.38276798  0.87962249  -0.01070508  1
  O2-  O192  1  0.40434433  0.86944687  0.24656813  1
  O2-  O193  1  0.34474627  0.86116857  0.50208678  1
  O2-  O194  1  0.34049674  0.86043093  0.73164616  1
  O2-  O195  1  0.59267489  0.39923310  0.00762177  1
  O2-  O196  1  0.63385306  0.37096693  0.24205852  1
  O2-  O197  1  0.63470580  0.36650972  0.50696655  1
  O2-  O198  1  0.63043030  0.34984002  0.75139931  1
  O2-  O199  1  0.68070972  0.85317194  -0.01419713  1
  O2-  O200  1  0.62574557  0.84766285  0.25120780  1
  O2-  O201  1  0.62443413  0.87333122  0.49974888  1
  O2-  O202  1  0.67123227  0.86218946  0.75189378  1
  O2-  O203  1  0.86946956  0.36336658  0.00730220  1
  O2-  O204  1  0.89040035  0.37789026  0.25973044  1
  O2-  O205  1  0.86474606  0.35159944  0.50897546  1
  O2-  O206  1  0.84629560  0.36975416  0.75585169  1
  O2-  O207  1  0.88804573  0.83755039  -0.01029753  1
  O2-  O208  1  0.84728259  0.84499971  0.25409807  1
  O2-  O209  1  0.91533280  0.86034727  0.49576455  1
  O2-  O210  1  0.90428050  0.84275972  0.75108034  1
  O2-  O211  1  0.02006476  0.10549187  0.04628529  1
  O2-  O212  1  -0.00049789  0.11212246  0.20089832  1
  O2-  O213  1  0.00584448  0.12419104  0.36373982  1
  O2-  O214  1  -0.02000133  0.11841298  0.85982587  1
  O2-  O215  1  0.00345803  0.61703824  0.14717078  1
  O2-  O216  1  0.00427822  0.39377460  0.12715249  1
  O2-  O217  1  0.00785861  0.38961545  0.40242583  1
  O2-  O218  1  -0.00206873  0.36824829  0.86450033  1
  O2-  O219  1  0.24669959  -0.04403042  -0.14350844  1
  O2-  O220  1  0.24971852  0.15106216  0.38295085  1
  O2-  O221  1  0.23892371  0.14041878  0.59814809  1
  O2-  O222  1  0.20929591  -0.01419625  0.67141021  1
  O2-  O223  1  0.25737613  0.36058654  -0.10853700  1
  O2-  O224  1  0.26185131  0.34722454  0.35561384  1
  O2-  O225  1  0.24086743  0.60025552  0.62335038  1
  O2-  O226  1  0.26420821  0.40760757  0.65446127  1
  O2-  O227  1  0.51585116  -0.06569642  0.11372784  1
  O2-  O228  1  0.50539824  0.09295460  0.26514680  1
  O2-  O229  1  0.51104870  0.11902392  0.42321396  1
  O2-  O230  1  0.48500540  0.13628874  0.66958948  1
  O2-  O231  1  0.48738019  0.56522610  0.11103755  1
  O2-  O232  1  0.47341308  0.44614684  0.24297535  1
  O2-  O233  1  0.49906224  0.38168838  0.39334922  1
  O2-  O234  1  0.51258966  0.33802724  0.62680014  1
  O2-  O235  1  0.74750114  0.12742734  -0.14029682  1
  O2-  O236  1  0.72961527  0.12705988  0.40796433  1
  O2-  O237  1  0.77113623  -0.15988249  0.60933769  1
  O2-  O238  1  0.73504266  0.08476867  0.62855064  1
  O2-  O239  1  0.74169663  0.36880755  -0.10976564  1
  O2-  O240  1  0.75104116  0.35868581  0.37931294  1
  O2-  O241  1  0.74330700  0.63684733  0.67948952  1
  O2-  O242  1  0.74935156  0.45889346  0.62220170  1
