# generated using pymatgen
data_Gd19Ta56(WO20)8
_symmetry_space_group_name_H-M   'P 1'
_cell_length_a   15.55032807
_cell_length_b   15.44272988
_cell_length_c   15.31947498
_cell_angle_alpha   90.02661302
_cell_angle_beta   90.43557319
_cell_angle_gamma   90.01380079
_symmetry_Int_Tables_number   1
_chemical_formula_structural   Gd19Ta56(WO20)8
_chemical_formula_sum   'Gd19 Ta56 W8 O160'
_cell_volume   3678.70449282
_cell_formula_units_Z   1
loop_
 _symmetry_equiv_pos_site_id
 _symmetry_equiv_pos_as_xyz
  1  'x, y, z'
loop_
 _atom_type_symbol
 _atom_type_oxidation_number
  Gd3+  3.0
  Ta5+  5.0
  W6+  6.0
  O2-  -2.0
loop_
 _atom_site_type_symbol
 _atom_site_label
 _atom_site_symmetry_multiplicity
 _atom_site_fract_x
 _atom_site_fract_y
 _atom_site_fract_z
 _atom_site_occupancy
  Gd3+  Gd0  1  0.05307937  0.22137718  0.48677490  1
  Gd3+  Gd1  1  0.54359316  0.25114695  0.71083336  1
  Gd3+  Gd2  1  0.48493047  0.76010169  0.49898401  1
  Gd3+  Gd3  1  0.75060511  0.73525355  -0.00321630  1
  Gd3+  Gd4  1  0.50807862  0.25270925  0.48140110  1
  Gd3+  Gd5  1  0.51656289  0.76297429  -0.00940651  1
  Gd3+  Gd6  1  -0.00606016  0.75096042  0.51090621  1
  Gd3+  Gd7  1  0.75266660  0.25307353  0.51397311  1
  Gd3+  Gd8  1  0.23643754  0.25974320  0.75439067  1
  Gd3+  Gd9  1  0.47752020  0.75552601  0.75820368  1
  Gd3+  Gd10  1  -0.00988180  0.73766436  0.25993675  1
  Gd3+  Gd11  1  0.23599849  0.74191498  0.23672129  1
  Gd3+  Gd12  1  0.24092180  0.27666341  0.31102392  1
  Gd3+  Gd13  1  -0.01008392  0.21389064  0.25039301  1
  Gd3+  Gd14  1  0.50138443  0.25892870  0.03824019  1
  Gd3+  Gd15  1  0.76638522  0.24832891  0.77571552  1
  Gd3+  Gd16  1  0.26431805  0.24792569  0.00922615  1
  Gd3+  Gd17  1  0.47439710  0.74335265  0.24388024  1
  Gd3+  Gd18  1  0.69941718  0.75625209  0.22107780  1
  Ta5+  Ta19  1  0.61337360  0.63097368  0.62707753  1
  Ta5+  Ta20  1  0.65788014  0.87962373  0.86730264  1
  Ta5+  Ta21  1  0.15683032  0.07882768  0.35529635  1
  Ta5+  Ta22  1  0.66285554  0.38195675  0.35622277  1
  Ta5+  Ta23  1  0.41207450  0.12187604  0.36146125  1
  Ta5+  Ta24  1  0.37426072  0.37397959  0.60517656  1
  Ta5+  Ta25  1  0.85265738  0.62606200  0.62387712  1
  Ta5+  Ta26  1  0.67362779  0.14110824  0.11848652  1
  Ta5+  Ta27  1  0.10126703  0.62581983  0.10062309  1
  Ta5+  Ta28  1  0.88776480  0.36248964  0.13172886  1
  Ta5+  Ta29  1  0.11488165  0.63094742  0.65923028  1
  Ta5+  Ta30  1  0.88880639  0.11352509  0.88859093  1
  Ta5+  Ta31  1  0.19350661  0.62131951  0.88700590  1
  Ta5+  Ta32  1  0.68414907  0.38582113  0.10121289  1
  Ta5+  Ta33  1  0.34935954  0.13198224  0.17361255  1
  Ta5+  Ta34  1  0.83987171  0.11537326  0.12872282  1
  Ta5+  Ta35  1  0.12909465  0.10969771  0.87867440  1
  Ta5+  Ta36  1  0.10683227  0.38301006  0.62762952  1
  Ta5+  Ta37  1  0.36585039  0.62357089  0.88400067  1
  Ta5+  Ta38  1  0.40967492  0.13731871  0.84868510  1
  Ta5+  Ta39  1  0.37081215  0.89533067  0.88741525  1
  Ta5+  Ta40  1  0.61298306  0.39071804  0.85920315  1
  Ta5+  Ta41  1  0.85765167  0.87218926  0.38170192  1
  Ta5+  Ta42  1  0.34390479  0.13621752  0.60621485  1
  Ta5+  Ta43  1  0.36175087  0.39136540  0.16147526  1
  Ta5+  Ta44  1  0.66193348  0.06576856  0.62808449  1
  Ta5+  Ta45  1  0.86586478  0.60814129  0.13290548  1
  Ta5+  Ta46  1  0.11578297  0.37398599  0.11308049  1
  Ta5+  Ta47  1  0.64482871  0.39916869  0.60489464  1
  Ta5+  Ta48  1  0.84004533  0.11880014  0.37927096  1
  Ta5+  Ta49  1  0.86259418  0.87445509  0.12390784  1
  Ta5+  Ta50  1  0.14433647  0.61770201  0.41173973  1
  Ta5+  Ta51  1  0.62316648  0.59065449  0.11727772  1
  Ta5+  Ta52  1  0.34933526  0.60748083  0.40481593  1
  Ta5+  Ta53  1  0.65648509  0.87942692  0.41487806  1
  Ta5+  Ta54  1  0.82378856  0.87608895  0.85714738  1
  Ta5+  Ta55  1  0.32944459  0.89588130  0.37313303  1
  Ta5+  Ta56  1  0.62207548  0.92589019  0.11488117  1
  Ta5+  Ta57  1  0.35318260  0.62028270  0.63381482  1
  Ta5+  Ta58  1  0.84796459  0.61101505  0.38949609  1
  Ta5+  Ta59  1  0.11240860  0.10779219  0.10600177  1
  Ta5+  Ta60  1  0.36645261  0.62986558  0.08573899  1
  Ta5+  Ta61  1  0.89524548  0.12022397  0.63029753  1
  Ta5+  Ta62  1  0.13652085  0.86999484  0.63695727  1
  Ta5+  Ta63  1  0.14453679  0.85973492  0.87739356  1
  Ta5+  Ta64  1  0.41885501  0.38856850  0.35391770  1
  Ta5+  Ta65  1  0.10153589  0.85858585  0.10246700  1
  Ta5+  Ta66  1  0.61559954  0.12478096  0.87484367  1
  Ta5+  Ta67  1  0.61666272  0.88383332  0.64814428  1
  Ta5+  Ta68  1  0.66744613  0.12201262  0.36762764  1
  Ta5+  Ta69  1  0.40712393  0.38132300  0.84714076  1
  Ta5+  Ta70  1  0.87520307  0.37771900  0.64284081  1
  Ta5+  Ta71  1  0.83630320  0.88202268  0.60546336  1
  Ta5+  Ta72  1  0.62613740  0.61113450  0.86613584  1
  Ta5+  Ta73  1  0.12291218  0.38305865  0.88519884  1
  Ta5+  Ta74  1  0.64467133  0.62623313  0.38615616  1
  W6+  W75  1  0.37126736  0.88643076  0.62694676  1
  W6+  W76  1  0.08539500  0.38098066  0.36656644  1
  W6+  W77  1  0.38541963  0.89425147  0.11839851  1
  W6+  W78  1  0.17911734  0.12058103  0.61631575  1
  W6+  W79  1  0.86315253  0.37866023  0.90591704  1
  W6+  W80  1  0.88204484  0.62614531  0.86771891  1
  W6+  W81  1  0.89343475  0.35845850  0.38465482  1
  W6+  W82  1  0.12337046  0.87506093  0.37619240  1
  O2-  O83  1  0.11646703  -0.02028962  0.08389677  1
  O2-  O84  1  0.06324182  0.00544283  0.36241627  1
  O2-  O85  1  0.14940813  -0.01293122  0.63114694  1
  O2-  O86  1  0.12155767  -0.00773123  0.87726985  1
  O2-  O87  1  0.11088288  0.50240234  0.11285226  1
  O2-  O88  1  0.08854613  0.52252802  0.37365335  1
  O2-  O89  1  0.09568363  0.50598254  0.63734308  1
  O2-  O90  1  0.17320731  0.49415010  0.89071491  1
  O2-  O91  1  0.32553244  0.01822856  0.14774425  1
  O2-  O92  1  0.40296139  -0.00039280  0.36153108  1
  O2-  O93  1  0.35702829  0.01911062  0.61693638  1
  O2-  O94  1  0.36878002  0.02828139  0.87750844  1
  O2-  O95  1  0.35573530  0.50571017  0.11937700  1
  O2-  O96  1  0.41709696  0.51807794  0.36162667  1
  O2-  O97  1  0.35688402  0.49936545  0.62866073  1
  O2-  O98  1  0.37275199  0.49096299  0.87842880  1
  O2-  O99  1  0.58935550  0.03907879  0.11823668  1
  O2-  O100  1  0.64006441  -0.00981026  0.37385056  1
  O2-  O101  1  0.55933760  0.00200583  0.64484370  1
  O2-  O102  1  0.64059107  0.00622883  0.86381015  1
  O2-  O103  1  0.59142904  0.47178908  0.12310340  1
  O2-  O104  1  0.63214829  0.51095645  0.35820537  1
  O2-  O105  1  0.59509576  0.50936613  0.62120738  1
  O2-  O106  1  0.66391972  0.49999688  0.82502979  1
  O2-  O107  1  0.87813969  -0.00857186  0.13934086  1
  O2-  O108  1  0.84379258  -0.00482403  0.37912539  1
  O2-  O109  1  0.89057761  -0.00105968  0.62235349  1
  O2-  O110  1  0.87257248  -0.00699913  0.86345470  1
  O2-  O111  1  0.90072486  0.49339775  0.13675403  1
  O2-  O112  1  0.86023791  0.49388120  0.37808722  1
  O2-  O113  1  0.85585242  0.49821908  0.62910885  1
  O2-  O114  1  0.88023025  0.50727359  0.88521627  1
  O2-  O115  1  0.13940980  0.23563532  0.10395301  1
  O2-  O116  1  0.10937062  0.20831152  0.34425967  1
  O2-  O117  1  0.16353694  0.26653555  0.62081009  1
  O2-  O118  1  0.16624762  0.25610908  0.88793729  1
  O2-  O119  1  0.16675891  0.74944663  0.09429174  1
  O2-  O120  1  0.07928912  0.72783018  0.38149698  1
  O2-  O121  1  0.06479761  0.74515917  0.64768355  1
  O2-  O122  1  0.19685288  0.74882429  0.86811075  1
  O2-  O123  1  0.30299568  0.26203051  0.17921321  1
  O2-  O124  1  0.39479167  0.26271610  0.35513130  1
  O2-  O125  1  0.42552711  0.25266121  0.61136376  1
  O2-  O126  1  0.35527390  0.25580458  0.88048444  1
  O2-  O127  1  0.42104292  0.75594930  0.09778336  1
  O2-  O128  1  0.41372868  0.71026358  0.37498844  1
  O2-  O129  1  0.40372436  0.74751793  0.63028038  1
  O2-  O130  1  0.38913030  0.76111771  0.89192771  1
  O2-  O131  1  0.64805743  0.26943151  0.10874153  1
  O2-  O132  1  0.66407203  0.25561539  0.38566671  1
  O2-  O133  1  0.61429293  0.27310413  0.58139010  1
  O2-  O134  1  0.62226690  0.25668788  0.84702669  1
  O2-  O135  1  0.62585880  0.72063424  0.08871499  1
  O2-  O136  1  0.60015895  0.76421967  0.37668966  1
  O2-  O137  1  0.58620710  0.75840342  0.63016763  1
  O2-  O138  1  0.63817323  0.74078782  0.88627245  1
  O2-  O139  1  0.86497492  0.24094288  0.12501668  1
  O2-  O140  1  0.93549502  0.21907720  0.39108495  1
  O2-  O141  1  0.83222407  0.24415296  0.64266614  1
  O2-  O142  1  0.84931499  0.23616709  0.89529331  1
  O2-  O143  1  0.82473267  0.74387455  0.14098840  1
  O2-  O144  1  0.89418769  0.74216177  0.39017945  1
  O2-  O145  1  0.86270412  0.75541999  0.59565376  1
  O2-  O146  1  0.82920418  0.74395339  0.86723154  1
  O2-  O147  1  0.18832993  0.11579448  -0.00699814  1
  O2-  O148  1  0.14635006  0.09183132  0.22194486  1
  O2-  O149  1  0.16228562  0.11691633  0.47407191  1
  O2-  O150  1  0.16576443  0.12864576  0.76375225  1
  O2-  O151  1  0.10412849  0.63383353  -0.02232994  1
  O2-  O152  1  0.11528713  0.65669376  0.22501278  1
  O2-  O153  1  0.09651318  0.63700455  0.52459488  1
  O2-  O154  1  0.11724675  0.62092953  0.78062446  1
  O2-  O155  1  0.38312184  0.16675915  0.05984399  1
  O2-  O156  1  0.28719392  0.13249551  0.30506542  1
  O2-  O157  1  0.37737646  0.14510017  0.48140654  1
  O2-  O158  1  0.35010232  0.16013716  0.73744240  1
  O2-  O159  1  0.45207441  0.62198724  -0.00556810  1
  O2-  O160  1  0.35751304  0.65779825  0.20912778  1
  O2-  O161  1  0.40784467  0.62670585  0.51869341  1
  O2-  O162  1  0.38551241  0.63003144  0.75572576  1
  O2-  O163  1  0.66647728  0.14169795  -0.01456205  1
  O2-  O164  1  0.66050853  0.13998461  0.24756228  1
  O2-  O165  1  0.66557264  0.10868994  0.51428550  1
  O2-  O166  1  0.66871764  0.13804755  0.73412123  1
  O2-  O167  1  0.63786232  0.58848665  -0.01063794  1
  O2-  O168  1  0.58873299  0.64288042  0.24283862  1
  O2-  O169  1  0.58402539  0.64329820  0.49896383  1
  O2-  O170  1  0.57238115  0.63590527  0.74763219  1
  O2-  O171  1  0.85301777  0.09705244  0.00286426  1
  O2-  O172  1  0.87349925  0.12739087  0.25727625  1
  O2-  O173  1  0.84675512  0.13332738  0.51216603  1
  O2-  O174  1  0.87537159  0.13159076  0.75608205  1
  O2-  O175  1  0.84766829  0.62910867  0.00873392  1
  O2-  O176  1  0.89758389  0.62672804  0.26216015  1
  O2-  O177  1  0.91064643  0.61846848  0.50773591  1
  O2-  O178  1  0.90873906  0.63710254  0.72884909  1
  O2-  O179  1  0.18527514  0.37361852  0.00886888  1
  O2-  O180  1  0.13534641  0.36140990  0.23298387  1
  O2-  O181  1  0.08135681  0.36967862  0.50674733  1
  O2-  O182  1  0.13866925  0.37377216  0.75978415  1
  O2-  O183  1  0.07325969  0.84183032  -0.02715565  1
  O2-  O184  1  0.12502778  0.85442852  0.22884903  1
  O2-  O185  1  0.10404210  0.85469807  0.51555402  1
  O2-  O186  1  0.10037985  0.86631234  0.76202198  1
  O2-  O187  1  0.37879434  0.34115003  0.04920044  1
  O2-  O188  1  0.30806321  0.40591294  0.28274524  1
  O2-  O189  1  0.38961402  0.38031035  0.48204291  1
  O2-  O190  1  0.34412716  0.35746847  0.73533575  1
  O2-  O191  1  0.44494697  0.90095775  -0.01415926  1
  O2-  O192  1  0.36102680  0.85284560  0.25885131  1
  O2-  O193  1  0.37576061  0.86595045  0.48348271  1
  O2-  O194  1  0.39312177  0.88345304  0.76589395  1
  O2-  O195  1  0.65458597  0.38940712  -0.02503601  1
  O2-  O196  1  0.69433727  0.38030530  0.23798343  1
  O2-  O197  1  0.69052488  0.40189077  0.48579663  1
  O2-  O198  1  0.66680626  0.35913473  0.72630357  1
  O2-  O199  1  0.63741245  0.87802778  0.00006514  1
  O2-  O200  1  0.57136215  0.85359504  0.20467349  1
  O2-  O201  1  0.58061237  0.87952176  0.51441843  1
  O2-  O202  1  0.57882072  0.86463530  0.76439554  1
  O2-  O203  1  0.80088871  0.38719934  0.04281893  1
  O2-  O204  1  0.92626204  0.34743963  0.25055165  1
  O2-  O205  1  0.86618034  0.35296389  0.51950730  1
  O2-  O206  1  0.85383388  0.36780891  0.76673318  1
  O2-  O207  1  0.83853704  0.86270806  -0.00000805  1
  O2-  O208  1  0.90247799  0.86078977  0.26380793  1
  O2-  O209  1  0.92079873  0.88142545  0.49547958  1
  O2-  O210  1  0.83420726  0.86970401  0.72776928  1
  O2-  O211  1  -0.00367169  0.12641508  0.12022625  1
  O2-  O212  1  -0.01535121  -0.16694274  0.12088044  1
  O2-  O213  1  0.00862931  0.14842590  0.60796310  1
  O2-  O214  1  0.01172885  0.13722264  0.89369747  1
  O2-  O215  1  0.00261677  0.35047246  0.08138941  1
  O2-  O216  1  -0.01468491  0.65591998  0.11457069  1
  O2-  O217  1  -0.00623568  0.34650607  0.65741477  1
  O2-  O218  1  0.00767041  0.37554856  0.89676961  1
  O2-  O219  1  0.25652158  -0.09981756  -0.07520987  1
  O2-  O220  1  0.23109430  -0.02487207  0.36517406  1
  O2-  O221  1  0.24305780  -0.19679265  0.37458362  1
  O2-  O222  1  0.24731516  -0.16877667  0.64200823  1
  O2-  O223  1  0.28109120  0.63219891  -0.00528370  1
  O2-  O224  1  0.24707246  0.63187295  0.33259462  1
  O2-  O225  1  0.25068357  0.57942109  0.47998346  1
  O2-  O226  1  0.23510223  0.64304710  0.64699481  1
  O2-  O227  1  0.50247314  0.15203900  -0.06113475  1
  O2-  O228  1  0.45170721  0.13364751  0.23543311  1
  O2-  O229  1  0.53089440  0.13768225  0.39424550  1
  O2-  O230  1  0.51044494  0.12253743  0.77986216  1
  O2-  O231  1  0.49988696  0.35804550  -0.06934790  1
  O2-  O232  1  0.46368828  0.37838376  0.22439107  1
  O2-  O233  1  0.53765093  0.36791167  0.38805349  1
  O2-  O234  1  0.50783999  0.38834378  0.77188633  1
  O2-  O235  1  0.73667546  -0.11155700  0.14882008  1
  O2-  O236  1  0.74463958  -0.15355753  0.32656212  1
  O2-  O237  1  0.76029972  -0.13438825  0.48609181  1
  O2-  O238  1  0.72685683  -0.04395580  0.61907988  1
  O2-  O239  1  0.74108444  0.59108891  0.15159602  1
  O2-  O240  1  0.74622675  0.66019613  0.31960426  1
  O2-  O241  1  0.74523703  0.61127634  0.46741988  1
  O2-  O242  1  0.73321571  0.63821981  0.64550649  1
