# generated using pymatgen
data_Gd19Ta56(WO20)8
_symmetry_space_group_name_H-M   'P 1'
_cell_length_a   15.66359560
_cell_length_b   15.45053919
_cell_length_c   15.30405785
_cell_angle_alpha   90.34614715
_cell_angle_beta   89.80420685
_cell_angle_gamma   90.17671698
_symmetry_Int_Tables_number   1
_chemical_formula_structural   Gd19Ta56(WO20)8
_chemical_formula_sum   'Gd19 Ta56 W8 O160'
_cell_volume   3703.64371230
_cell_formula_units_Z   1
loop_
 _symmetry_equiv_pos_site_id
 _symmetry_equiv_pos_as_xyz
  1  'x, y, z'
loop_
 _atom_type_symbol
 _atom_type_oxidation_number
  Gd3+  3.0
  Ta5+  5.0
  W6+  6.0
  O2-  -2.0
loop_
 _atom_site_type_symbol
 _atom_site_label
 _atom_site_symmetry_multiplicity
 _atom_site_fract_x
 _atom_site_fract_y
 _atom_site_fract_z
 _atom_site_occupancy
  Gd3+  Gd0  1  0.46490464  0.22784415  0.27363812  1
  Gd3+  Gd1  1  0.27774467  0.73078552  0.22328313  1
  Gd3+  Gd2  1  0.77972462  0.24539433  0.76049687  1
  Gd3+  Gd3  1  -0.04497867  0.74441654  0.75328950  1
  Gd3+  Gd4  1  0.01433057  0.24422352  0.74702540  1
  Gd3+  Gd5  1  0.51120949  0.75084016  0.26248068  1
  Gd3+  Gd6  1  0.26104095  0.74744725  -0.02812620  1
  Gd3+  Gd7  1  -0.05077571  0.24123151  -0.02737384  1
  Gd3+  Gd8  1  0.54545794  0.26978517  0.74493936  1
  Gd3+  Gd9  1  -0.01596486  0.74601927  0.29223553  1
  Gd3+  Gd10  1  0.25324753  0.24215611  0.24056816  1
  Gd3+  Gd11  1  0.75197810  0.74194369  0.01864447  1
  Gd3+  Gd12  1  0.24634837  0.27605348  0.72230229  1
  Gd3+  Gd13  1  0.50886117  0.27057242  0.50828129  1
  Gd3+  Gd14  1  0.53240172  0.74678870  0.00334783  1
  Gd3+  Gd15  1  0.27929691  0.25830857  0.48674740  1
  Gd3+  Gd16  1  0.55072509  0.73978039  0.76630001  1
  Gd3+  Gd17  1  0.76461712  0.24935996  0.22484838  1
  Gd3+  Gd18  1  0.18102524  0.82746511  0.75345881  1
  Ta5+  Ta19  1  0.87256750  0.07135053  0.87718755  1
  Ta5+  Ta20  1  0.11637894  0.06287996  0.62365497  1
  Ta5+  Ta21  1  0.38156786  0.91697526  0.87807606  1
  Ta5+  Ta22  1  0.89567669  0.38388039  0.11995126  1
  Ta5+  Ta23  1  0.63280041  0.88336905  0.14032707  1
  Ta5+  Ta24  1  0.39778066  0.91383604  0.08874608  1
  Ta5+  Ta25  1  0.13953742  0.87048609  0.36406759  1
  Ta5+  Ta26  1  0.37653652  0.38841885  0.87194671  1
  Ta5+  Ta27  1  0.40776396  0.43310752  0.62495974  1
  Ta5+  Ta28  1  0.11014345  0.61848017  0.87757235  1
  Ta5+  Ta29  1  0.83181565  0.86766697  0.86915322  1
  Ta5+  Ta30  1  0.14512965  0.61410891  0.40154368  1
  Ta5+  Ta31  1  0.87606799  0.87721826  0.12611566  1
  Ta5+  Ta32  1  0.64565921  0.12870209  0.89080896  1
  Ta5+  Ta33  1  0.42157920  0.57156913  0.88879466  1
  Ta5+  Ta34  1  0.67578845  0.62265780  0.63037411  1
  Ta5+  Ta35  1  0.40874780  0.57868098  0.08758005  1
  Ta5+  Ta36  1  0.83468618  0.86953914  0.62211114  1
  Ta5+  Ta37  1  0.66081584  0.42098420  0.60781203  1
  Ta5+  Ta38  1  0.15036912  0.37674703  0.88667565  1
  Ta5+  Ta39  1  0.65778900  0.86141448  0.39166857  1
  Ta5+  Ta40  1  0.11424205  0.11328378  0.14024914  1
  Ta5+  Ta41  1  0.90082711  0.38944241  0.62401449  1
  Ta5+  Ta42  1  0.13441668  0.37744888  0.12526811  1
  Ta5+  Ta43  1  0.66926111  0.89072949  0.88067335  1
  Ta5+  Ta44  1  0.65476454  0.11445816  0.61661979  1
  Ta5+  Ta45  1  0.12685382  0.38535303  0.36133147  1
  Ta5+  Ta46  1  0.40387363  0.86615849  0.65177947  1
  Ta5+  Ta47  1  0.35458306  0.11207879  0.06774400  1
  Ta5+  Ta48  1  0.66828215  0.87117783  0.63856011  1
  Ta5+  Ta49  1  0.87897489  0.62345131  0.13839469  1
  Ta5+  Ta50  1  0.82354693  0.86971724  0.37428502  1
  Ta5+  Ta51  1  0.04411636  0.89363847  0.94016077  1
  Ta5+  Ta52  1  0.81796149  0.62355288  0.38377850  1
  Ta5+  Ta53  1  0.83772083  0.61106404  0.87675034  1
  Ta5+  Ta54  1  0.38724130  0.11586187  0.63291705  1
  Ta5+  Ta55  1  0.88110303  0.11657674  0.61746283  1
  Ta5+  Ta56  1  0.84964950  0.41230605  0.86583383  1
  Ta5+  Ta57  1  0.56090231  0.37165691  0.15404857  1
  Ta5+  Ta58  1  0.63255855  0.36015417  0.94367623  1
  Ta5+  Ta59  1  0.11252322  0.39499307  0.55377685  1
  Ta5+  Ta60  1  0.84126611  0.61414233  0.62409807  1
  Ta5+  Ta61  1  0.33257408  0.84362438  0.42137839  1
  Ta5+  Ta62  1  0.62100283  0.38099994  0.36686176  1
  Ta5+  Ta63  1  0.91634543  0.11729599  0.13334923  1
  Ta5+  Ta64  1  0.61409236  0.12559254  0.14023423  1
  Ta5+  Ta65  1  0.13506318  0.11962262  0.38551917  1
  Ta5+  Ta66  1  0.63494199  0.60683179  0.13958392  1
  Ta5+  Ta67  1  0.34250813  0.62695317  0.42165115  1
  Ta5+  Ta68  1  0.39990951  0.36469074  0.11833899  1
  Ta5+  Ta69  1  0.40001782  0.07427388  0.40171199  1
  Ta5+  Ta70  1  0.66921776  0.59456387  0.88315816  1
  Ta5+  Ta71  1  0.10244610  0.62200417  0.08417374  1
  Ta5+  Ta72  1  0.60670417  0.10633024  0.38081881  1
  Ta5+  Ta73  1  0.38756460  0.14654783  0.83426961  1
  Ta5+  Ta74  1  0.41014974  0.40628518  0.36968997  1
  W6+  W75  1  0.12053175  0.86001875  0.12157921  1
  W6+  W76  1  0.85535664  0.37595681  0.37760799  1
  W6+  W77  1  0.04124467  0.84220634  0.56240444  1
  W6+  W78  1  0.10046538  0.06446917  0.80496625  1
  W6+  W79  1  0.38491675  0.68130354  0.66057606  1
  W6+  W80  1  0.04525143  0.61426941  0.62671429  1
  W6+  W81  1  0.65592969  0.62930244  0.37882119  1
  W6+  W82  1  0.85943892  0.11705559  0.36669202  1
  O2-  O83  1  0.11128218  -0.00423405  0.12456397  1
  O2-  O84  1  0.14017183  -0.00819795  0.38022354  1
  O2-  O85  1  0.06258901  -0.02968601  0.56450576  1
  O2-  O86  1  0.10724499  -0.00872387  0.92228448  1
  O2-  O87  1  0.11735680  0.51082206  0.13050526  1
  O2-  O88  1  0.10892378  0.51195232  0.34293302  1
  O2-  O89  1  0.12313053  0.49938593  0.60806150  1
  O2-  O90  1  0.12968708  0.49770415  0.87294289  1
  O2-  O91  1  0.40287402  0.02811645  0.14833275  1
  O2-  O92  1  0.37216976  -0.04284936  0.38218192  1
  O2-  O93  1  0.40070776  -0.00499471  0.63959404  1
  O2-  O94  1  0.35931358  0.02449076  0.82895350  1
  O2-  O95  1  0.34855443  0.48343422  0.13030788  1
  O2-  O96  1  0.40932507  0.53316800  0.38134199  1
  O2-  O97  1  0.41429644  0.54857293  0.63806310  1
  O2-  O98  1  0.46558549  0.46017039  0.82468995  1
  O2-  O99  1  0.60055791  0.00238505  0.14293567  1
  O2-  O100  1  0.62985056  -0.01180904  0.38016230  1
  O2-  O101  1  0.63621503  -0.00096020  0.64142785  1
  O2-  O102  1  0.60800594  0.01501481  0.88364438  1
  O2-  O103  1  0.59969422  0.49180693  0.14289786  1
  O2-  O104  1  0.65683082  0.49409387  0.36691951  1
  O2-  O105  1  0.59259613  0.51875370  0.61959015  1
  O2-  O106  1  0.62199062  0.47522485  0.91733848  1
  O2-  O107  1  0.91006178  -0.00456810  0.12503393  1
  O2-  O108  1  0.83401182  -0.00892170  0.36456476  1
  O2-  O109  1  0.85107971  0.00020580  0.62074836  1
  O2-  O110  1  0.93479183  -0.03664947  0.89703934  1
  O2-  O111  1  0.91486980  0.50483595  0.12447181  1
  O2-  O112  1  0.84060983  0.50361745  0.36937600  1
  O2-  O113  1  0.93861162  0.50847330  0.62067811  1
  O2-  O114  1  0.92636091  0.50325061  0.88128297  1
  O2-  O115  1  0.14986066  0.25187752  0.13837274  1
  O2-  O116  1  0.16674727  0.24951067  0.37416977  1
  O2-  O117  1  0.19385582  0.31098862  0.59220038  1
  O2-  O118  1  0.06634768  0.30103187  0.92323669  1
  O2-  O119  1  0.16446600  0.71928232  0.13448967  1
  O2-  O120  1  0.12799194  0.72133314  0.34081369  1
  O2-  O121  1  0.07528285  0.75515552  0.65070202  1
  O2-  O122  1  0.19256170  0.70338046  0.84089221  1
  O2-  O123  1  0.37148191  0.22522892  0.13418578  1
  O2-  O124  1  0.40029026  0.28021904  0.40574290  1
  O2-  O125  1  0.38327028  0.24397788  0.59850780  1
  O2-  O126  1  0.41288277  0.27452451  0.81545659  1
  O2-  O127  1  0.31295765  0.82801077  0.09935027  1
  O2-  O128  1  0.38495892  0.74323196  0.35927353  1
  O2-  O129  1  0.30512972  0.80336621  0.68060729  1
  O2-  O130  1  0.27891423  0.85521287  0.86486124  1
  O2-  O131  1  0.55547158  0.23294256  0.15820878  1
  O2-  O132  1  0.57833640  0.24230323  0.37735909  1
  O2-  O133  1  0.56974228  0.19967181  0.61654117  1
  O2-  O134  1  0.58567587  0.24781546  0.89112079  1
  O2-  O135  1  0.63361139  0.74616010  0.12516991  1
  O2-  O136  1  0.59570949  0.75080490  0.38527730  1
  O2-  O137  1  0.65192951  0.74286605  0.65329641  1
  O2-  O138  1  0.63427879  0.74770186  0.89013378  1
  O2-  O139  1  0.88146135  0.24623982  0.11591110  1
  O2-  O140  1  0.82407642  0.24727659  0.35753690  1
  O2-  O141  1  0.89435271  0.25550459  0.66172060  1
  O2-  O142  1  0.90367488  0.29636251  0.84311684  1
  O2-  O143  1  0.85639832  0.74799751  0.12027074  1
  O2-  O144  1  0.86745652  0.74606210  0.38029983  1
  O2-  O145  1  0.85736588  0.74072446  0.63280457  1
  O2-  O146  1  0.84209423  0.73990578  0.87225897  1
  O2-  O147  1  0.02981261  0.14843212  0.05592345  1
  O2-  O148  1  0.17135311  0.11936639  0.26059218  1
  O2-  O149  1  0.15037641  0.12893888  0.51132292  1
  O2-  O150  1  0.13688808  0.16756214  0.70925189  1
  O2-  O151  1  0.19226884  0.62065145  -0.00770406  1
  O2-  O152  1  0.00418669  0.66264164  0.15367224  1
  O2-  O153  1  0.06656475  0.62985703  0.48986926  1
  O2-  O154  1  0.04675327  0.62512603  0.77350656  1
  O2-  O155  1  0.39612076  0.15596069  -0.04168553  1
  O2-  O156  1  0.33897083  0.14486068  0.32238712  1
  O2-  O157  1  0.33589656  0.10901093  0.50709909  1
  O2-  O158  1  0.30681897  0.14198694  0.72371158  1
  O2-  O159  1  0.38929782  0.67107911  -0.01468528  1
  O2-  O160  1  0.40683395  0.67321420  0.17751140  1
  O2-  O161  1  0.37259436  0.68880577  0.52129635  1
  O2-  O162  1  0.42842639  0.65978751  0.80187442  1
  O2-  O163  1  0.63818595  0.13689273  0.01961015  1
  O2-  O164  1  0.65948639  0.13379008  0.26535018  1
  O2-  O165  1  0.66812985  0.12058984  0.49168994  1
  O2-  O166  1  0.64971051  0.15508856  0.75874155  1
  O2-  O167  1  0.63873213  0.62682209  0.00932141  1
  O2-  O168  1  0.59088885  0.63260870  0.25524421  1
  O2-  O169  1  0.67472387  0.63642439  0.50919025  1
  O2-  O170  1  0.63328692  0.61384695  0.76418845  1
  O2-  O171  1  0.87568801  0.11100973  0.00013108  1
  O2-  O172  1  0.83509938  0.11951245  0.22642516  1
  O2-  O173  1  0.88747531  0.13264866  0.49857075  1
  O2-  O174  1  0.85884523  0.11081968  0.75845520  1
  O2-  O175  1  0.84570982  0.62203466  0.00646086  1
  O2-  O176  1  0.87884460  0.63458741  0.26329137  1
  O2-  O177  1  0.85813583  0.61987128  0.49942175  1
  O2-  O178  1  0.86671413  0.61617241  0.75081202  1
  O2-  O179  1  0.18466609  0.38961455  0.01604939  1
  O2-  O180  1  0.18361987  0.37963179  0.24409491  1
  O2-  O181  1  0.20613700  0.39888815  0.45152207  1
  O2-  O182  1  0.12522493  0.34517367  0.76711844  1
  O2-  O183  1  0.14191890  0.83038207  -0.01286879  1
  O2-  O184  1  0.08216295  0.85959744  0.25451709  1
  O2-  O185  1  0.03754128  0.84082922  0.42679280  1
  O2-  O186  1  0.05140575  0.83007153  0.83228620  1
  O2-  O187  1  0.40027006  0.36039215  -0.01201580  1
  O2-  O188  1  0.36166426  0.35241564  0.25788757  1
  O2-  O189  1  0.36504914  0.40866422  0.51196210  1
  O2-  O190  1  0.33562828  0.39742331  0.71683888  1
  O2-  O191  1  0.34584366  0.98772526  -0.00285499  1
  O2-  O192  1  0.49623862  0.85116043  0.13421325  1
  O2-  O193  1  0.39693075  0.86069824  0.52351344  1
  O2-  O194  1  0.44383103  0.87062818  0.77953930  1
  O2-  O195  1  0.65346582  0.34199042  0.05982806  1
  O2-  O196  1  0.66133918  0.34687083  0.25220695  1
  O2-  O197  1  0.65569593  0.35677010  0.50134948  1
  O2-  O198  1  0.67307312  0.34076429  0.69980031  1
  O2-  O199  1  0.63391788  0.86944561  0.00830904  1
  O2-  O200  1  0.61341654  0.85982623  0.26203781  1
  O2-  O201  1  0.64968888  0.86283693  0.51544265  1
  O2-  O202  1  0.62578634  0.87113554  0.76560905  1
  O2-  O203  1  0.86566899  0.37707134  -0.00205762  1
  O2-  O204  1  0.84852378  0.37335367  0.23364661  1
  O2-  O205  1  0.85130062  0.37138828  0.51726263  1
  O2-  O206  1  0.84249758  0.40122724  0.73510309  1
  O2-  O207  1  0.83030023  0.86831171  0.00161600  1
  O2-  O208  1  0.89547248  0.85737007  0.25107125  1
  O2-  O209  1  0.84274116  0.86805001  0.49778132  1
  O2-  O210  1  0.87725240  0.87310360  0.74876433  1
  O2-  O211  1  -0.00604729  -0.14108737  0.05672162  1
  O2-  O212  1  0.00879790  0.12608126  0.21538882  1
  O2-  O213  1  0.00202596  0.11835236  0.64409121  1
  O2-  O214  1  -0.01363579  0.13635283  0.86277625  1
  O2-  O215  1  0.03437517  0.63775089  -0.02415720  1
  O2-  O216  1  0.01525478  0.35870653  0.11103571  1
  O2-  O217  1  0.03850616  0.37672513  0.44953676  1
  O2-  O218  1  0.01947136  0.34951534  0.62443679  1
  O2-  O219  1  0.23856859  0.11452237  0.09151786  1
  O2-  O220  1  0.25714569  -0.15046152  0.30605698  1
  O2-  O221  1  0.22129803  -0.16091280  0.46834779  1
  O2-  O222  1  0.17055987  -0.01335551  0.70825552  1
  O2-  O223  1  0.31795447  0.50134838  -0.10521310  1
  O2-  O224  1  0.26219866  0.62693854  0.32249856  1
  O2-  O225  1  0.24102507  0.58433452  0.47761753  1
  O2-  O226  1  0.26113184  0.32523575  0.86737266  1
  O2-  O227  1  0.44653251  -0.13904518  -0.02879908  1
  O2-  O228  1  0.49546486  0.08885574  0.31206880  1
  O2-  O229  1  0.49923990  0.11135752  0.47239210  1
  O2-  O230  1  0.46937765  0.13649000  0.73126762  1
  O2-  O231  1  0.48291807  0.54090696  -0.00562553  1
  O2-  O232  1  0.51304447  0.38708765  0.28583121  1
  O2-  O233  1  0.51544820  0.40524899  0.44204159  1
  O2-  O234  1  0.51576141  0.37250122  0.63107062  1
  O2-  O235  1  0.76409131  0.15717813  -0.11132935  1
  O2-  O236  1  0.75324695  -0.10603460  0.14982591  1
  O2-  O237  1  0.76213481  0.16835790  0.62887148  1
  O2-  O238  1  0.77191240  -0.01269668  0.87199848  1
  O2-  O239  1  0.73819357  0.33934908  -0.11801339  1
  O2-  O240  1  0.75395802  0.60322982  0.14952721  1
  O2-  O241  1  0.75782487  0.49843697  0.61628578  1
  O2-  O242  1  0.76240220  0.50542719  0.85056391  1
