# generated using pymatgen
data_Gd19Ta56(WO20)8
_symmetry_space_group_name_H-M   'P 1'
_cell_length_a   15.54918507
_cell_length_b   15.48741502
_cell_length_c   15.37356746
_cell_angle_alpha   89.93127726
_cell_angle_beta   89.96277034
_cell_angle_gamma   89.90629884
_symmetry_Int_Tables_number   1
_chemical_formula_structural   Gd19Ta56(WO20)8
_chemical_formula_sum   'Gd19 Ta56 W8 O160'
_cell_volume   3702.20312075
_cell_formula_units_Z   1
loop_
 _symmetry_equiv_pos_site_id
 _symmetry_equiv_pos_as_xyz
  1  'x, y, z'
loop_
 _atom_type_symbol
 _atom_type_oxidation_number
  Gd3+  3.0
  Ta5+  5.0
  W6+  6.0
  O2-  -2.0
loop_
 _atom_site_type_symbol
 _atom_site_label
 _atom_site_symmetry_multiplicity
 _atom_site_fract_x
 _atom_site_fract_y
 _atom_site_fract_z
 _atom_site_occupancy
  Gd3+  Gd0  1  0.55937096  0.76835718  0.50130055  1
  Gd3+  Gd1  1  -0.02127335  0.74978534  0.75650257  1
  Gd3+  Gd2  1  0.27752367  0.27069653  -0.00704692  1
  Gd3+  Gd3  1  0.73211461  0.74230169  0.73979889  1
  Gd3+  Gd4  1  0.76138247  0.24122392  0.02491551  1
  Gd3+  Gd5  1  -0.00608818  0.73147259  -0.00161559  1
  Gd3+  Gd6  1  0.23193293  0.23261101  0.48596295  1
  Gd3+  Gd7  1  0.50455518  0.76314839  0.01068987  1
  Gd3+  Gd8  1  0.75123252  0.73520522  0.26191808  1
  Gd3+  Gd9  1  0.51046757  0.25157764  0.02383083  1
  Gd3+  Gd10  1  0.03795293  0.23880339  0.28018182  1
  Gd3+  Gd11  1  0.22235487  0.75272544  0.47381082  1
  Gd3+  Gd12  1  0.25040644  0.75212036  0.01310244  1
  Gd3+  Gd13  1  0.26311332  0.26783543  0.24573299  1
  Gd3+  Gd14  1  0.23926429  0.76295764  0.73145060  1
  Gd3+  Gd15  1  0.23113400  0.26637841  0.73375058  1
  Gd3+  Gd16  1  0.49913295  0.27162370  0.74535097  1
  Gd3+  Gd17  1  0.50412986  0.77047918  0.25387624  1
  Gd3+  Gd18  1  -0.01245473  0.25695179  0.72254376  1
  Ta5+  Ta19  1  0.12143076  0.39281030  0.13478111  1
  Ta5+  Ta20  1  0.56456572  0.12030799  0.37040685  1
  Ta5+  Ta21  1  0.33556618  0.44272324  0.80951169  1
  Ta5+  Ta22  1  0.13276928  0.62880618  0.13564782  1
  Ta5+  Ta23  1  0.37739668  0.62108269  0.87131669  1
  Ta5+  Ta24  1  0.63963874  0.88687051  0.88233934  1
  Ta5+  Ta25  1  0.62881730  0.13566735  0.87805965  1
  Ta5+  Ta26  1  0.86105060  0.61181528  0.13149024  1
  Ta5+  Ta27  1  0.37632116  0.93498925  0.40551639  1
  Ta5+  Ta28  1  0.88480428  0.85466973  0.38650823  1
  Ta5+  Ta29  1  0.09204925  0.88480463  0.60402122  1
  Ta5+  Ta30  1  0.37135325  0.88224537  0.59908186  1
  Ta5+  Ta31  1  0.35845562  0.91392062  0.09928141  1
  Ta5+  Ta32  1  0.86520708  0.37774253  0.87431175  1
  Ta5+  Ta33  1  0.37491566  0.38610236  0.60243657  1
  Ta5+  Ta34  1  0.15960745  0.43363533  0.61028892  1
  Ta5+  Ta35  1  0.62257854  0.38426584  0.88113825  1
  Ta5+  Ta36  1  0.36808066  0.62701063  0.60821703  1
  Ta5+  Ta37  1  0.14347990  0.42066803  0.36761810  1
  Ta5+  Ta38  1  0.08012737  0.35836599  0.93516036  1
  Ta5+  Ta39  1  0.90074633  0.62228228  0.38012774  1
  Ta5+  Ta40  1  0.37193682  0.58802798  0.13029145  1
  Ta5+  Ta41  1  0.61610888  0.60674970  0.62321268  1
  Ta5+  Ta42  1  0.82599238  0.36810062  0.61885118  1
  Ta5+  Ta43  1  0.90699496  0.36795843  0.13707863  1
  Ta5+  Ta44  1  0.90024476  0.11379096  0.14042433  1
  Ta5+  Ta45  1  0.12791653  0.58681841  0.86338498  1
  Ta5+  Ta46  1  0.39878428  0.37267291  0.36964965  1
  Ta5+  Ta47  1  0.66299776  0.90025122  0.36741432  1
  Ta5+  Ta48  1  0.85624039  0.87306416  0.62759999  1
  Ta5+  Ta49  1  0.42785218  0.42968955  0.14178573  1
  Ta5+  Ta50  1  0.88420690  0.37633450  0.37724458  1
  Ta5+  Ta51  1  0.87988563  0.87854548  0.89906426  1
  Ta5+  Ta52  1  0.39203897  0.60836726  0.36549358  1
  Ta5+  Ta53  1  0.14057759  0.07408162  0.62430087  1
  Ta5+  Ta54  1  0.04761508  0.83607782  0.35336089  1
  Ta5+  Ta55  1  0.61794824  0.12092732  0.14913692  1
  Ta5+  Ta56  1  0.61162180  0.61133106  0.37329876  1
  Ta5+  Ta57  1  0.61179194  0.13068303  0.61717248  1
  Ta5+  Ta58  1  0.86466406  0.60904310  0.62569284  1
  Ta5+  Ta59  1  0.38147630  0.86424586  0.85086705  1
  Ta5+  Ta60  1  0.61720455  0.62696227  0.87969001  1
  Ta5+  Ta61  1  0.63045069  0.36067684  0.37308974  1
  Ta5+  Ta62  1  0.12712106  0.89562389  0.86398263  1
  Ta5+  Ta63  1  0.39699474  0.13216229  0.37799568  1
  Ta5+  Ta64  1  0.85359700  0.12046424  0.62718347  1
  Ta5+  Ta65  1  0.14768802  0.13075486  0.12070472  1
  Ta5+  Ta66  1  0.86237476  0.61363937  0.88489583  1
  Ta5+  Ta67  1  0.61963842  0.60316600  0.12507224  1
  Ta5+  Ta68  1  0.37750807  0.10453956  0.12992961  1
  Ta5+  Ta69  1  0.16175237  0.05763349  0.36548786  1
  Ta5+  Ta70  1  0.65385065  0.88181959  0.12375671  1
  Ta5+  Ta71  1  0.39199878  0.10489008  0.88272764  1
  Ta5+  Ta72  1  0.10914677  0.62570957  0.61172123  1
  Ta5+  Ta73  1  0.06545798  0.65131483  0.36124814  1
  Ta5+  Ta74  1  0.91524186  0.10539690  0.38417206  1
  W6+  W75  1  0.11741300  0.88109400  0.12587240  1
  W6+  W76  1  0.37428093  0.13276971  0.62891836  1
  W6+  W77  1  0.66142825  0.36291879  0.61982588  1
  W6+  W78  1  0.63015006  0.36662196  0.14984858  1
  W6+  W79  1  0.13190610  0.14403668  0.86452557  1
  W6+  W80  1  0.64446617  0.89522851  0.62598721  1
  W6+  W81  1  0.85740918  0.11133079  0.88199207  1
  W6+  W82  1  0.90008942  0.86053462  0.15550898  1
  O2-  O83  1  0.11877741  0.01536739  0.12168059  1
  O2-  O84  1  0.11996259  -0.04812385  0.34434142  1
  O2-  O85  1  0.19447423  -0.03853749  0.63494173  1
  O2-  O86  1  0.10857149  0.00936564  0.85596549  1
  O2-  O87  1  0.10427423  0.51416829  0.10084424  1
  O2-  O88  1  0.09111416  0.52524696  0.35194827  1
  O2-  O89  1  0.22186602  0.56613903  0.60600524  1
  O2-  O90  1  0.09257859  0.47045576  0.88214227  1
  O2-  O91  1  0.28666562  0.02140424  0.10881463  1
  O2-  O92  1  0.28801752  0.02628773  0.37103288  1
  O2-  O93  1  0.37580438  -0.00179592  0.61830372  1
  O2-  O94  1  0.37780783  -0.01381776  0.85894819  1
  O2-  O95  1  0.49808592  0.54672196  0.12160670  1
  O2-  O96  1  0.36133357  0.49171540  0.37308277  1
  O2-  O97  1  0.38333015  0.50827280  0.58483474  1
  O2-  O98  1  0.25831241  0.54179616  0.85206721  1
  O2-  O99  1  0.66563442  0.00250717  0.11952529  1
  O2-  O100  1  0.65272102  0.01788655  0.36499115  1
  O2-  O101  1  0.58875344  0.01694108  0.64714896  1
  O2-  O102  1  0.64172191  0.01180832  0.87996498  1
  O2-  O103  1  0.66774194  0.49680824  0.12477663  1
  O2-  O104  1  0.63598903  0.49690866  0.37449748  1
  O2-  O105  1  0.59599871  0.49185991  0.61926015  1
  O2-  O106  1  0.59278229  0.50206208  0.88473913  1
  O2-  O107  1  0.90043988  -0.00321940  0.15284342  1
  O2-  O108  1  0.90032264  -0.01128537  0.37465550  1
  O2-  O109  1  0.84548813  -0.00346159  0.64558962  1
  O2-  O110  1  0.91640594  -0.01053074  0.87916558  1
  O2-  O111  1  0.88221702  0.48963691  0.12666301  1
  O2-  O112  1  0.91432892  0.49380378  0.37135748  1
  O2-  O113  1  0.86854570  0.48748500  0.64414876  1
  O2-  O114  1  0.89701517  0.49313405  0.86512451  1
  O2-  O115  1  0.13595700  0.26454500  0.16094935  1
  O2-  O116  1  0.15185151  0.28559036  0.36251328  1
  O2-  O117  1  0.23569765  0.16598494  0.62551509  1
  O2-  O118  1  0.15410691  0.28849243  0.86366614  1
  O2-  O119  1  0.10975902  0.74599969  0.09103587  1
  O2-  O120  1  0.15004194  0.75589164  0.34536074  1
  O2-  O121  1  0.14959462  0.75236292  0.60936740  1
  O2-  O122  1  0.01129885  0.63555117  0.86576957  1
  O2-  O123  1  0.27113447  0.18755267  0.12273532  1
  O2-  O124  1  0.33416713  0.25866350  0.37738206  1
  O2-  O125  1  0.36889748  0.26959946  0.65873679  1
  O2-  O126  1  0.32253372  0.33451904  0.86009689  1
  O2-  O127  1  0.43689555  0.82182005  0.13227843  1
  O2-  O128  1  0.49412053  0.68574104  0.38989095  1
  O2-  O129  1  0.32097263  0.75188294  0.60685674  1
  O2-  O130  1  0.32242197  0.73901720  0.86415978  1
  O2-  O131  1  0.57802445  0.23937801  0.15600410  1
  O2-  O132  1  0.59468379  0.23536361  0.36163012  1
  O2-  O133  1  0.56574014  0.24882742  0.62102168  1
  O2-  O134  1  0.56004370  0.26552846  0.88320924  1
  O2-  O135  1  0.59648128  0.75462386  0.12976733  1
  O2-  O136  1  0.64367931  0.75932357  0.36283866  1
  O2-  O137  1  0.63970855  0.75242123  0.62611610  1
  O2-  O138  1  0.64838212  0.75153162  0.88365885  1
  O2-  O139  1  0.87190203  0.24853765  0.12821590  1
  O2-  O140  1  0.93654800  0.26047823  0.38401222  1
  O2-  O141  1  0.88186457  0.25125233  0.61550608  1
  O2-  O142  1  0.98228194  0.31809677  0.86569544  1
  O2-  O143  1  0.91932241  0.72142944  0.13051811  1
  O2-  O144  1  0.83466418  0.73391698  0.38591494  1
  O2-  O145  1  0.83437428  0.74633250  0.63186261  1
  O2-  O146  1  0.87266814  0.73979334  0.89959065  1
  O2-  O147  1  0.15656180  0.16226634  0.00217356  1
  O2-  O148  1  0.17315227  0.12817925  0.26039434  1
  O2-  O149  1  0.16050596  0.09390976  0.48863233  1
  O2-  O150  1  0.09460741  0.14584911  0.71685551  1
  O2-  O151  1  0.15677250  0.63697642  -0.02939391  1
  O2-  O152  1  0.06397020  0.64053924  0.23076246  1
  O2-  O153  1  0.10043473  0.64172658  0.49092160  1
  O2-  O154  1  0.14548689  0.64840060  0.75460565  1
  O2-  O155  1  0.37548237  0.15586886  0.00048868  1
  O2-  O156  1  0.37544026  0.13313210  0.24970304  1
  O2-  O157  1  0.34956499  0.14432784  0.49645940  1
  O2-  O158  1  0.39644883  0.14845734  0.76796000  1
  O2-  O159  1  0.36984751  0.64301964  -0.00103944  1
  O2-  O160  1  0.40610731  0.64154593  0.24397643  1
  O2-  O161  1  0.33852567  0.64802068  0.47839455  1
  O2-  O162  1  0.35889953  0.62427397  0.73553658  1
  O2-  O163  1  0.63577251  0.15225349  0.01735475  1
  O2-  O164  1  0.55369869  0.08445223  0.24312547  1
  O2-  O165  1  0.58881882  0.11993679  0.49915693  1
  O2-  O166  1  0.60426827  0.15286474  0.75866618  1
  O2-  O167  1  0.58929691  0.63734605  0.00591240  1
  O2-  O168  1  0.59856008  0.63256348  0.24572109  1
  O2-  O169  1  0.62609230  0.63103511  0.49865629  1
  O2-  O170  1  0.62236055  0.62953926  0.75337526  1
  O2-  O171  1  0.84229589  0.11740970  0.02722953  1
  O2-  O172  1  0.87959482  0.13741485  0.26603947  1
  O2-  O173  1  0.89155432  0.11504683  0.50719058  1
  O2-  O174  1  0.89908869  0.13915523  0.74302326  1
  O2-  O175  1  0.90188482  0.60891427  0.00567683  1
  O2-  O176  1  0.84954024  0.61902637  0.25666297  1
  O2-  O177  1  0.88660156  0.61391664  0.50691646  1
  O2-  O178  1  0.85888499  0.64236940  0.76062192  1
  O2-  O179  1  0.17939202  0.37510017  0.01834688  1
  O2-  O180  1  0.18804938  0.40793967  0.24085368  1
  O2-  O181  1  0.12032578  0.41690997  0.49543230  1
  O2-  O182  1  0.11429206  0.33024113  0.66702535  1
  O2-  O183  1  0.01641396  0.82997959  -0.12183448  1
  O2-  O184  1  0.02825155  0.85975217  0.22060883  1
  O2-  O185  1  0.09325733  0.85636704  0.48539696  1
  O2-  O186  1  0.10971202  0.84582969  0.74104360  1
  O2-  O187  1  0.39630824  0.34152377  0.05200311  1
  O2-  O188  1  0.37559622  0.36709397  0.23805767  1
  O2-  O189  1  0.42972973  0.35798066  0.49844822  1
  O2-  O190  1  0.42621839  0.41229914  0.72616464  1
  O2-  O191  1  0.36406318  0.85619064  -0.01708483  1
  O2-  O192  1  0.40635728  0.85483788  0.32353612  1
  O2-  O193  1  0.45023764  0.86743997  0.50261863  1
  O2-  O194  1  0.38380616  0.84830054  0.72523698  1
  O2-  O195  1  0.61616226  0.35546728  0.00683886  1
  O2-  O196  1  0.69158026  0.35627619  0.27113768  1
  O2-  O197  1  0.67401901  0.34996859  0.48413964  1
  O2-  O198  1  0.61408151  0.36519837  0.75878171  1
  O2-  O199  1  0.59889276  0.87525054  0.00885665  1
  O2-  O200  1  0.61255329  0.88079860  0.24465526  1
  O2-  O201  1  0.64575973  0.88773947  0.48773414  1
  O2-  O202  1  0.66113239  0.87329425  0.76284565  1
  O2-  O203  1  0.85597061  0.35704853  0.00040946  1
  O2-  O204  1  0.86075964  0.36640654  0.25307783  1
  O2-  O205  1  0.84615568  0.37945941  0.49780883  1
  O2-  O206  1  0.86022622  0.34413125  0.75236342  1
  O2-  O207  1  0.92475384  0.86132351  0.01551663  1
  O2-  O208  1  0.82866398  0.85765693  0.27094650  1
  O2-  O209  1  0.85670654  0.87805495  0.50708606  1
  O2-  O210  1  0.86361264  0.84846061  0.76941765  1
  O2-  O211  1  0.01939603  0.15030763  0.14803527  1
  O2-  O212  1  0.03691037  0.11320161  0.36570588  1
  O2-  O213  1  0.04083165  0.00379036  0.60025419  1
  O2-  O214  1  -0.02060405  -0.15807948  0.63577391  1
  O2-  O215  1  0.01702322  0.36092605  0.04526566  1
  O2-  O216  1  0.01430656  0.37293865  0.20592854  1
  O2-  O217  1  0.07495315  0.50701094  0.65691744  1
  O2-  O218  1  -0.01078503  0.65039786  0.64747152  1
  O2-  O219  1  0.15701356  -0.12990579  -0.01766432  1
  O2-  O220  1  0.25548259  -0.15102651  0.12718119  1
  O2-  O221  1  0.29019170  -0.11586551  0.49209752  1
  O2-  O222  1  0.24701886  -0.12172021  0.83079421  1
  O2-  O223  1  0.31480144  0.48507542  0.09485810  1
  O2-  O224  1  0.25368334  0.65608524  0.13359230  1
  O2-  O225  1  0.26282182  0.36087443  0.55421039  1
  O2-  O226  1  0.25786988  0.41836022  0.70829856  1
  O2-  O227  1  0.50785038  0.11050832  -0.08646842  1
  O2-  O228  1  0.44950998  0.00412293  0.09773547  1
  O2-  O229  1  0.46694527  0.01920164  0.39791371  1
  O2-  O230  1  0.50331688  -0.14420250  0.87151023  1
  O2-  O231  1  0.41556982  0.50156541  -0.11653385  1
  O2-  O232  1  0.51318607  0.39119419  0.34261477  1
  O2-  O233  1  0.48747053  0.65390844  0.60613582  1
  O2-  O234  1  0.49104079  0.66487059  0.86978311  1
  O2-  O235  1  0.75936763  -0.11246277  -0.08012970  1
  O2-  O236  1  0.76333232  -0.16223229  0.11872649  1
  O2-  O237  1  0.73468703  0.13948023  0.62153652  1
  O2-  O238  1  0.73923371  0.19504880  0.88477746  1
  O2-  O239  1  0.74218380  0.60118834  -0.10242237  1
  O2-  O240  1  0.74386407  0.64876438  0.12066562  1
  O2-  O241  1  0.74001479  0.60526240  0.63167614  1
  O2-  O242  1  0.74216815  0.38720083  0.87886063  1
