# generated using pymatgen
data_Gd19Ta56(WO20)8
_symmetry_space_group_name_H-M   'P 1'
_cell_length_a   15.54040305
_cell_length_b   15.49783749
_cell_length_c   15.28976669
_cell_angle_alpha   90.01868983
_cell_angle_beta   90.03785088
_cell_angle_gamma   89.97814282
_symmetry_Int_Tables_number   1
_chemical_formula_structural   Gd19Ta56(WO20)8
_chemical_formula_sum   'Gd19 Ta56 W8 O160'
_cell_volume   3682.42652568
_cell_formula_units_Z   1
loop_
 _symmetry_equiv_pos_site_id
 _symmetry_equiv_pos_as_xyz
  1  'x, y, z'
loop_
 _atom_type_symbol
 _atom_type_oxidation_number
  Gd3+  3.0
  Ta5+  5.0
  W6+  6.0
  O2-  -2.0
loop_
 _atom_site_type_symbol
 _atom_site_label
 _atom_site_symmetry_multiplicity
 _atom_site_fract_x
 _atom_site_fract_y
 _atom_site_fract_z
 _atom_site_occupancy
  Gd3+  Gd0  1  0.24748287  0.24991241  0.73916954  1
  Gd3+  Gd1  1  0.01003869  0.74914647  -0.00997526  1
  Gd3+  Gd2  1  -0.01769494  0.75870157  0.26690656  1
  Gd3+  Gd3  1  0.23933555  0.76803433  0.24354901  1
  Gd3+  Gd4  1  0.74646172  0.25303927  -0.00848027  1
  Gd3+  Gd5  1  0.49927432  0.76060713  0.26170395  1
  Gd3+  Gd6  1  0.74561322  0.26022023  0.25414966  1
  Gd3+  Gd7  1  0.24356979  0.23481142  0.50429809  1
  Gd3+  Gd8  1  -0.02379557  0.27718211  0.27270282  1
  Gd3+  Gd9  1  0.48408042  0.24156740  0.49895209  1
  Gd3+  Gd10  1  0.76230712  0.24237320  0.74397546  1
  Gd3+  Gd11  1  0.24315087  0.26077538  -0.00573665  1
  Gd3+  Gd12  1  0.26937363  0.74367389  -0.02249372  1
  Gd3+  Gd13  1  0.72995784  0.75378809  -0.01904237  1
  Gd3+  Gd14  1  0.50420446  0.77052359  0.01299145  1
  Gd3+  Gd15  1  0.24533328  0.23905744  0.23109694  1
  Gd3+  Gd16  1  0.47431784  0.23447117  0.26475353  1
  Gd3+  Gd17  1  0.74518456  0.72561716  0.72823754  1
  Gd3+  Gd18  1  0.49356383  0.76870480  0.74376186  1
  Ta5+  Ta19  1  0.11362596  0.87338113  0.38763764  1
  Ta5+  Ta20  1  0.31101747  0.85075030  0.64004933  1
  Ta5+  Ta21  1  0.09540899  0.11710646  0.62226142  1
  Ta5+  Ta22  1  0.64396456  0.12066241  0.38145081  1
  Ta5+  Ta23  1  0.58224117  0.61845164  0.62155419  1
  Ta5+  Ta24  1  0.89507685  0.13325594  0.11349874  1
  Ta5+  Ta25  1  0.35197580  0.38230347  0.37505423  1
  Ta5+  Ta26  1  0.14933371  0.61393709  0.87394915  1
  Ta5+  Ta27  1  0.63121447  0.62089323  0.12936965  1
  Ta5+  Ta28  1  0.59871571  0.61933628  0.86805013  1
  Ta5+  Ta29  1  0.11017045  0.38143241  0.11623374  1
  Ta5+  Ta30  1  0.39922515  0.38293492  0.62544804  1
  Ta5+  Ta31  1  0.90983921  0.37825054  0.65486707  1
  Ta5+  Ta32  1  0.60221845  0.38170581  0.37443830  1
  Ta5+  Ta33  1  0.35944687  0.86275764  0.39632021  1
  Ta5+  Ta34  1  0.59888069  0.38475973  0.11675967  1
  Ta5+  Ta35  1  0.65732505  0.87335030  0.38221514  1
  Ta5+  Ta36  1  0.13205191  0.64420037  0.63011670  1
  Ta5+  Ta37  1  0.09094927  0.37429689  0.85632130  1
  Ta5+  Ta38  1  0.12171236  0.11684926  0.36524308  1
  Ta5+  Ta39  1  0.56853713  0.37897949  0.63123617  1
  Ta5+  Ta40  1  0.85415425  0.61971965  0.87398648  1
  Ta5+  Ta41  1  0.35111845  0.61188536  0.12975309  1
  Ta5+  Ta42  1  0.14027689  0.62174877  0.12225151  1
  Ta5+  Ta43  1  0.88803030  0.37858477  0.87509088  1
  Ta5+  Ta44  1  0.87881394  0.12602332  0.38921258  1
  Ta5+  Ta45  1  0.34879441  0.89187198  0.12287993  1
  Ta5+  Ta46  1  0.14043142  0.88873972  0.11159361  1
  Ta5+  Ta47  1  0.87133163  0.63560891  0.12782366  1
  Ta5+  Ta48  1  0.65473194  0.88019208  0.17262146  1
  Ta5+  Ta49  1  0.82697993  0.88142526  0.37353306  1
  Ta5+  Ta50  1  0.37093624  0.62614274  0.38068023  1
  Ta5+  Ta51  1  0.41254938  0.61770476  0.62948664  1
  Ta5+  Ta52  1  0.13122508  0.87636139  0.86684756  1
  Ta5+  Ta53  1  0.35872639  0.09125090  0.62792295  1
  Ta5+  Ta54  1  0.63383175  0.62747666  0.37849015  1
  Ta5+  Ta55  1  0.60611307  0.36752939  0.86529294  1
  Ta5+  Ta56  1  0.14586850  0.87597516  0.63400121  1
  Ta5+  Ta57  1  0.62802948  0.11825589  0.12707558  1
  Ta5+  Ta58  1  0.92687610  0.11480019  0.63728152  1
  Ta5+  Ta59  1  0.39790074  0.13117052  0.86946708  1
  Ta5+  Ta60  1  0.59881149  0.11951914  0.63074826  1
  Ta5+  Ta61  1  0.62162788  0.09734073  0.86957189  1
  Ta5+  Ta62  1  0.11847766  0.12281700  0.86698406  1
  Ta5+  Ta63  1  0.84528919  0.37944798  0.42021409  1
  Ta5+  Ta64  1  0.13446420  0.39428142  0.61726501  1
  Ta5+  Ta65  1  0.13557132  0.63018686  0.37880127  1
  Ta5+  Ta66  1  0.42671369  0.61795292  0.88425036  1
  Ta5+  Ta67  1  0.91884485  0.62855077  0.62541260  1
  Ta5+  Ta68  1  0.89494817  0.11733001  0.87898427  1
  Ta5+  Ta69  1  0.37341908  0.89310709  0.87362545  1
  Ta5+  Ta70  1  0.87664286  0.88710280  0.11771371  1
  Ta5+  Ta71  1  0.63830907  0.88125551  0.62279831  1
  Ta5+  Ta72  1  0.62103247  0.89792685  0.86506912  1
  Ta5+  Ta73  1  0.39474436  0.37709350  0.11854506  1
  Ta5+  Ta74  1  0.09811268  0.12441187  0.10850612  1
  W6+  W75  1  0.18192185  0.38356887  0.36689336  1
  W6+  W76  1  0.36316227  0.10492338  0.38704487  1
  W6+  W77  1  0.36927149  0.37974693  0.86976739  1
  W6+  W78  1  0.88027754  0.62777507  0.39481403  1
  W6+  W79  1  0.88011950  0.87759707  0.85700860  1
  W6+  W80  1  0.88016380  0.86687111  0.61472992  1
  W6+  W81  1  0.37743577  0.11114214  0.12082805  1
  W6+  W82  1  0.85726230  0.38865761  0.12219353  1
  O2-  O83  1  0.09111260  0.00099075  0.11814669  1
  O2-  O84  1  0.11295413  -0.00567243  0.35936129  1
  O2-  O85  1  0.12237789  -0.00172251  0.63341359  1
  O2-  O86  1  0.12497157  0.00145997  0.86546899  1
  O2-  O87  1  0.10400781  0.50468614  0.12557839  1
  O2-  O88  1  0.14688072  0.51522838  0.36068262  1
  O2-  O89  1  0.13628902  0.51377875  0.62863485  1
  O2-  O90  1  0.12390216  0.49159356  0.86909422  1
  O2-  O91  1  0.41989379  -0.01633577  0.14677019  1
  O2-  O92  1  0.39885936  -0.02739137  0.38702690  1
  O2-  O93  1  0.31869606  -0.01844123  0.64823918  1
  O2-  O94  1  0.35493799  0.01375483  0.86727129  1
  O2-  O95  1  0.34965907  0.49272627  0.14593006  1
  O2-  O96  1  0.36072040  0.50740698  0.35365317  1
  O2-  O97  1  0.37605078  0.50015696  0.64332476  1
  O2-  O98  1  0.40918079  0.50127630  0.88881563  1
  O2-  O99  1  0.64772370  -0.00744360  0.12234745  1
  O2-  O100  1  0.65026749  0.00191640  0.38901631  1
  O2-  O101  1  0.64372959  0.00448334  0.61001742  1
  O2-  O102  1  0.70116453  -0.00294584  0.86297307  1
  O2-  O103  1  0.65421490  0.50281914  0.11501435  1
  O2-  O104  1  0.60824806  0.50135894  0.37807275  1
  O2-  O105  1  0.59907752  0.49588937  0.61577982  1
  O2-  O106  1  0.60469246  0.48876101  0.87429942  1
  O2-  O107  1  0.86683591  0.01168903  0.12198538  1
  O2-  O108  1  0.85872430  0.00978550  0.36716028  1
  O2-  O109  1  0.91133257  -0.00370755  0.63222321  1
  O2-  O110  1  0.92133423  0.00215008  0.88458079  1
  O2-  O111  1  0.88785767  0.52045242  0.11145843  1
  O2-  O112  1  0.88399951  0.48858044  0.39695553  1
  O2-  O113  1  0.91428180  0.50516875  0.64623910  1
  O2-  O114  1  0.89559902  0.50477677  0.87869417  1
  O2-  O115  1  0.14377614  0.24752491  0.11076630  1
  O2-  O116  1  0.17406158  0.23763319  0.36676299  1
  O2-  O117  1  0.15251147  0.24829172  0.61986938  1
  O2-  O118  1  0.15110485  0.26035121  0.86791336  1
  O2-  O119  1  0.14620761  0.75244186  0.09664160  1
  O2-  O120  1  0.07904445  0.75116191  0.38063422  1
  O2-  O121  1  0.19478140  0.74834310  0.63558666  1
  O2-  O122  1  0.13595887  0.74552460  0.90024430  1
  O2-  O123  1  0.33543736  0.24665127  0.11058713  1
  O2-  O124  1  0.36323871  0.24753057  0.39611083  1
  O2-  O125  1  0.36971529  0.23928256  0.59755053  1
  O2-  O126  1  0.33183432  0.23924025  0.87634444  1
  O2-  O127  1  0.33769052  0.75821651  0.11439402  1
  O2-  O128  1  0.42343058  0.75077368  0.39128825  1
  O2-  O129  1  0.36605965  0.73724222  0.64563238  1
  O2-  O130  1  0.40358952  0.75750854  0.89021878  1
  O2-  O131  1  0.66479662  0.24328646  0.12454224  1
  O2-  O132  1  0.59477131  0.24024961  0.35373791  1
  O2-  O133  1  0.56147985  0.24233059  0.63371815  1
  O2-  O134  1  0.66791056  0.24242996  0.86668071  1
  O2-  O135  1  0.60069871  0.76601275  0.14125016  1
  O2-  O136  1  0.61946017  0.75145863  0.35171306  1
  O2-  O137  1  0.61067780  0.75259604  0.64644687  1
  O2-  O138  1  0.62807632  0.75942794  0.84813598  1
  O2-  O139  1  0.84216540  0.24695304  0.11261574  1
  O2-  O140  1  0.90588141  0.27284266  0.40378072  1
  O2-  O141  1  0.89884837  0.25011961  0.66072040  1
  O2-  O142  1  0.84897906  0.25290309  0.86995190  1
  O2-  O143  1  0.93580066  0.75402718  0.12285846  1
  O2-  O144  1  0.87643513  0.76601347  0.37183371  1
  O2-  O145  1  0.84238333  0.72937260  0.61356017  1
  O2-  O146  1  0.81551820  0.75617744  0.86250242  1
  O2-  O147  1  0.16257531  0.12814829  -0.00841449  1
  O2-  O148  1  0.15258574  0.12160257  0.23157384  1
  O2-  O149  1  0.12082970  0.12704187  0.49200854  1
  O2-  O150  1  0.15038420  0.13405503  0.74750018  1
  O2-  O151  1  0.08485342  0.61878248  -0.00764250  1
  O2-  O152  1  0.09066782  0.65202151  0.23989630  1
  O2-  O153  1  0.13559050  0.63723083  0.50109273  1
  O2-  O154  1  0.11120488  0.63820295  0.75989220  1
  O2-  O155  1  0.41009391  0.12502810  -0.01031078  1
  O2-  O156  1  0.36303121  0.13992971  0.25213080  1
  O2-  O157  1  0.30850589  0.09949133  0.51478411  1
  O2-  O158  1  0.34278661  0.13573462  0.74580317  1
  O2-  O159  1  0.41892220  0.63805303  0.02443978  1
  O2-  O160  1  0.40318079  0.64625414  0.24273609  1
  O2-  O161  1  0.38446663  0.61515792  0.49933642  1
  O2-  O162  1  0.42004511  0.63042030  0.76032768  1
  O2-  O163  1  0.63734073  0.12571863  -0.00544880  1
  O2-  O164  1  0.67067284  0.12101733  0.24763776  1
  O2-  O165  1  0.59904707  0.14038479  0.50019528  1
  O2-  O166  1  0.65682173  0.12578017  0.74434373  1
  O2-  O167  1  0.60935814  0.65762999  0.00408690  1
  O2-  O168  1  0.58963785  0.62128028  0.24590380  1
  O2-  O169  1  0.60276693  0.64056654  0.49528639  1
  O2-  O170  1  0.62933868  0.61782467  0.74442043  1
  O2-  O171  1  0.82917179  0.12687314  -0.01036393  1
  O2-  O172  1  0.86012706  0.16334209  0.25659608  1
  O2-  O173  1  0.90404131  0.12874964  0.51011045  1
  O2-  O174  1  0.85110182  0.11858701  0.76184299  1
  O2-  O175  1  0.88762179  0.65907119  -0.00724864  1
  O2-  O176  1  0.88903583  0.63815600  0.24948441  1
  O2-  O177  1  0.94860387  0.62860260  0.50694867  1
  O2-  O178  1  0.88087174  0.64063059  0.75558201  1
  O2-  O179  1  0.15065043  0.37813515  -0.00250487  1
  O2-  O180  1  0.17501822  0.37187060  0.22071134  1
  O2-  O181  1  0.19145295  0.37854076  0.50916710  1
  O2-  O182  1  0.16048810  0.37351918  0.74179098  1
  O2-  O183  1  0.08183203  0.87907344  -0.00842499  1
  O2-  O184  1  0.10431900  0.84766949  0.23482113  1
  O2-  O185  1  0.12054411  0.87147475  0.50757823  1
  O2-  O186  1  0.09807760  0.85241708  0.75323463  1
  O2-  O187  1  0.34001531  0.37774755  0.00866687  1
  O2-  O188  1  0.35956081  0.34644639  0.24114780  1
  O2-  O189  1  0.38517570  0.38629660  0.49534721  1
  O2-  O190  1  0.35874835  0.34812112  0.74045055  1
  O2-  O191  1  0.41055824  0.88639548  0.00033235  1
  O2-  O192  1  0.37350992  0.84077490  0.25619473  1
  O2-  O193  1  0.33008966  0.85414356  0.51533360  1
  O2-  O194  1  0.39340401  0.87475108  0.75165537  1
  O2-  O195  1  0.63444728  0.35711861  -0.00159377  1
  O2-  O196  1  0.63337962  0.37358343  0.23923917  1
  O2-  O197  1  0.58113759  0.35576155  0.49720933  1
  O2-  O198  1  0.63756504  0.35963020  0.74376616  1
  O2-  O199  1  0.62250599  0.85791832  -0.01119784  1
  O2-  O200  1  0.57266884  0.89211030  0.26583929  1
  O2-  O201  1  0.62961237  0.85541467  0.50179334  1
  O2-  O202  1  0.58008768  0.89440298  0.74324326  1
  O2-  O203  1  0.82203250  0.38221578  -0.01885863  1
  O2-  O204  1  0.85610637  0.35790100  0.26229762  1
  O2-  O205  1  0.84439708  0.37739548  0.54409988  1
  O2-  O206  1  0.82657522  0.37980382  0.75757860  1
  O2-  O207  1  0.90017950  0.86308016  -0.00480848  1
  O2-  O208  1  0.90657851  0.88242562  0.23887241  1
  O2-  O209  1  0.82041377  0.88479760  0.49438107  1
  O2-  O210  1  0.90866902  0.84600477  0.74068570  1
  O2-  O211  1  -0.01022688  0.12292325  0.02877966  1
  O2-  O212  1  0.00003419  0.16668198  0.17790639  1
  O2-  O213  1  0.00302938  0.14235057  0.35410088  1
  O2-  O214  1  0.00493374  0.16692563  0.85793164  1
  O2-  O215  1  -0.00509137  0.35131778  -0.06412452  1
  O2-  O216  1  -0.00362783  0.35328836  0.14142785  1
  O2-  O217  1  0.01906572  0.36942721  0.59349004  1
  O2-  O218  1  -0.00783219  0.37756804  0.77560491  1
  O2-  O219  1  0.24549277  -0.11387510  0.03451763  1
  O2-  O220  1  0.24305937  -0.08324098  0.18847616  1
  O2-  O221  1  0.23777499  -0.14362306  0.36689025  1
  O2-  O222  1  0.25503534  -0.13958104  0.86374691  1
  O2-  O223  1  0.24630735  0.61215882  0.04560186  1
  O2-  O224  1  0.24245598  0.62600473  0.20128921  1
  O2-  O225  1  0.25342406  0.67399395  0.36765293  1
  O2-  O226  1  0.26835632  0.62819318  0.87250576  1
  O2-  O227  1  0.54427100  0.00051355  -0.11005542  1
  O2-  O228  1  0.51550731  0.13123010  0.15427454  1
  O2-  O229  1  0.48259840  0.08275780  0.63950305  1
  O2-  O230  1  0.51108086  0.15076391  0.83320158  1
  O2-  O231  1  0.49769596  0.45161080  0.09424099  1
  O2-  O232  1  0.49985017  0.30264580  0.13719764  1
  O2-  O233  1  0.48329326  0.36800876  0.34542154  1
  O2-  O234  1  0.49584090  0.33159439  0.87367719  1
  O2-  O235  1  0.76273571  -0.15792764  0.10593944  1
  O2-  O236  1  0.73717145  -0.11530637  0.26773042  1
  O2-  O237  1  0.75771265  0.16655913  0.39971999  1
  O2-  O238  1  0.74862108  -0.13676730  0.67136492  1
  O2-  O239  1  0.75086063  0.66146550  0.11385646  1
  O2-  O240  1  0.75021459  0.62185468  0.36953574  1
  O2-  O241  1  0.72934806  0.35569612  0.38787085  1
  O2-  O242  1  0.73598635  0.61245132  0.89566332  1
