# generated using pymatgen
data_Gd19Ta56(WO20)8
_symmetry_space_group_name_H-M   'P 1'
_cell_length_a   15.56540420
_cell_length_b   15.51460505
_cell_length_c   15.26821733
_cell_angle_alpha   90.11517052
_cell_angle_beta   90.00139235
_cell_angle_gamma   90.18499126
_symmetry_Int_Tables_number   1
_chemical_formula_structural   Gd19Ta56(WO20)8
_chemical_formula_sum   'Gd19 Ta56 W8 O160'
_cell_volume   3687.11190743
_cell_formula_units_Z   1
loop_
 _symmetry_equiv_pos_site_id
 _symmetry_equiv_pos_as_xyz
  1  'x, y, z'
loop_
 _atom_type_symbol
 _atom_type_oxidation_number
  Gd3+  3.0
  Ta5+  5.0
  W6+  6.0
  O2-  -2.0
loop_
 _atom_site_type_symbol
 _atom_site_label
 _atom_site_symmetry_multiplicity
 _atom_site_fract_x
 _atom_site_fract_y
 _atom_site_fract_z
 _atom_site_occupancy
  Gd3+  Gd0  1  0.00787437  0.75566373  0.49879910  1
  Gd3+  Gd1  1  0.73022022  0.75974223  0.24451672  1
  Gd3+  Gd2  1  0.74143691  0.25786177  0.72086680  1
  Gd3+  Gd3  1  0.74682487  0.75843747  -0.00679054  1
  Gd3+  Gd4  1  -0.00103144  0.25065652  -0.01296304  1
  Gd3+  Gd5  1  0.26280866  0.24611125  0.48714405  1
  Gd3+  Gd6  1  0.74450724  0.24439588  0.01936475  1
  Gd3+  Gd7  1  0.26758344  0.74951099  0.74482773  1
  Gd3+  Gd8  1  0.23602670  0.24555768  0.02683672  1
  Gd3+  Gd9  1  -0.02837792  0.26047985  0.75157772  1
  Gd3+  Gd10  1  -0.01553701  0.74936370  0.25461245  1
  Gd3+  Gd11  1  0.74901362  0.75333825  0.76018011  1
  Gd3+  Gd12  1  0.26140056  0.75370858  -0.00815822  1
  Gd3+  Gd13  1  0.69957153  0.26468262  0.46623528  1
  Gd3+  Gd14  1  -0.00548129  0.74553632  0.74120596  1
  Gd3+  Gd15  1  0.49076570  0.25171619  0.74710353  1
  Gd3+  Gd16  1  0.00586025  0.24813100  0.51675327  1
  Gd3+  Gd17  1  0.76042080  0.75788256  0.48198494  1
  Gd3+  Gd18  1  -0.00797680  0.74638730  0.01717353  1
  Ta5+  Ta19  1  0.86963798  0.89398612  0.12365679  1
  Ta5+  Ta20  1  0.63818078  0.38060615  0.88135283  1
  Ta5+  Ta21  1  0.11550383  0.88762168  0.88151066  1
  Ta5+  Ta22  1  0.37632125  0.11865883  0.62329826  1
  Ta5+  Ta23  1  0.38526231  0.37596520  0.37837465  1
  Ta5+  Ta24  1  0.12740617  0.62529743  0.62320284  1
  Ta5+  Ta25  1  0.90006471  0.61617489  0.87923708  1
  Ta5+  Ta26  1  0.59871218  0.37031431  0.12584134  1
  Ta5+  Ta27  1  0.85661931  0.39707128  0.57491675  1
  Ta5+  Ta28  1  0.66345879  0.62199380  0.62579161  1
  Ta5+  Ta29  1  0.38807438  0.62815862  0.37432493  1
  Ta5+  Ta30  1  0.86560513  0.88398095  0.61886670  1
  Ta5+  Ta31  1  0.56171641  0.12300982  0.36314448  1
  Ta5+  Ta32  1  0.36039845  0.37734170  0.13876174  1
  Ta5+  Ta33  1  0.67423516  0.60422037  0.11281798  1
  Ta5+  Ta34  1  0.86413238  0.60004298  0.37070306  1
  Ta5+  Ta35  1  0.14907746  0.89117625  0.37905566  1
  Ta5+  Ta36  1  0.37545543  0.61777287  0.62353373  1
  Ta5+  Ta37  1  0.91454770  0.37794198  0.12778936  1
  Ta5+  Ta38  1  0.89926349  0.37429920  0.37025188  1
  Ta5+  Ta39  1  0.84394268  0.61289348  0.12666950  1
  Ta5+  Ta40  1  0.12488775  0.89042080  0.12756895  1
  Ta5+  Ta41  1  0.86476958  0.61963577  0.62280044  1
  Ta5+  Ta42  1  0.92082535  0.13492297  0.13247082  1
  Ta5+  Ta43  1  0.57404217  0.13177793  0.11958212  1
  Ta5+  Ta44  1  0.40385613  0.61977990  0.87325962  1
  Ta5+  Ta45  1  0.60085501  0.88489634  0.87016408  1
  Ta5+  Ta46  1  0.60728810  0.38836243  0.61566673  1
  Ta5+  Ta47  1  0.86458252  0.11822845  0.88242201  1
  Ta5+  Ta48  1  0.40220050  0.88413929  0.87144335  1
  Ta5+  Ta49  1  0.08027698  0.11406794  0.37911226  1
  Ta5+  Ta50  1  0.14965559  0.62859945  0.37081116  1
  Ta5+  Ta51  1  0.08784112  0.12708097  0.13274936  1
  Ta5+  Ta52  1  0.38772639  0.87515029  0.12473890  1
  Ta5+  Ta53  1  0.60134279  0.62520537  0.87144072  1
  Ta5+  Ta54  1  0.85483417  0.38668370  0.89140312  1
  Ta5+  Ta55  1  0.64161447  0.12238266  0.87464221  1
  Ta5+  Ta56  1  0.08197967  0.36602395  0.13836186  1
  Ta5+  Ta57  1  0.64044694  0.60778846  0.36914068  1
  Ta5+  Ta58  1  0.36851628  0.11997141  0.88255567  1
  Ta5+  Ta59  1  0.10770909  0.60803862  0.12546757  1
  Ta5+  Ta60  1  0.87742325  0.93392599  0.36990404  1
  Ta5+  Ta61  1  0.12789677  0.38521576  0.64334241  1
  Ta5+  Ta62  1  0.61886049  0.88815786  0.11818594  1
  Ta5+  Ta63  1  0.90745079  0.12601392  0.37281941  1
  Ta5+  Ta64  1  0.86216766  0.07869431  0.62735808  1
  Ta5+  Ta65  1  0.61885251  0.11966257  0.60881411  1
  Ta5+  Ta66  1  0.13132526  0.13084330  0.85540737  1
  Ta5+  Ta67  1  0.90743173  0.88437399  0.87350453  1
  Ta5+  Ta68  1  0.37241016  0.87046354  0.61757389  1
  Ta5+  Ta69  1  0.55294088  0.38323714  0.36872313  1
  Ta5+  Ta70  1  0.10981547  0.61923074  0.87864565  1
  Ta5+  Ta71  1  0.68983143  0.89646652  0.62740949  1
  Ta5+  Ta72  1  0.13675433  0.37864441  0.87334768  1
  Ta5+  Ta73  1  0.40636332  0.12272123  0.12940434  1
  Ta5+  Ta74  1  0.38708363  0.86163808  0.37595943  1
  W6+  W75  1  0.63483087  0.88449479  0.37387510  1
  W6+  W76  1  0.36924767  0.62662893  0.12271855  1
  W6+  W77  1  0.11579896  0.37502499  0.38455193  1
  W6+  W78  1  0.38099871  0.37027419  0.89348309  1
  W6+  W79  1  0.40121778  0.11508875  0.38108855  1
  W6+  W80  1  0.36615650  0.37589221  0.63432040  1
  W6+  W81  1  0.13196874  0.89000993  0.63524178  1
  W6+  W82  1  0.11703519  0.12324339  0.64754673  1
  O2-  O83  1  0.08918808  0.00125518  0.10514326  1
  O2-  O84  1  0.16354925  0.00769449  0.39036841  1
  O2-  O85  1  0.16829441  0.00852747  0.63793001  1
  O2-  O86  1  0.13335016  0.00950205  0.88061638  1
  O2-  O87  1  0.11434358  0.49203579  0.10846092  1
  O2-  O88  1  0.12957563  0.51259081  0.38168617  1
  O2-  O89  1  0.10341495  0.50484985  0.61979516  1
  O2-  O90  1  0.15051941  0.50247867  0.88694402  1
  O2-  O91  1  0.37349822  -0.00512214  0.12873157  1
  O2-  O92  1  0.40386046  -0.01972618  0.37977147  1
  O2-  O93  1  0.37720539  -0.00360790  0.62503450  1
  O2-  O94  1  0.34915190  0.00045026  0.86391298  1
  O2-  O95  1  0.36062668  0.49621237  0.13481131  1
  O2-  O96  1  0.38966524  0.50451328  0.37776501  1
  O2-  O97  1  0.40413078  0.50427491  0.64113125  1
  O2-  O98  1  0.39561725  0.50314177  0.88828840  1
  O2-  O99  1  0.59825114  0.00605857  0.11577993  1
  O2-  O100  1  0.58776192  0.00567695  0.36668689  1
  O2-  O101  1  0.60976782  0.00120557  0.62604682  1
  O2-  O102  1  0.65058368  0.00423481  0.85708390  1
  O2-  O103  1  0.64306301  0.48411983  0.11127157  1
  O2-  O104  1  0.56587546  0.51498220  0.37315069  1
  O2-  O105  1  0.60684547  0.50804287  0.63438426  1
  O2-  O106  1  0.61847853  0.50023336  0.87398074  1
  O2-  O107  1  0.89944356  0.00906372  0.12657576  1
  O2-  O108  1  0.81065204  0.03136927  0.38336716  1
  O2-  O109  1  0.94269660  -0.01098213  0.64747318  1
  O2-  O110  1  0.87089645  -0.00089571  0.85247617  1
  O2-  O111  1  0.87078345  0.49548407  0.13010779  1
  O2-  O112  1  0.92790845  0.50081474  0.35329964  1
  O2-  O113  1  0.88665752  0.49410958  0.64192386  1
  O2-  O114  1  0.84534628  0.50834644  0.86519133  1
  O2-  O115  1  0.13754279  0.24917562  0.13953490  1
  O2-  O116  1  0.09920245  0.23822386  0.38616975  1
  O2-  O117  1  0.07888208  0.26192561  0.65143462  1
  O2-  O118  1  0.08052048  0.25690329  0.86012128  1
  O2-  O119  1  0.08675526  0.76597982  0.13212741  1
  O2-  O120  1  0.09316795  0.74893685  0.36077991  1
  O2-  O121  1  0.10857708  0.75563813  0.63930298  1
  O2-  O122  1  0.10575535  0.74924795  0.88807883  1
  O2-  O123  1  0.34891760  0.23630998  0.12286941  1
  O2-  O124  1  0.37822530  0.24859295  0.39340177  1
  O2-  O125  1  0.32781634  0.23888903  0.62184954  1
  O2-  O126  1  0.42216215  0.23895960  0.88185844  1
  O2-  O127  1  0.32614791  0.76218145  0.12134374  1
  O2-  O128  1  0.43855085  0.74598992  0.37957265  1
  O2-  O129  1  0.39162692  0.74373567  0.64746517  1
  O2-  O130  1  0.34433109  0.75586895  0.86968633  1
  O2-  O131  1  0.64122040  0.25102645  0.12269598  1
  O2-  O132  1  0.57682302  0.25653581  0.38424479  1
  O2-  O133  1  0.63719273  0.25572223  0.60552773  1
  O2-  O134  1  0.68630985  0.25058194  0.87035441  1
  O2-  O135  1  0.66293289  0.74391619  0.11019216  1
  O2-  O136  1  0.65412461  0.74041897  0.37498819  1
  O2-  O137  1  0.68285626  0.75422688  0.62113075  1
  O2-  O138  1  0.65630437  0.74941576  0.87573196  1
  O2-  O139  1  0.87359747  0.25345061  0.09242655  1
  O2-  O140  1  0.90466251  0.24987895  0.40186876  1
  O2-  O141  1  0.89754210  0.28885978  0.61769250  1
  O2-  O142  1  0.87134035  0.25051762  0.90273636  1
  O2-  O143  1  0.88070003  0.76120144  0.12051761  1
  O2-  O144  1  0.91619251  0.71747399  0.39072036  1
  O2-  O145  1  0.87440100  0.75387799  0.58986868  1
  O2-  O146  1  0.91583731  0.75098129  0.88262291  1
  O2-  O147  1  0.11226312  0.15438150  -0.00536452  1
  O2-  O148  1  0.10272158  0.11053905  0.25638619  1
  O2-  O149  1  0.09086357  0.12478248  0.51445074  1
  O2-  O150  1  0.03657566  0.12241228  0.77115964  1
  O2-  O151  1  0.15686057  0.64366768  0.01398543  1
  O2-  O152  1  0.15470470  0.62971186  0.23917278  1
  O2-  O153  1  0.11473746  0.64969666  0.49623292  1
  O2-  O154  1  0.15493372  0.63934362  0.75508374  1
  O2-  O155  1  0.41112115  0.10907947  -0.00254258  1
  O2-  O156  1  0.41281623  0.12559242  0.25197181  1
  O2-  O157  1  0.33427761  0.11797225  0.50349619  1
  O2-  O158  1  0.39670341  0.13210283  0.75254476  1
  O2-  O159  1  0.34241564  0.63305740  -0.01025524  1
  O2-  O160  1  0.39562689  0.63276887  0.25198518  1
  O2-  O161  1  0.40889201  0.62691565  0.50626228  1
  O2-  O162  1  0.34002047  0.62381675  0.76256423  1
  O2-  O163  1  0.59198508  0.14225926  -0.01357072  1
  O2-  O164  1  0.59175235  0.14034799  0.24431251  1
  O2-  O165  1  0.62856032  0.13073345  0.48284919  1
  O2-  O166  1  0.61170910  0.15100038  0.74920041  1
  O2-  O167  1  0.67663803  0.62035682  -0.01495561  1
  O2-  O168  1  0.64379062  0.62846231  0.24022661  1
  O2-  O169  1  0.66089917  0.62338534  0.49900415  1
  O2-  O170  1  0.67769251  0.62623286  0.75614243  1
  O2-  O171  1  0.92988504  0.11343549  -0.01190215  1
  O2-  O172  1  0.89096638  0.14991077  0.25349948  1
  O2-  O173  1  0.89966954  0.11832525  0.51847498  1
  O2-  O174  1  0.85629092  0.14983749  0.75071736  1
  O2-  O175  1  0.85512557  0.64446268  -0.00270829  1
  O2-  O176  1  0.85228372  0.65890325  0.25266607  1
  O2-  O177  1  0.84835884  0.60204121  0.49777681  1
  O2-  O178  1  0.86357191  0.65662460  0.75067319  1
  O2-  O179  1  0.11877179  0.35191972  -0.00229950  1
  O2-  O180  1  0.09037817  0.38041263  0.25731946  1
  O2-  O181  1  0.14271085  0.35057766  0.52101051  1
  O2-  O182  1  0.06814324  0.39267517  0.76238373  1
  O2-  O183  1  0.16847960  0.87249823  0.00362673  1
  O2-  O184  1  0.11244878  0.88876351  0.25859368  1
  O2-  O185  1  0.09705999  0.87197234  0.49291869  1
  O2-  O186  1  0.18025870  0.86588706  0.77516983  1
  O2-  O187  1  0.31633354  0.36754287  0.01824954  1
  O2-  O188  1  0.33812780  0.36468994  0.26113064  1
  O2-  O189  1  0.33409131  0.37543199  0.49803092  1
  O2-  O190  1  0.40641070  0.36264870  0.76187892  1
  O2-  O191  1  0.35754327  0.87117008  -0.00837728  1
  O2-  O192  1  0.39649367  0.86074287  0.24929839  1
  O2-  O193  1  0.41932776  0.86137710  0.50501943  1
  O2-  O194  1  0.36653165  0.87482138  0.74924510  1
  O2-  O195  1  0.58580494  0.35329495  -0.01135728  1
  O2-  O196  1  0.59223409  0.37744945  0.25190548  1
  O2-  O197  1  0.61538738  0.38720926  0.48901819  1
  O2-  O198  1  0.61547585  0.35376199  0.75323513  1
  O2-  O199  1  0.65013953  0.87417959  -0.01107062  1
  O2-  O200  1  0.61380244  0.85791962  0.23922808  1
  O2-  O201  1  0.68034694  0.88351340  0.50330963  1
  O2-  O202  1  0.65869350  0.87376449  0.75423639  1
  O2-  O203  1  0.93286803  0.39170682  -0.01054572  1
  O2-  O204  1  0.89235215  0.35006283  0.25138811  1
  O2-  O205  1  0.96017833  0.39373315  0.49444437  1
  O2-  O206  1  0.85134795  0.35084055  0.77081487  1
  O2-  O207  1  0.84500894  0.87733829  -0.00890778  1
  O2-  O208  1  0.77544639  0.85421751  0.35612330  1
  O2-  O209  1  0.89468171  0.88903616  0.48506318  1
  O2-  O210  1  0.86648770  0.84655385  0.75086042  1
  O2-  O211  1  0.00705784  -0.11495613  -0.03940555  1
  O2-  O212  1  -0.08551918  -0.11967895  0.25240432  1
  O2-  O213  1  -0.01539843  0.01314568  0.37813990  1
  O2-  O214  1  0.01662091  -0.11606490  0.79911978  1
  O2-  O215  1  0.00782173  0.60864664  -0.04006917  1
  O2-  O216  1  -0.01004827  0.62939346  0.14540950  1
  O2-  O217  1  -0.00552606  0.64197381  0.62068049  1
  O2-  O218  1  0.00764572  0.60747928  0.80336502  1
  O2-  O219  1  0.25563832  0.15381118  -0.08983766  1
  O2-  O220  1  0.26356992  -0.15222161  0.38459015  1
  O2-  O221  1  0.25745384  -0.15443473  0.59995315  1
  O2-  O222  1  0.19899436  0.14805668  0.75577276  1
  O2-  O223  1  0.24529393  0.33819755  -0.13722131  1
  O2-  O224  1  0.26713545  0.64880852  0.38872763  1
  O2-  O225  1  0.25138207  0.62466667  0.60731064  1
  O2-  O226  1  0.23708106  0.39531438  0.67872765  1
  O2-  O227  1  0.50300797  -0.04613604  -0.09262057  1
  O2-  O228  1  0.50296638  -0.14943159  0.09495030  1
  O2-  O229  1  0.49387394  0.14644465  0.60835442  1
  O2-  O230  1  0.50436781  -0.18525152  0.83649189  1
  O2-  O231  1  0.50824569  0.65300524  -0.05156655  1
  O2-  O232  1  0.47855552  0.36142234  0.12385680  1
  O2-  O233  1  0.49432613  0.34294822  0.61682850  1
  O2-  O234  1  0.50650582  0.62231770  0.79083711  1
  O2-  O235  1  0.75655784  0.11398598  -0.05726059  1
  O2-  O236  1  0.74902780  -0.10782858  0.14297258  1
  O2-  O237  1  0.77927493  -0.01874174  0.65867588  1
  O2-  O238  1  0.74420622  0.13826080  0.62318254  1
  O2-  O239  1  0.74831841  0.38397048  -0.04447396  1
  O2-  O240  1  0.74915648  0.55515839  0.35842059  1
  O2-  O241  1  0.79927575  0.38315880  0.45894698  1
  O2-  O242  1  0.74118974  0.37833198  0.62274533  1
