# generated using pymatgen
data_Gd19Ta56(WO20)8
_symmetry_space_group_name_H-M   'P 1'
_cell_length_a   15.54250427
_cell_length_b   15.51959741
_cell_length_c   15.23933208
_cell_angle_alpha   90.06454486
_cell_angle_beta   90.16208759
_cell_angle_gamma   90.11220856
_symmetry_Int_Tables_number   1
_chemical_formula_structural   Gd19Ta56(WO20)8
_chemical_formula_sum   'Gd19 Ta56 W8 O160'
_cell_volume   3675.90712654
_cell_formula_units_Z   1
loop_
 _symmetry_equiv_pos_site_id
 _symmetry_equiv_pos_as_xyz
  1  'x, y, z'
loop_
 _atom_type_symbol
 _atom_type_oxidation_number
  Gd3+  3.0
  Ta5+  5.0
  W6+  6.0
  O2-  -2.0
loop_
 _atom_site_type_symbol
 _atom_site_label
 _atom_site_symmetry_multiplicity
 _atom_site_fract_x
 _atom_site_fract_y
 _atom_site_fract_z
 _atom_site_occupancy
  Gd3+  Gd0  1  0.49769576  0.75140310  0.50651069  1
  Gd3+  Gd1  1  0.75196653  0.77002582  0.00057961  1
  Gd3+  Gd2  1  0.50492556  0.23501311  0.73563184  1
  Gd3+  Gd3  1  0.53239504  0.23410785  0.02044697  1
  Gd3+  Gd4  1  0.02375582  0.76825011  0.49936474  1
  Gd3+  Gd5  1  0.46953772  0.23175716  0.49155177  1
  Gd3+  Gd6  1  0.74898615  0.73430697  0.24566106  1
  Gd3+  Gd7  1  0.50854236  0.74478733  0.74678517  1
  Gd3+  Gd8  1  0.00961586  0.75079513  0.74225142  1
  Gd3+  Gd9  1  0.24665707  0.77571630  0.78190695  1
  Gd3+  Gd10  1  0.03301281  0.76670347  0.24853822  1
  Gd3+  Gd11  1  0.77201301  0.73477625  0.76610395  1
  Gd3+  Gd12  1  0.20765406  0.25059876  0.72963983  1
  Gd3+  Gd13  1  0.22861429  0.25147459  0.00420873  1
  Gd3+  Gd14  1  0.23169909  0.24279199  0.25752279  1
  Gd3+  Gd15  1  0.25763354  0.74347508  0.23625916  1
  Gd3+  Gd16  1  0.22879436  0.23489952  0.49192712  1
  Gd3+  Gd17  1  0.50532493  0.75777804  0.27121024  1
  Gd3+  Gd18  1  0.77984730  0.29618339  0.01305988  1
  Ta5+  Ta19  1  0.09547472  0.37202898  0.37996522  1
  Ta5+  Ta20  1  0.90252271  0.89794003  0.12187731  1
  Ta5+  Ta21  1  0.88607195  0.89596674  0.35438080  1
  Ta5+  Ta22  1  0.15013292  0.61766543  0.61944354  1
  Ta5+  Ta23  1  0.64770167  0.61836785  0.39563309  1
  Ta5+  Ta24  1  0.37873868  0.61444875  0.11958505  1
  Ta5+  Ta25  1  0.08748691  0.12042478  0.12567568  1
  Ta5+  Ta26  1  0.86716587  0.90441046  0.87529697  1
  Ta5+  Ta27  1  0.63863336  0.60527898  0.61956786  1
  Ta5+  Ta28  1  0.44355429  0.90979723  0.87577918  1
  Ta5+  Ta29  1  0.63848544  0.36549048  0.62380904  1
  Ta5+  Ta30  1  0.09485924  0.38187674  0.59894991  1
  Ta5+  Ta31  1  0.65856671  0.87544870  0.39826494  1
  Ta5+  Ta32  1  0.93218059  0.36162498  0.14738850  1
  Ta5+  Ta33  1  0.64848704  0.87320737  0.61496509  1
  Ta5+  Ta34  1  0.05767714  0.13763702  0.61529904  1
  Ta5+  Ta35  1  0.92662636  0.37877288  0.87289908  1
  Ta5+  Ta36  1  0.91826585  0.37456977  0.40379264  1
  Ta5+  Ta37  1  0.85224534  0.89394727  0.58506297  1
  Ta5+  Ta38  1  0.12946373  0.61411899  0.11869370  1
  Ta5+  Ta39  1  0.35472626  0.61121861  0.62549497  1
  Ta5+  Ta40  1  0.61986609  0.37698468  0.13841363  1
  Ta5+  Ta41  1  0.92999449  0.36588690  0.62077696  1
  Ta5+  Ta42  1  0.35084709  0.88572073  0.37753528  1
  Ta5+  Ta43  1  0.10824337  0.61248244  0.87205303  1
  Ta5+  Ta44  1  0.83554935  0.12982802  0.12986939  1
  Ta5+  Ta45  1  0.59513801  0.36998955  0.87236040  1
  Ta5+  Ta46  1  0.38457172  0.35181642  0.88668817  1
  Ta5+  Ta47  1  0.34674487  0.10680010  0.12082232  1
  Ta5+  Ta48  1  0.35591024  0.59339268  0.87501524  1
  Ta5+  Ta49  1  0.37172241  0.88364182  0.63141241  1
  Ta5+  Ta50  1  0.37017098  0.37060474  0.37285824  1
  Ta5+  Ta51  1  0.14519409  0.88076398  0.10528408  1
  Ta5+  Ta52  1  0.37217179  0.61872864  0.38336764  1
  Ta5+  Ta53  1  0.38659864  0.09316429  0.92340253  1
  Ta5+  Ta54  1  0.62750272  0.11428903  0.59874912  1
  Ta5+  Ta55  1  0.84562115  0.15289476  0.86223996  1
  Ta5+  Ta56  1  0.86204029  0.14711982  0.37105254  1
  Ta5+  Ta57  1  0.61163576  0.88070560  0.86699174  1
  Ta5+  Ta58  1  0.61596027  0.37157391  0.38414140  1
  Ta5+  Ta59  1  0.09190298  0.10340747  0.37168708  1
  Ta5+  Ta60  1  0.09750932  0.36768774  0.12956080  1
  Ta5+  Ta61  1  0.35094756  0.08723085  0.37023570  1
  Ta5+  Ta62  1  0.84746902  0.60052486  0.60144355  1
  Ta5+  Ta63  1  0.58770382  0.09543484  0.87020805  1
  Ta5+  Ta64  1  0.16281936  0.92112597  0.62526785  1
  Ta5+  Ta65  1  0.89845141  0.59603372  0.12245824  1
  Ta5+  Ta66  1  0.63313930  0.61275370  0.87041945  1
  Ta5+  Ta67  1  0.08329687  0.13409529  0.87149516  1
  Ta5+  Ta68  1  0.38509216  0.86711768  0.11008360  1
  Ta5+  Ta69  1  0.37771209  0.36879805  0.12469499  1
  Ta5+  Ta70  1  0.34727525  0.09050103  0.63044592  1
  Ta5+  Ta71  1  0.13477011  0.61593363  0.37813134  1
  Ta5+  Ta72  1  0.89345846  0.13315246  0.61981641  1
  Ta5+  Ta73  1  0.62102356  0.87671230  0.12915123  1
  Ta5+  Ta74  1  0.88391756  0.61111424  0.91763873  1
  W6+  W75  1  0.18460990  0.88323864  0.37560435  1
  W6+  W76  1  0.09066716  0.36315119  0.86741421  1
  W6+  W77  1  0.60488148  0.62496413  0.12533696  1
  W6+  W78  1  0.36404265  0.35643837  0.63902293  1
  W6+  W79  1  0.10492017  0.88420113  0.88537939  1
  W6+  W80  1  0.62837202  0.12429299  0.38769410  1
  W6+  W81  1  0.89331703  0.62315339  0.37300401  1
  W6+  W82  1  0.66613352  0.12174393  0.13467470  1
  O2-  O83  1  0.12925343  0.00605043  0.11161749  1
  O2-  O84  1  0.08184784  -0.01456164  0.36920953  1
  O2-  O85  1  0.08128231  0.01063080  0.62821587  1
  O2-  O86  1  0.09788635  0.01798322  0.87733867  1
  O2-  O87  1  0.10292210  0.49698047  0.12830685  1
  O2-  O88  1  0.10373440  0.50043307  0.37381393  1
  O2-  O89  1  0.10136593  0.50573504  0.60335318  1
  O2-  O90  1  0.08898451  0.49692442  0.88014801  1
  O2-  O91  1  0.34093010  -0.02002082  0.12243294  1
  O2-  O92  1  0.42926327  -0.00346907  0.36365984  1
  O2-  O93  1  0.42799161  -0.00276275  0.64741880  1
  O2-  O94  1  0.33685624  -0.00249187  0.87083001  1
  O2-  O95  1  0.39761223  0.49103303  0.12946241  1
  O2-  O96  1  0.36066174  0.49857188  0.37496073  1
  O2-  O97  1  0.37202240  0.49829851  0.65444379  1
  O2-  O98  1  0.35344335  0.47623261  0.86749298  1
  O2-  O99  1  0.65444030  -0.01203679  0.13668628  1
  O2-  O100  1  0.65438929  -0.00843980  0.38958950  1
  O2-  O101  1  0.66050971  -0.00370647  0.61579375  1
  O2-  O102  1  0.65467315  -0.00049474  0.84439980  1
  O2-  O103  1  0.59812177  0.49188249  0.12453784  1
  O2-  O104  1  0.64158056  0.50043184  0.37784345  1
  O2-  O105  1  0.60856555  0.48659580  0.62997322  1
  O2-  O106  1  0.61166659  0.49179595  0.86508775  1
  O2-  O107  1  0.84483186  0.00109871  0.13020728  1
  O2-  O108  1  0.85913143  0.01039763  0.36454292  1
  O2-  O109  1  0.86693965  0.00255087  0.62823389  1
  O2-  O110  1  0.85779817  0.02138309  0.86867661  1
  O2-  O111  1  0.88580341  0.48025500  0.14133131  1
  O2-  O112  1  0.89271542  0.49136609  0.39761050  1
  O2-  O113  1  0.90205441  0.49807654  0.61933991  1
  O2-  O114  1  0.88160151  0.49506569  0.87419176  1
  O2-  O115  1  0.14809256  0.23834314  0.13508405  1
  O2-  O116  1  0.13651876  0.23935507  0.37703182  1
  O2-  O117  1  0.13159456  0.25064441  0.59742841  1
  O2-  O118  1  0.16708691  0.23396691  0.86910567  1
  O2-  O119  1  0.14852902  0.75184536  0.13073459  1
  O2-  O120  1  0.11207847  0.75680440  0.37212581  1
  O2-  O121  1  0.09519374  0.73153905  0.62554687  1
  O2-  O122  1  0.12131166  0.75044755  0.85381111  1
  O2-  O123  1  0.33518987  0.24159196  0.12481123  1
  O2-  O124  1  0.35640863  0.23259111  0.37217899  1
  O2-  O125  1  0.40220979  0.21139862  0.62870326  1
  O2-  O126  1  0.37837386  0.23323190  0.92522362  1
  O2-  O127  1  0.34483557  0.74566838  0.11379095  1
  O2-  O128  1  0.40881443  0.75256137  0.38651376  1
  O2-  O129  1  0.41494455  0.74441928  0.63026194  1
  O2-  O130  1  0.24140883  0.62628334  0.86730219  1
  O2-  O131  1  0.66121300  0.25763332  0.11041463  1
  O2-  O132  1  0.58795134  0.25155578  0.40321495  1
  O2-  O133  1  0.58273084  0.25108854  0.60318289  1
  O2-  O134  1  0.58268450  0.23923610  0.87566260  1
  O2-  O135  1  0.66601132  0.75057350  0.12248277  1
  O2-  O136  1  0.60589651  0.75277553  0.39981631  1
  O2-  O137  1  0.61948962  0.73868233  0.62046389  1
  O2-  O138  1  0.63939417  0.74564377  0.85019054  1
  O2-  O139  1  0.86740419  0.25475939  0.13367027  1
  O2-  O140  1  0.84888424  0.26709401  0.37563974  1
  O2-  O141  1  0.96395717  0.23967644  0.62990989  1
  O2-  O142  1  0.83307718  0.27977128  0.87448081  1
  O2-  O143  1  0.83520652  0.79865320  0.14276323  1
  O2-  O144  1  0.92703888  0.76251064  0.35142842  1
  O2-  O145  1  0.94404014  0.83113444  0.63060555  1
  O2-  O146  1  0.85660733  0.73932748  0.89133835  1
  O2-  O147  1  0.10044708  0.14981424  0.00255206  1
  O2-  O148  1  0.13813018  0.11871284  0.25092792  1
  O2-  O149  1  0.12344599  0.11780477  0.49468786  1
  O2-  O150  1  0.08497236  0.15099383  0.74319287  1
  O2-  O151  1  0.12404712  0.63450317  -0.00279086  1
  O2-  O152  1  0.14133953  0.63748778  0.25130185  1
  O2-  O153  1  0.09836157  0.63747280  0.49700437  1
  O2-  O154  1  0.11002980  0.61267168  0.74208380  1
  O2-  O155  1  0.44612596  0.12025565  0.04700722  1
  O2-  O156  1  0.32508261  0.11416877  0.24632691  1
  O2-  O157  1  0.34011135  0.11682266  0.50080316  1
  O2-  O158  1  0.27851644  0.12325998  0.72246528  1
  O2-  O159  1  0.39501132  0.61868435  -0.01081867  1
  O2-  O160  1  0.39065811  0.63968105  0.25168616  1
  O2-  O161  1  0.40883349  0.62293253  0.50676565  1
  O2-  O162  1  0.40572575  0.63621500  0.77022444  1
  O2-  O163  1  0.62488079  0.12103508  -0.01234494  1
  O2-  O164  1  0.62581579  0.13390429  0.26230662  1
  O2-  O165  1  0.70136926  0.14352788  0.50751129  1
  O2-  O166  1  0.61073655  0.13348266  0.72848511  1
  O2-  O167  1  0.60443320  0.63190476  -0.01429975  1
  O2-  O168  1  0.60996842  0.64396064  0.27301599  1
  O2-  O169  1  0.57689598  0.62121595  0.50306477  1
  O2-  O170  1  0.58636431  0.62041067  0.74469189  1
  O2-  O171  1  0.81962914  0.15121179  -0.00183851  1
  O2-  O172  1  0.81378928  0.13659698  0.25309601  1
  O2-  O173  1  0.87997561  0.13370346  0.49762851  1
  O2-  O174  1  0.83793980  0.15104930  0.74001660  1
  O2-  O175  1  0.81426511  0.63955377  0.03651814  1
  O2-  O176  1  0.84977209  0.62974270  0.23409343  1
  O2-  O177  1  0.91010451  0.65873832  0.51235525  1
  O2-  O178  1  0.89112190  0.67378481  0.69478251  1
  O2-  O179  1  0.11370453  0.35126534  0.00604352  1
  O2-  O180  1  0.13138682  0.36219171  0.25888059  1
  O2-  O181  1  0.17592466  0.37456247  0.48480863  1
  O2-  O182  1  0.11133643  0.36691324  0.72460270  1
  O2-  O183  1  0.19227812  0.87426210  -0.00613168  1
  O2-  O184  1  0.18477848  0.87590369  0.22931034  1
  O2-  O185  1  0.13478240  0.87286950  0.51584160  1
  O2-  O186  1  0.13319313  0.87505121  0.73949979  1
  O2-  O187  1  0.32029059  0.37437609  0.01033183  1
  O2-  O188  1  0.33447629  0.36354213  0.24450499  1
  O2-  O189  1  0.36744451  0.35333459  0.49743890  1
  O2-  O190  1  0.32615726  0.32359622  0.77733436  1
  O2-  O191  1  0.41250353  0.86697142  -0.01063857  1
  O2-  O192  1  0.37222052  0.85059109  0.25197060  1
  O2-  O193  1  0.37985524  0.87576887  0.50472417  1
  O2-  O194  1  0.39365701  0.85683040  0.76266202  1
  O2-  O195  1  0.65040239  0.36763870  -0.00864799  1
  O2-  O196  1  0.64780692  0.36702561  0.25867225  1
  O2-  O197  1  0.66674960  0.37553171  0.49949404  1
  O2-  O198  1  0.64576650  0.34932397  0.75018807  1
  O2-  O199  1  0.63429992  0.86673360  -0.00155066  1
  O2-  O200  1  0.62200145  0.85369969  0.26599455  1
  O2-  O201  1  0.57747066  0.87794132  0.50838424  1
  O2-  O202  1  0.59524995  0.87131753  0.72873784  1
  O2-  O203  1  0.91380609  0.36406542  0.00366009  1
  O2-  O204  1  0.93869526  0.36673586  0.27204794  1
  O2-  O205  1  0.85739338  0.35472081  0.52315891  1
  O2-  O206  1  0.91764881  0.36684289  0.74965263  1
  O2-  O207  1  0.86223482  0.88057158  -0.00258197  1
  O2-  O208  1  0.95250241  0.89784517  0.24642108  1
  O2-  O209  1  0.92218570  0.88507978  0.47488031  1
  O2-  O210  1  0.97173165  0.87147506  0.82325370  1
  O2-  O211  1  0.02089622  -0.13451913  0.09248910  1
  O2-  O212  1  -0.02911721  0.11612843  0.13594957  1
  O2-  O213  1  -0.01926214  0.14304009  0.34334411  1
  O2-  O214  1  -0.03399372  0.15854851  0.88067941  1
  O2-  O215  1  -0.03896195  0.57917930  0.00843854  1
  O2-  O216  1  0.00534932  0.65549561  0.15380934  1
  O2-  O217  1  0.01626015  0.34229153  0.48630187  1
  O2-  O218  1  -0.01408881  0.64444818  0.85274945  1
  O2-  O219  1  0.28169863  0.11119109  0.00681470  1
  O2-  O220  1  0.26821637  -0.00496687  0.38086813  1
  O2-  O221  1  0.26091949  -0.17167536  0.64511352  1
  O2-  O222  1  0.26786095  -0.01467210  0.60691173  1
  O2-  O223  1  0.25507923  0.60325034  0.12423240  1
  O2-  O224  1  0.25715236  0.65751661  0.37938096  1
  O2-  O225  1  0.25515424  0.58765791  0.55242682  1
  O2-  O226  1  0.25850425  0.66168852  0.69124745  1
  O2-  O227  1  0.49930528  0.01414675  -0.06664624  1
  O2-  O228  1  0.50295938  -0.16700054  0.13830388  1
  O2-  O229  1  0.53632529  0.10354046  0.51563303  1
  O2-  O230  1  0.46651744  0.12374303  0.82333012  1
  O2-  O231  1  0.48983408  0.36999970  -0.03840382  1
  O2-  O232  1  0.49771638  0.33445532  0.13980048  1
  O2-  O233  1  0.49278686  0.38308881  0.36901875  1
  O2-  O234  1  0.48451415  0.36845173  0.80003742  1
  O2-  O235  1  0.75551001  -0.13421282  -0.15269055  1
  O2-  O236  1  0.77239265  -0.14883640  0.33777520  1
  O2-  O237  1  0.74281370  -0.13262726  0.50765426  1
  O2-  O238  1  0.76581020  -0.15582067  0.66696485  1
  O2-  O239  1  0.75456541  0.61086992  -0.12695366  1
  O2-  O240  1  0.75870101  0.66356416  0.37793055  1
  O2-  O241  1  0.73481971  0.59250914  0.53161472  1
  O2-  O242  1  0.74421287  0.60876456  0.68986466  1
