# generated using pymatgen
data_Gd19Ta56(WO20)8
_symmetry_space_group_name_H-M   'P 1'
_cell_length_a   15.57791665
_cell_length_b   15.55535438
_cell_length_c   15.09312553
_cell_angle_alpha   90.09905445
_cell_angle_beta   90.06674744
_cell_angle_gamma   90.12673801
_symmetry_Int_Tables_number   1
_chemical_formula_structural   Gd19Ta56(WO20)8
_chemical_formula_sum   'Gd19 Ta56 W8 O160'
_cell_volume   3657.34947850
_cell_formula_units_Z   1
loop_
 _symmetry_equiv_pos_site_id
 _symmetry_equiv_pos_as_xyz
  1  'x, y, z'
loop_
 _atom_type_symbol
 _atom_type_oxidation_number
  Gd3+  3.0
  Ta5+  5.0
  W6+  6.0
  O2-  -2.0
loop_
 _atom_site_type_symbol
 _atom_site_label
 _atom_site_symmetry_multiplicity
 _atom_site_fract_x
 _atom_site_fract_y
 _atom_site_fract_z
 _atom_site_occupancy
  Gd3+  Gd0  1  0.02980626  0.25252044  -0.03737376  1
  Gd3+  Gd1  1  0.75518597  0.24079458  0.47142497  1
  Gd3+  Gd2  1  0.26459912  0.26334916  -0.01708297  1
  Gd3+  Gd3  1  0.74591553  0.72727042  0.77263668  1
  Gd3+  Gd4  1  0.74956119  0.24496622  0.24126721  1
  Gd3+  Gd5  1  0.48541008  0.22871748  0.49574187  1
  Gd3+  Gd6  1  0.23677020  0.74419845  0.76894659  1
  Gd3+  Gd7  1  0.76064027  0.74439505  0.01300431  1
  Gd3+  Gd8  1  0.24003671  0.24671278  0.51095816  1
  Gd3+  Gd9  1  0.24717624  0.73351696  0.49531032  1
  Gd3+  Gd10  1  0.49954832  0.24297335  0.73258562  1
  Gd3+  Gd11  1  0.27172037  0.73300892  0.24678353  1
  Gd3+  Gd12  1  0.74901026  0.24391603  0.73676288  1
  Gd3+  Gd13  1  0.45111272  0.73705531  -0.00110258  1
  Gd3+  Gd14  1  0.00095686  0.26138094  0.24232146  1
  Gd3+  Gd15  1  0.24050717  0.76947599  0.00249862  1
  Gd3+  Gd16  1  0.51869092  0.24476467  0.02399232  1
  Gd3+  Gd17  1  0.50333252  0.74164848  0.74277238  1
  Gd3+  Gd18  1  -0.01810692  0.76297311  0.25372617  1
  Ta5+  Ta19  1  0.89328217  0.88449303  0.10281613  1
  Ta5+  Ta20  1  0.13463122  0.88522964  0.15511275  1
  Ta5+  Ta21  1  0.62738100  0.38106819  0.60748606  1
  Ta5+  Ta22  1  0.64697917  0.62781314  0.36494542  1
  Ta5+  Ta23  1  0.87391985  0.88219828  0.87561638  1
  Ta5+  Ta24  1  0.63106409  0.10726648  0.60724153  1
  Ta5+  Ta25  1  0.92801398  0.11768756  0.36589810  1
  Ta5+  Ta26  1  0.39014703  0.86745018  0.38310199  1
  Ta5+  Ta27  1  0.11014241  0.62850088  0.11951182  1
  Ta5+  Ta28  1  0.87159720  0.39233099  0.61265960  1
  Ta5+  Ta29  1  0.86768462  0.38453021  0.11016534  1
  Ta5+  Ta30  1  0.32493421  0.54825173  0.88125242  1
  Ta5+  Ta31  1  0.87192955  0.37412660  0.87348553  1
  Ta5+  Ta32  1  0.86314367  0.40009459  0.35495931  1
  Ta5+  Ta33  1  0.81345501  0.64435732  0.35626891  1
  Ta5+  Ta34  1  0.13472946  0.12829329  0.12312123  1
  Ta5+  Ta35  1  0.68083276  0.86631357  0.36740074  1
  Ta5+  Ta36  1  0.60492013  0.10549184  0.34666339  1
  Ta5+  Ta37  1  0.09935419  0.12705007  0.38327041  1
  Ta5+  Ta38  1  0.87560432  0.10885799  0.61374117  1
  Ta5+  Ta39  1  0.37883025  0.37511514  0.38270424  1
  Ta5+  Ta40  1  0.60239056  0.62626398  0.11785253  1
  Ta5+  Ta41  1  0.66508747  0.38565248  0.11165560  1
  Ta5+  Ta42  1  0.10873560  0.37258128  0.64388223  1
  Ta5+  Ta43  1  0.34714490  0.87345514  0.63838228  1
  Ta5+  Ta44  1  0.10444662  0.62020120  0.63133827  1
  Ta5+  Ta45  1  0.66646716  0.09861206  0.10768107  1
  Ta5+  Ta46  1  0.62944669  0.36687262  0.87344767  1
  Ta5+  Ta47  1  0.38913022  0.06580684  0.62193682  1
  Ta5+  Ta48  1  0.35739847  0.61438723  0.64077425  1
  Ta5+  Ta49  1  0.37768956  0.36749341  0.13696228  1
  Ta5+  Ta50  1  0.38895529  0.39903890  0.87523388  1
  Ta5+  Ta51  1  0.61294938  0.85764754  0.12648320  1
  Ta5+  Ta52  1  0.35380725  0.10955265  0.37712500  1
  Ta5+  Ta53  1  0.14026082  0.61144421  0.36785788  1
  Ta5+  Ta54  1  0.15172273  0.88749817  0.36276296  1
  Ta5+  Ta55  1  0.18508229  0.91563863  0.60714494  1
  Ta5+  Ta56  1  0.86131440  0.13164096  0.87724177  1
  Ta5+  Ta57  1  0.17451733  0.43106853  0.87228176  1
  Ta5+  Ta58  1  0.84700217  0.88515561  0.36427091  1
  Ta5+  Ta59  1  0.39084463  0.61690817  0.38332701  1
  Ta5+  Ta60  1  0.37527780  0.90060821  0.88069524  1
  Ta5+  Ta61  1  0.61714998  0.38023748  0.35261061  1
  Ta5+  Ta62  1  0.13350055  0.38402284  0.11962556  1
  Ta5+  Ta63  1  0.14864517  0.10634714  0.86568905  1
  Ta5+  Ta64  1  0.87164126  0.11829806  0.11608276  1
  Ta5+  Ta65  1  0.89789240  0.62261673  0.11325737  1
  Ta5+  Ta66  1  0.86511120  0.64028389  0.61215977  1
  Ta5+  Ta67  1  0.06942474  0.64198990  0.89422471  1
  Ta5+  Ta68  1  0.58436906  0.87106226  0.88331687  1
  Ta5+  Ta69  1  0.38929967  0.39353095  0.62630400  1
  Ta5+  Ta70  1  0.09775351  0.13354372  0.64406620  1
  Ta5+  Ta71  1  0.37121292  0.12980255  0.12802925  1
  Ta5+  Ta72  1  0.34504986  0.12860180  0.85795112  1
  Ta5+  Ta73  1  0.60320888  0.61136948  0.61987619  1
  Ta5+  Ta74  1  0.07009379  0.87664770  0.91151388  1
  W6+  W75  1  0.56944482  0.59932427  0.89895002  1
  W6+  W76  1  0.63211442  0.86106079  0.61755435  1
  W6+  W77  1  0.83106141  0.86918751  0.62181080  1
  W6+  W78  1  0.37721411  0.89025818  0.12757235  1
  W6+  W79  1  0.60824250  0.11363887  0.87233885  1
  W6+  W80  1  0.90818071  0.62439544  0.88289329  1
  W6+  W81  1  0.12406483  0.37537692  0.38211134  1
  W6+  W82  1  0.38352032  0.60226870  0.12073590  1
  O2-  O83  1  0.15216381  0.01174359  0.14194510  1
  O2-  O84  1  0.13227665  0.00743102  0.37625602  1
  O2-  O85  1  0.11611169  0.01462224  0.65609080  1
  O2-  O86  1  0.11710920  -0.01700526  0.87747784  1
  O2-  O87  1  0.11412739  0.50115724  0.11240659  1
  O2-  O88  1  0.08652674  0.50692202  0.37020220  1
  O2-  O89  1  0.10684977  0.50148469  0.63834155  1
  O2-  O90  1  0.09960463  0.52328567  0.89097286  1
  O2-  O91  1  0.41498306  0.02184183  0.12290278  1
  O2-  O92  1  0.36717329  -0.01168314  0.38648918  1
  O2-  O93  1  0.44491835  -0.03940804  0.63060171  1
  O2-  O94  1  0.40345982  0.02311950  0.87645445  1
  O2-  O95  1  0.42532856  0.47450210  0.13761885  1
  O2-  O96  1  0.41014295  0.49432491  0.38894629  1
  O2-  O97  1  0.32233675  0.49581065  0.63025695  1
  O2-  O98  1  0.45112023  0.51401318  0.86962442  1
  O2-  O99  1  0.64148926  -0.01885871  0.11665179  1
  O2-  O100  1  0.65131490  -0.00382965  0.34772984  1
  O2-  O101  1  0.65910072  -0.00450164  0.62557305  1
  O2-  O102  1  0.62851557  -0.01934338  0.87501211  1
  O2-  O103  1  0.63710283  0.50221816  0.11961716  1
  O2-  O104  1  0.62195322  0.49698296  0.35495619  1
  O2-  O105  1  0.66066615  0.49606458  0.63224936  1
  O2-  O106  1  0.62802719  0.48274408  0.86531377  1
  O2-  O107  1  0.91829975  0.00862752  0.10233101  1
  O2-  O108  1  0.89169685  0.00291378  0.36416283  1
  O2-  O109  1  0.88637267  -0.00546358  0.62182482  1
  O2-  O110  1  0.87477027  0.01178647  0.87510749  1
  O2-  O111  1  0.90975561  0.49709613  0.11396631  1
  O2-  O112  1  0.84239726  0.51522775  0.35474159  1
  O2-  O113  1  0.86560007  0.50935963  0.61437090  1
  O2-  O114  1  0.90606038  0.48604717  0.86742122  1
  O2-  O115  1  0.07949027  0.25681497  0.10865589  1
  O2-  O116  1  0.15779376  0.24430398  0.38887217  1
  O2-  O117  1  0.15522728  0.24894783  0.65169486  1
  O2-  O118  1  0.15458060  0.23119161  0.88728603  1
  O2-  O119  1  0.12368663  0.75469455  0.15082469  1
  O2-  O120  1  0.15867827  0.74795676  0.36057038  1
  O2-  O121  1  0.22759179  0.65758968  0.63394138  1
  O2-  O122  1  0.13003335  0.76855563  0.88388475  1
  O2-  O123  1  0.42977666  0.24997966  0.15176262  1
  O2-  O124  1  0.35684473  0.24386990  0.40027544  1
  O2-  O125  1  0.39987084  0.26606364  0.61410448  1
  O2-  O126  1  0.34954532  0.25658495  0.85587249  1
  O2-  O127  1  0.34289169  0.74621029  0.11295473  1
  O2-  O128  1  0.34562623  0.74452849  0.37860053  1
  O2-  O129  1  0.36846182  0.74779617  0.67128787  1
  O2-  O130  1  0.34068538  0.77217079  0.88805555  1
  O2-  O131  1  0.66809034  0.24830494  0.11017827  1
  O2-  O132  1  0.64984528  0.22952662  0.35269657  1
  O2-  O133  1  0.58883291  0.25164255  0.60334486  1
  O2-  O134  1  0.56449075  0.25080490  0.87535691  1
  O2-  O135  1  0.54902258  0.74840171  0.11601713  1
  O2-  O136  1  0.71226409  0.73643650  0.37507304  1
  O2-  O137  1  0.58480104  0.73448174  0.61662397  1
  O2-  O138  1  0.54241393  0.73391719  0.88720865  1
  O2-  O139  1  0.87496327  0.25508853  0.13824433  1
  O2-  O140  1  0.86740571  0.24491064  0.34623532  1
  O2-  O141  1  0.75719694  0.33281996  0.60317097  1
  O2-  O142  1  0.91855779  0.25366737  0.85648867  1
  O2-  O143  1  0.90043997  0.75613668  0.10378909  1
  O2-  O144  1  0.87941368  0.75574545  0.35536249  1
  O2-  O145  1  0.78881084  0.73780703  0.62951709  1
  O2-  O146  1  0.85115561  0.75515453  0.89181606  1
  O2-  O147  1  0.09296578  0.11766005  0.00019586  1
  O2-  O148  1  0.10859800  0.14935333  0.24658445  1
  O2-  O149  1  0.13094757  0.13453118  0.51831719  1
  O2-  O150  1  0.06621796  0.13231062  0.77425154  1
  O2-  O151  1  0.15932532  0.64769021  0.00405852  1
  O2-  O152  1  0.17381150  0.61695321  0.23586337  1
  O2-  O153  1  0.12369098  0.63581294  0.50076666  1
  O2-  O154  1  0.10350482  0.65159944  0.75869736  1
  O2-  O155  1  0.39414873  0.16570657  0.00176836  1
  O2-  O156  1  0.34110918  0.12742414  0.25444844  1
  O2-  O157  1  0.35005575  0.12453485  0.51424974  1
  O2-  O158  1  0.40548774  0.12559273  0.73319889  1
  O2-  O159  1  0.34127526  0.61388383  -0.01192854  1
  O2-  O160  1  0.38648233  0.62739911  0.25775050  1
  O2-  O161  1  0.36985384  0.63989011  0.51551741  1
  O2-  O162  1  0.33145572  0.61642943  0.77072450  1
  O2-  O163  1  0.58725616  0.11731869  0.01259521  1
  O2-  O164  1  0.60023933  0.12211754  0.22210460  1
  O2-  O165  1  0.64790896  0.12751972  0.47901009  1
  O2-  O166  1  0.62528059  0.14691536  0.73199094  1
  O2-  O167  1  0.65531602  0.64689480  -0.00421267  1
  O2-  O168  1  0.61684884  0.64329459  0.24169273  1
  O2-  O169  1  0.62554372  0.61317321  0.49741202  1
  O2-  O170  1  0.62362525  0.63591305  0.75643993  1
  O2-  O171  1  0.91618918  0.15457580  -0.00677174  1
  O2-  O172  1  0.93447138  0.12600481  0.23189660  1
  O2-  O173  1  0.86648821  0.13872251  0.48750725  1
  O2-  O174  1  0.86004957  0.13919490  0.74239031  1
  O2-  O175  1  0.83198146  0.61679926  0.00667486  1
  O2-  O176  1  0.83203297  0.63843609  0.22052574  1
  O2-  O177  1  0.83574357  0.63781519  0.49076513  1
  O2-  O178  1  0.85503094  0.63236264  0.74517516  1
  O2-  O179  1  0.12878280  0.36898106  -0.01637575  1
  O2-  O180  1  0.11310821  0.36505200  0.24163135  1
  O2-  O181  1  0.15207066  0.36808767  0.52545668  1
  O2-  O182  1  0.11492044  0.37916791  0.77226629  1
  O2-  O183  1  0.13640225  0.87183950  0.02577431  1
  O2-  O184  1  0.22298378  0.87685205  0.25176891  1
  O2-  O185  1  0.17073986  0.86620731  0.49033916  1
  O2-  O186  1  0.15160197  0.82255347  0.67602036  1
  O2-  O187  1  0.40412814  0.34699130  0.00409903  1
  O2-  O188  1  0.34457296  0.36907923  0.26364846  1
  O2-  O189  1  0.33314007  0.37610395  0.50276666  1
  O2-  O190  1  0.43188465  0.37592289  0.74888059  1
  O2-  O191  1  0.31364983  0.90428490  -0.00796663  1
  O2-  O192  1  0.40986400  0.85979922  0.26127057  1
  O2-  O193  1  0.35665724  0.84558754  0.51245818  1
  O2-  O194  1  0.30604587  0.89323412  0.77102179  1
  O2-  O195  1  0.59821623  0.36806587  0.00048332  1
  O2-  O196  1  0.60347752  0.36008242  0.22788118  1
  O2-  O197  1  0.64271789  0.36062536  0.48297984  1
  O2-  O198  1  0.62970073  0.34341298  0.73951346  1
  O2-  O199  1  0.64367625  0.83920034  -0.00518375  1
  O2-  O200  1  0.65701774  0.84026540  0.23786276  1
  O2-  O201  1  0.63990913  0.86570115  0.48290322  1
  O2-  O202  1  0.63342728  0.82884365  0.76819652  1
  O2-  O203  1  0.92434578  0.35582854  -0.00697894  1
  O2-  O204  1  0.92517742  0.38784252  0.24527856  1
  O2-  O205  1  0.87884541  0.37237657  0.48161100  1
  O2-  O206  1  0.85371918  0.36277703  0.73835169  1
  O2-  O207  1  0.81296151  0.88699259  -0.00317065  1
  O2-  O208  1  0.87605493  0.87768982  0.22681732  1
  O2-  O209  1  0.83443787  0.87431101  0.48592617  1
  O2-  O210  1  0.81368894  0.86785314  0.76757177  1
  O2-  O211  1  -0.02861465  -0.11653406  -0.01510697  1
  O2-  O212  1  0.06208382  -0.11643031  0.26693026  1
  O2-  O213  1  -0.01638171  0.16621511  0.61574002  1
  O2-  O214  1  -0.01495762  -0.13523141  0.81842850  1
  O2-  O215  1  0.00056593  0.63488151  0.01528792  1
  O2-  O216  1  0.00381629  0.63096824  0.19243063  1
  O2-  O217  1  -0.01026850  0.35853499  0.62579624  1
  O2-  O218  1  -0.01394596  0.65646258  0.61343115  1
  O2-  O219  1  0.25526601  0.10832149  -0.05526316  1
  O2-  O220  1  0.24842647  0.17429326  0.11135743  1
  O2-  O221  1  0.28391962  0.00003231  0.61747149  1
  O2-  O222  1  0.24430625  0.10496792  0.78142203  1
  O2-  O223  1  0.27912044  0.43979864  -0.04466624  1
  O2-  O224  1  0.25548936  0.35592013  0.11162760  1
  O2-  O225  1  0.26030906  0.60085528  0.38886142  1
  O2-  O226  1  0.27907666  0.44110742  0.79711756  1
  O2-  O227  1  0.48103108  -0.11896742  -0.03442596  1
  O2-  O228  1  0.48812584  0.12178312  0.38265437  1
  O2-  O229  1  0.50794413  0.10801138  0.58495248  1
  O2-  O230  1  0.47811718  -0.12527611  0.80252985  1
  O2-  O231  1  0.50401696  0.60028453  0.03336623  1
  O2-  O232  1  0.50032172  0.34095684  0.38548605  1
  O2-  O233  1  0.50727166  0.40885301  0.58827898  1
  O2-  O234  1  0.48265477  0.59378166  0.64602349  1
  O2-  O235  1  0.76903154  0.09612673  0.03480802  1
  O2-  O236  1  0.76936613  0.11014362  0.19665466  1
  O2-  O237  1  0.75409121  0.16012935  0.60952037  1
  O2-  O238  1  0.74622436  0.16290692  0.87047756  1
  O2-  O239  1  0.76911855  0.39984113  0.03344687  1
  O2-  O240  1  0.76806367  0.38556037  0.19524900  1
  O2-  O241  1  0.74642642  0.35992409  0.35839480  1
  O2-  O242  1  0.75095766  0.34344458  0.87196103  1
