# generated using pymatgen
data_Gd19Ta56(WO20)8
_symmetry_space_group_name_H-M   'P 1'
_cell_length_a   15.48484509
_cell_length_b   15.35380499
_cell_length_c   15.28583251
_cell_angle_alpha   89.71954572
_cell_angle_beta   89.93923211
_cell_angle_gamma   89.70552733
_symmetry_Int_Tables_number   1
_chemical_formula_structural   Gd19Ta56(WO20)8
_chemical_formula_sum   'Gd19 Ta56 W8 O160'
_cell_volume   3634.13294288
_cell_formula_units_Z   1
loop_
 _symmetry_equiv_pos_site_id
 _symmetry_equiv_pos_as_xyz
  1  'x, y, z'
loop_
 _atom_type_symbol
 _atom_type_oxidation_number
  Gd3+  3.0
  Ta5+  5.0
  W6+  6.0
  O2-  -2.0
loop_
 _atom_site_type_symbol
 _atom_site_label
 _atom_site_symmetry_multiplicity
 _atom_site_fract_x
 _atom_site_fract_y
 _atom_site_fract_z
 _atom_site_occupancy
  Gd3+  Gd0  1  0.51233198  0.24585226  0.26432072  1
  Gd3+  Gd1  1  -0.00428790  0.73541972  -0.01395790  1
  Gd3+  Gd2  1  0.49782839  0.75876512  0.49823730  1
  Gd3+  Gd3  1  0.75770719  0.75248180  0.50499893  1
  Gd3+  Gd4  1  0.75889152  0.24610419  0.27633824  1
  Gd3+  Gd5  1  0.01133505  0.76824788  0.23438403  1
  Gd3+  Gd6  1  0.74917914  0.76525912  0.25105530  1
  Gd3+  Gd7  1  0.22670118  0.76907030  0.74954799  1
  Gd3+  Gd8  1  0.56097062  0.24404592  0.50660771  1
  Gd3+  Gd9  1  0.52705351  0.23975983  0.76149773  1
  Gd3+  Gd10  1  0.24619129  0.75331975  0.24856002  1
  Gd3+  Gd11  1  -0.01071831  0.75417839  0.52355475  1
  Gd3+  Gd12  1  0.78474994  0.74655086  0.74681882  1
  Gd3+  Gd13  1  0.50608961  0.71139786  0.72812305  1
  Gd3+  Gd14  1  0.24780616  0.75902800  -0.00569717  1
  Gd3+  Gd15  1  0.23370218  0.26273214  0.75769152  1
  Gd3+  Gd16  1  0.79394047  0.24915550  0.54307249  1
  Gd3+  Gd17  1  0.49954785  0.74172903  -0.01419108  1
  Gd3+  Gd18  1  0.21225379  0.27289551  0.00077934  1
  Ta5+  Ta19  1  0.38891670  0.88762585  0.64785703  1
  Ta5+  Ta20  1  0.40656502  0.11789903  0.40835421  1
  Ta5+  Ta21  1  0.12152989  0.14463402  0.61513879  1
  Ta5+  Ta22  1  0.38803077  0.36468728  0.63328103  1
  Ta5+  Ta23  1  0.11078498  0.36890740  0.61366283  1
  Ta5+  Ta24  1  0.37896215  0.62458140  0.12673805  1
  Ta5+  Ta25  1  0.86728103  0.89795709  0.36758511  1
  Ta5+  Ta26  1  0.88240860  0.59344636  0.62728182  1
  Ta5+  Ta27  1  0.86119943  0.88817692  0.89137673  1
  Ta5+  Ta28  1  0.38181481  0.37421744  0.14604664  1
  Ta5+  Ta29  1  0.91465039  0.14013273  0.39081981  1
  Ta5+  Ta30  1  0.64042653  0.40363072  0.38984021  1
  Ta5+  Ta31  1  0.92106699  0.15453504  0.13971341  1
  Ta5+  Ta32  1  0.68782476  0.11397769  0.64963092  1
  Ta5+  Ta33  1  0.40639178  0.37918058  0.40766881  1
  Ta5+  Ta34  1  0.39893040  0.36047951  0.90013594  1
  Ta5+  Ta35  1  0.95533123  0.13365687  0.64157989  1
  Ta5+  Ta36  1  0.31693528  0.88750982  0.41232304  1
  Ta5+  Ta37  1  0.33977783  0.60965067  0.62127087  1
  Ta5+  Ta38  1  0.66077069  0.38216374  0.14771366  1
  Ta5+  Ta39  1  0.91497786  0.57415525  0.13154698  1
  Ta5+  Ta40  1  0.90834662  0.36584308  0.38815696  1
  Ta5+  Ta41  1  0.11184151  0.88893910  0.39426115  1
  Ta5+  Ta42  1  0.12819224  0.59918824  0.86381560  1
  Ta5+  Ta43  1  0.62305165  0.88957813  0.87291221  1
  Ta5+  Ta44  1  0.10507826  0.89645326  0.87118240  1
  Ta5+  Ta45  1  0.62781111  0.92960607  0.62554311  1
  Ta5+  Ta46  1  0.64944934  0.38429818  0.64786464  1
  Ta5+  Ta47  1  0.34924707  0.93008034  0.87902273  1
  Ta5+  Ta48  1  0.12226012  0.61685904  0.37366054  1
  Ta5+  Ta49  1  0.06142333  0.37229024  0.12479659  1
  Ta5+  Ta50  1  0.07759307  0.14113125  0.37725393  1
  Ta5+  Ta51  1  0.07130603  0.37004352  0.37728159  1
  Ta5+  Ta52  1  0.88966524  0.35845662  0.88461859  1
  Ta5+  Ta53  1  0.07563482  0.14372436  0.87020873  1
  Ta5+  Ta54  1  0.11640100  0.91702568  0.10181809  1
  Ta5+  Ta55  1  0.63355978  0.05918831  0.40309037  1
  Ta5+  Ta56  1  0.36860583  0.62647958  0.38183242  1
  Ta5+  Ta57  1  0.67355921  0.11226883  0.90180822  1
  Ta5+  Ta58  1  0.62447991  0.59853033  0.87244521  1
  Ta5+  Ta59  1  0.13174844  0.61646798  0.62075048  1
  Ta5+  Ta60  1  0.36672838  0.90740961  0.09062225  1
  Ta5+  Ta61  1  0.13335025  0.58034747  0.12118240  1
  Ta5+  Ta62  1  0.90308218  0.13693009  0.88831747  1
  Ta5+  Ta63  1  0.91687092  0.92188053  0.11758180  1
  Ta5+  Ta64  1  0.36675390  0.60449620  0.86523397  1
  Ta5+  Ta65  1  0.38143749  0.13711566  0.64091292  1
  Ta5+  Ta66  1  0.88930866  0.34715275  0.13508425  1
  Ta5+  Ta67  1  0.09182834  0.15127187  0.13228729  1
  Ta5+  Ta68  1  0.84965637  0.91369247  0.63045772  1
  Ta5+  Ta69  1  0.60231681  0.58819969  0.35784462  1
  Ta5+  Ta70  1  0.61172149  0.86915113  0.12825053  1
  Ta5+  Ta71  1  0.88013988  0.61355403  0.36622272  1
  Ta5+  Ta72  1  0.06171271  0.37444321  0.86505334  1
  Ta5+  Ta73  1  0.64634810  0.35393583  0.90416617  1
  Ta5+  Ta74  1  0.94658312  0.35284269  0.64078196  1
  W6+  W75  1  0.14320804  0.89362217  0.61268500  1
  W6+  W76  1  0.63954171  0.62514409  0.12270093  1
  W6+  W77  1  0.64191068  0.56907740  0.61218435  1
  W6+  W78  1  0.86458071  0.60724127  0.88391111  1
  W6+  W79  1  0.35887497  0.13803085  0.15173746  1
  W6+  W80  1  0.35920470  0.12986859  0.91091045  1
  W6+  W81  1  0.61044925  0.89176357  0.37348455  1
  W6+  W82  1  0.66971840  0.11084594  0.15574625  1
  O2-  O83  1  0.14286623  0.03343029  0.13337391  1
  O2-  O84  1  0.09383227  0.00775145  0.37295878  1
  O2-  O85  1  0.14492587  0.02632024  0.60753714  1
  O2-  O86  1  0.09923408  0.01547312  0.87888588  1
  O2-  O87  1  0.17274252  0.46569691  0.11967922  1
  O2-  O88  1  0.11176667  0.49758084  0.38093565  1
  O2-  O89  1  0.10509165  0.49507876  0.60432427  1
  O2-  O90  1  0.05550157  0.50071547  0.88483464  1
  O2-  O91  1  0.35202240  0.00158015  0.16461422  1
  O2-  O92  1  0.36836784  -0.00214476  0.39473655  1
  O2-  O93  1  0.39648473  0.01258415  0.64019023  1
  O2-  O94  1  0.29941497  0.03431784  0.84089257  1
  O2-  O95  1  0.38673603  0.50354318  0.13544020  1
  O2-  O96  1  0.37884887  0.50679763  0.39372411  1
  O2-  O97  1  0.36865556  0.48945860  0.62602095  1
  O2-  O98  1  0.38848247  0.48134315  0.89048203  1
  O2-  O99  1  0.48791928  -0.12147745  0.12087818  1
  O2-  O100  1  0.63504366  -0.03928502  0.49525325  1
  O2-  O101  1  0.58290561  0.05079823  0.64006140  1
  O2-  O102  1  0.60044726  0.01214426  0.89912401  1
  O2-  O103  1  0.61390261  0.49082629  0.13006716  1
  O2-  O104  1  0.65424668  0.53265851  0.45828100  1
  O2-  O105  1  0.55654374  0.45728522  0.62077243  1
  O2-  O106  1  0.63947137  0.48277738  0.89945562  1
  O2-  O107  1  0.87648208  0.03382774  0.15006396  1
  O2-  O108  1  0.88719952  0.01545319  0.37642112  1
  O2-  O109  1  0.93388384  -0.00090457  0.63470906  1
  O2-  O110  1  0.87019918  0.01086389  0.87748121  1
  O2-  O111  1  0.85011779  0.47274280  0.14211770  1
  O2-  O112  1  0.87547449  0.49257434  0.37842733  1
  O2-  O113  1  0.91085021  0.47817899  0.63695501  1
  O2-  O114  1  0.85264337  0.47432598  0.87184671  1
  O2-  O115  1  0.14094899  0.26962897  0.13049930  1
  O2-  O116  1  -0.00041341  0.25311281  0.38891873  1
  O2-  O117  1  0.18356164  0.26118141  0.62055077  1
  O2-  O118  1  0.13295705  0.26125412  0.86839661  1
  O2-  O119  1  0.24285687  0.90561463  0.05860557  1
  O2-  O120  1  0.12488691  0.76502367  0.34836426  1
  O2-  O121  1  0.13351358  0.74942229  0.62387100  1
  O2-  O122  1  0.12967813  0.72859893  0.86337588  1
  O2-  O123  1  0.43309651  0.26152280  0.13895905  1
  O2-  O124  1  0.44303171  0.25106212  0.40588235  1
  O2-  O125  1  0.45533435  0.25067721  0.61858026  1
  O2-  O126  1  0.31701000  0.26329180  0.88491044  1
  O2-  O127  1  0.24762179  0.64329756  0.10912751  1
  O2-  O128  1  0.36131524  0.77843617  0.37115292  1
  O2-  O129  1  0.37819329  0.74974666  0.65626393  1
  O2-  O130  1  0.31771630  0.71956475  0.85613322  1
  O2-  O131  1  0.63427698  0.25509244  0.17815356  1
  O2-  O132  1  0.62059406  0.27929966  0.36635439  1
  O2-  O133  1  0.63770562  0.24150006  0.65018293  1
  O2-  O134  1  0.62769129  0.22734488  0.88303578  1
  O2-  O135  1  0.68299416  0.76197176  0.11668346  1
  O2-  O136  1  0.74515302  0.88197183  0.35549670  1
  O2-  O137  1  0.55670381  0.67503283  0.59573854  1
  O2-  O138  1  0.55322420  0.79166116  0.84614322  1
  O2-  O139  1  0.81974464  0.23751945  0.13143222  1
  O2-  O140  1  0.82962782  0.25057830  0.40469909  1
  O2-  O141  1  0.88805933  0.23966502  0.66661476  1
  O2-  O142  1  0.84556226  0.24088465  0.85229001  1
  O2-  O143  1  0.94204173  0.79434925  0.10301569  1
  O2-  O144  1  0.83737377  0.74007251  0.37344328  1
  O2-  O145  1  0.88619251  0.78500303  0.62786300  1
  O2-  O146  1  0.87795189  0.74857115  0.88670046  1
  O2-  O147  1  0.10445835  0.15659226  -0.00295982  1
  O2-  O148  1  0.10914136  0.16106730  0.25900907  1
  O2-  O149  1  0.12855918  0.16134857  0.48583546  1
  O2-  O150  1  0.14286936  0.14736071  0.74956446  1
  O2-  O151  1  0.11373111  0.62814959  0.00001135  1
  O2-  O152  1  0.14786741  0.62189899  0.24286117  1
  O2-  O153  1  0.09174077  0.64928412  0.49034613  1
  O2-  O154  1  0.09572399  0.60003264  0.74607689  1
  O2-  O155  1  0.30708057  0.15985402  0.02876567  1
  O2-  O156  1  0.40830656  0.14073841  0.28460277  1
  O2-  O157  1  0.34693789  0.14342076  0.51439870  1
  O2-  O158  1  0.40279258  0.15524638  0.76469147  1
  O2-  O159  1  0.37380798  0.64340409  -0.00325666  1
  O2-  O160  1  0.36150158  0.64450133  0.25266353  1
  O2-  O161  1  0.38956164  0.65306545  0.50813739  1
  O2-  O162  1  0.40183546  0.60327051  0.74336702  1
  O2-  O163  1  0.69156157  0.12120992  0.01951812  1
  O2-  O164  1  0.69156275  0.11049527  0.30600387  1
  O2-  O165  1  0.68038523  0.14220560  0.51053436  1
  O2-  O166  1  0.70569365  0.11353391  0.77255730  1
  O2-  O167  1  0.61688730  0.64807940  -0.01191656  1
  O2-  O168  1  0.49481822  0.66620451  0.12239961  1
  O2-  O169  1  0.49878653  0.65536120  0.37535409  1
  O2-  O170  1  0.60706622  0.60240311  0.74667653  1
  O2-  O171  1  0.91076824  0.14604819  0.00905178  1
  O2-  O172  1  0.89136567  0.16113259  0.26671484  1
  O2-  O173  1  0.90466553  0.14359032  0.52238185  1
  O2-  O174  1  0.97613872  0.13061586  0.77655031  1
  O2-  O175  1  0.88802143  0.62048595  0.02176063  1
  O2-  O176  1  0.86174240  0.63376210  0.23266481  1
  O2-  O177  1  0.87922961  0.63285346  0.49581834  1
  O2-  O178  1  0.86931624  0.62460928  0.74632900  1
  O2-  O179  1  0.08144165  0.36157218  -0.00726201  1
  O2-  O180  1  0.07356078  0.37291948  0.25164279  1
  O2-  O181  1  0.12028542  0.34996942  0.49013800  1
  O2-  O182  1  0.13842278  0.37841223  0.74951578  1
  O2-  O183  1  0.11234394  0.83491396  -0.00794867  1
  O2-  O184  1  0.14138513  0.80310752  0.16035911  1
  O2-  O185  1  0.05533135  0.88206625  0.50919149  1
  O2-  O186  1  0.10908828  0.87687594  0.75046487  1
  O2-  O187  1  0.34684341  0.36465184  0.02176873  1
  O2-  O188  1  0.39436383  0.36844546  0.27649701  1
  O2-  O189  1  0.34303607  0.35516025  0.50938746  1
  O2-  O190  1  0.41726181  0.34985518  0.76363796  1
  O2-  O191  1  0.37981417  0.83416845  -0.02932494  1
  O2-  O192  1  0.34064807  0.78640812  0.13385332  1
  O2-  O193  1  0.38723052  0.86906502  0.52121996  1
  O2-  O194  1  0.41391562  0.89119896  0.78059315  1
  O2-  O195  1  0.67450022  0.34852275  0.02492124  1
  O2-  O196  1  0.69962908  0.39857363  0.27342748  1
  O2-  O197  1  0.67646838  0.35030530  0.51678215  1
  O2-  O198  1  0.61900280  0.36191096  0.77044696  1
  O2-  O199  1  0.59779018  0.85817293  -0.00307222  1
  O2-  O200  1  0.61274018  0.83165450  0.24932564  1
  O2-  O201  1  0.63121296  0.76916230  0.44274967  1
  O2-  O202  1  0.63363005  0.92151553  0.75056804  1
  O2-  O203  1  0.88495808  0.35064354  0.00613489  1
  O2-  O204  1  0.87795935  0.34659006  0.26554834  1
  O2-  O205  1  0.90174652  0.34992138  0.52010402  1
  O2-  O206  1  0.96871827  0.34862012  0.77589890  1
  O2-  O207  1  0.84132153  0.90073922  0.01431231  1
  O2-  O208  1  0.86451275  0.86804377  0.23714043  1
  O2-  O209  1  0.85428003  0.87947573  0.49701786  1
  O2-  O210  1  0.84354727  0.88705462  0.75445482  1
  O2-  O211  1  0.01034140  -0.04361013  0.04036542  1
  O2-  O212  1  0.02664541  -0.08518053  0.19761923  1
  O2-  O213  1  -0.01455308  -0.15235585  0.36758309  1
  O2-  O214  1  -0.01472055  -0.13235775  0.88588390  1
  O2-  O215  1  0.01706094  0.49934725  0.10909449  1
  O2-  O216  1  0.02176779  0.65234434  0.13973703  1
  O2-  O217  1  -0.00252301  0.64488801  0.34201410  1
  O2-  O218  1  -0.00624347  0.64148491  0.62056498  1
  O2-  O219  1  0.23628296  -0.12703095  -0.12339456  1
  O2-  O220  1  0.22886650  -0.10824835  0.31917568  1
  O2-  O221  1  0.21325215  -0.11513185  0.48344381  1
  O2-  O222  1  0.26949495  -0.11055420  0.67155573  1
  O2-  O223  1  0.24313398  0.56304692  -0.12609413  1
  O2-  O224  1  0.24637369  0.64174158  0.38129878  1
  O2-  O225  1  0.23862826  0.59156125  0.55110768  1
  O2-  O226  1  0.24279300  0.63287300  0.70104246  1
  O2-  O227  1  0.39416184  -0.00513868  -0.02140911  1
  O2-  O228  1  0.55145651  0.00726344  0.32581753  1
  O2-  O229  1  0.52160992  0.10776153  0.45657905  1
  O2-  O230  1  0.52336227  -0.14130206  0.62616816  1
  O2-  O231  1  0.51566675  0.34671764  -0.08061921  1
  O2-  O232  1  0.55981523  0.48497827  0.31563907  1
  O2-  O233  1  0.52011011  0.39498076  0.44927684  1
  O2-  O234  1  0.49566732  0.63348899  0.87591675  1
  O2-  O235  1  0.73703219  -0.15112201  -0.12226340  1
  O2-  O236  1  0.66556563  -0.02667362  0.13804413  1
  O2-  O237  1  0.72159530  -0.15993358  0.62098716  1
  O2-  O238  1  0.75279624  0.00269269  0.62551428  1
  O2-  O239  1  0.73367310  0.65038957  -0.14591073  1
  O2-  O240  1  0.66694340  0.63638226  0.26555818  1
  O2-  O241  1  0.76020766  0.65062692  0.61719672  1
  O2-  O242  1  0.73387705  0.46860949  0.65352401  1
