# generated using pymatgen
data_Gd19Ta56(WO20)8
_symmetry_space_group_name_H-M   'P 1'
_cell_length_a   15.51108524
_cell_length_b   15.40817039
_cell_length_c   15.27356886
_cell_angle_alpha   90.15325954
_cell_angle_beta   89.89209276
_cell_angle_gamma   90.35775683
_symmetry_Int_Tables_number   1
_chemical_formula_structural   Gd19Ta56(WO20)8
_chemical_formula_sum   'Gd19 Ta56 W8 O160'
_cell_volume   3650.25334615
_cell_formula_units_Z   1
loop_
 _symmetry_equiv_pos_site_id
 _symmetry_equiv_pos_as_xyz
  1  'x, y, z'
loop_
 _atom_type_symbol
 _atom_type_oxidation_number
  Gd3+  3.0
  Ta5+  5.0
  W6+  6.0
  O2-  -2.0
loop_
 _atom_site_type_symbol
 _atom_site_label
 _atom_site_symmetry_multiplicity
 _atom_site_fract_x
 _atom_site_fract_y
 _atom_site_fract_z
 _atom_site_occupancy
  Gd3+  Gd0  1  0.46412764  0.73399452  0.48144188  1
  Gd3+  Gd1  1  0.24048335  0.73933773  0.75625685  1
  Gd3+  Gd2  1  0.75617583  0.22213163  0.48614291  1
  Gd3+  Gd3  1  0.02461262  0.23801471  0.48952416  1
  Gd3+  Gd4  1  0.24379968  0.74534610  -0.00807854  1
  Gd3+  Gd5  1  0.72233203  0.77683622  0.50305388  1
  Gd3+  Gd6  1  0.01603187  0.73785038  0.75186402  1
  Gd3+  Gd7  1  0.76378577  0.25918614  0.02074425  1
  Gd3+  Gd8  1  0.47285790  0.75524536  0.05916012  1
  Gd3+  Gd9  1  0.26952500  0.26715370  0.47269558  1
  Gd3+  Gd10  1  0.00721800  0.74076482  0.23563791  1
  Gd3+  Gd11  1  0.00963651  0.26333362  -0.00509896  1
  Gd3+  Gd12  1  0.51602703  0.25469391  0.75677224  1
  Gd3+  Gd13  1  0.78184189  0.75720761  0.25054209  1
  Gd3+  Gd14  1  0.02479201  0.25543416  0.74359687  1
  Gd3+  Gd15  1  0.80321678  0.24490861  0.26003489  1
  Gd3+  Gd16  1  0.50407820  0.25119839  0.49844794  1
  Gd3+  Gd17  1  0.72696174  0.75924933  0.75978644  1
  Gd3+  Gd18  1  0.50829780  0.25484777  -0.00170586  1
  Ta5+  Ta19  1  0.87866904  0.11416095  0.87444709  1
  Ta5+  Ta20  1  0.64416426  0.88252120  0.11834610  1
  Ta5+  Ta21  1  0.62249515  0.64208720  0.36336706  1
  Ta5+  Ta22  1  0.41168825  0.63232864  0.87602270  1
  Ta5+  Ta23  1  0.88790799  0.87721906  0.07092527  1
  Ta5+  Ta24  1  0.88037700  0.89138938  0.39083548  1
  Ta5+  Ta25  1  0.87087698  0.88134060  0.63855773  1
  Ta5+  Ta26  1  0.91467066  0.07983299  0.37757419  1
  Ta5+  Ta27  1  0.15627379  0.11368351  0.37094492  1
  Ta5+  Ta28  1  0.40190888  0.85903973  0.87295613  1
  Ta5+  Ta29  1  0.58230347  0.87297749  0.62810608  1
  Ta5+  Ta30  1  0.15912286  0.61868565  0.13708438  1
  Ta5+  Ta31  1  0.60140198  0.39310674  0.16277826  1
  Ta5+  Ta32  1  0.36760766  0.86540156  0.62463067  1
  Ta5+  Ta33  1  0.11210923  0.87472267  0.11436221  1
  Ta5+  Ta34  1  0.65072532  0.40916202  0.83338650  1
  Ta5+  Ta35  1  0.36927055  0.10904491  0.63615139  1
  Ta5+  Ta36  1  0.89614459  0.40127550  0.12833986  1
  Ta5+  Ta37  1  0.31760946  0.61867178  0.36501965  1
  Ta5+  Ta38  1  0.86680807  0.62240759  0.85708836  1
  Ta5+  Ta39  1  0.86407932  0.63517352  0.05825839  1
  Ta5+  Ta40  1  0.13436485  0.37365552  0.13342007  1
  Ta5+  Ta41  1  0.09978161  0.12292005  0.13214619  1
  Ta5+  Ta42  1  0.87760145  0.12689656  0.63400360  1
  Ta5+  Ta43  1  0.15785676  0.37959128  0.87635912  1
  Ta5+  Ta44  1  0.62666743  0.11129436  0.12670851  1
  Ta5+  Ta45  1  0.36308608  0.36738170  0.64396240  1
  Ta5+  Ta46  1  0.86844812  0.63783776  0.61258691  1
  Ta5+  Ta47  1  0.07995718  0.87057771  0.89624303  1
  Ta5+  Ta48  1  0.35140900  0.39972279  0.87375934  1
  Ta5+  Ta49  1  0.35851259  0.61575148  0.62515321  1
  Ta5+  Ta50  1  0.07925278  0.60384826  0.90273052  1
  Ta5+  Ta51  1  0.04667266  0.62397590  0.57622055  1
  Ta5+  Ta52  1  0.40413088  0.08306926  0.38190035  1
  Ta5+  Ta53  1  0.89368096  0.38854004  0.61828654  1
  Ta5+  Ta54  1  0.16331514  0.11429325  0.63137164  1
  Ta5+  Ta55  1  0.14387064  0.11712693  0.88188489  1
  Ta5+  Ta56  1  0.32688943  0.61939633  0.13300951  1
  Ta5+  Ta57  1  0.36175721  0.37936533  0.11454397  1
  Ta5+  Ta58  1  0.86553867  0.37740933  0.86418849  1
  Ta5+  Ta59  1  0.14792986  0.39803436  0.36398881  1
  Ta5+  Ta60  1  0.31460491  0.85584389  0.37347090  1
  Ta5+  Ta61  1  0.38776392  0.10490510  0.87744899  1
  Ta5+  Ta62  1  0.91178912  0.87663176  0.86640394  1
  Ta5+  Ta63  1  0.56834920  0.86438546  0.87832164  1
  Ta5+  Ta64  1  0.63267320  0.63117223  0.12645009  1
  Ta5+  Ta65  1  0.88380983  0.64494051  0.41379197  1
  Ta5+  Ta66  1  0.38362026  0.12866185  0.13434668  1
  Ta5+  Ta67  1  0.14713575  0.86158284  0.37054486  1
  Ta5+  Ta68  1  0.60658020  0.61871258  0.62324710  1
  Ta5+  Ta69  1  0.15247516  0.63338523  0.35993895  1
  Ta5+  Ta70  1  0.67043395  0.09248718  0.87899506  1
  Ta5+  Ta71  1  0.41864602  0.40209843  0.34687829  1
  Ta5+  Ta72  1  0.62890535  0.40805012  0.36955536  1
  Ta5+  Ta73  1  0.66840467  0.38551182  0.62965708  1
  Ta5+  Ta74  1  0.61604919  0.09320640  0.37371549  1
  W6+  W75  1  0.90380477  0.39845823  0.38578845  1
  W6+  W76  1  0.12095395  0.86587085  0.62457884  1
  W6+  W77  1  0.31834479  0.89006435  0.12448337  1
  W6+  W78  1  0.62310874  0.12153843  0.63539768  1
  W6+  W79  1  0.93347266  0.11935550  0.12778908  1
  W6+  W80  1  0.13587649  0.39916245  0.62093412  1
  W6+  W81  1  0.57566840  0.63565962  0.88003534  1
  W6+  W82  1  0.58029414  0.88690605  0.36279698  1
  O2-  O83  1  0.10165331  0.00260108  0.11686866  1
  O2-  O84  1  0.15500361  -0.00587605  0.36436035  1
  O2-  O85  1  0.11981702  0.00318850  0.62349215  1
  O2-  O86  1  0.11172236  0.00245747  0.88767248  1
  O2-  O87  1  0.16711333  0.49129088  0.13074164  1
  O2-  O88  1  0.03386237  0.41872038  0.35004388  1
  O2-  O89  1  0.07250176  0.51364173  0.62011031  1
  O2-  O90  1  0.07849690  0.47974262  0.90505524  1
  O2-  O91  1  0.32145597  0.02704380  0.11454162  1
  O2-  O92  1  0.34194958  -0.01960071  0.39814162  1
  O2-  O93  1  0.38956511  -0.01202852  0.61117547  1
  O2-  O94  1  0.42107162  -0.01273105  0.88063059  1
  O2-  O95  1  0.34440201  0.49555618  0.08803996  1
  O2-  O96  1  0.36353616  0.49468635  0.39671713  1
  O2-  O97  1  0.35367158  0.49027284  0.63457190  1
  O2-  O98  1  0.41789425  0.50893276  0.88345057  1
  O2-  O99  1  0.66408984  0.00439714  0.07946210  1
  O2-  O100  1  0.66244174  -0.01527070  0.40525180  1
  O2-  O101  1  0.59141868  -0.00808884  0.62737213  1
  O2-  O102  1  0.61266554  -0.01163119  0.88717863  1
  O2-  O103  1  0.64113882  0.49829974  0.12242588  1
  O2-  O104  1  0.66597605  0.52076601  0.38619184  1
  O2-  O105  1  0.64369326  0.49893270  0.58809218  1
  O2-  O106  1  0.62811600  0.50722544  0.89451526  1
  O2-  O107  1  0.90383009  -0.01534486  0.11812985  1
  O2-  O108  1  0.82364156  -0.00902614  0.34909656  1
  O2-  O109  1  0.89543951  0.00743144  0.63686945  1
  O2-  O110  1  0.92705442  0.00311654  0.86569553  1
  O2-  O111  1  0.86327287  0.51895119  0.10828857  1
  O2-  O112  1  0.89958292  0.52729076  0.40754740  1
  O2-  O113  1  0.87501785  0.50619124  0.61978068  1
  O2-  O114  1  0.84242273  0.49638324  0.86439946  1
  O2-  O115  1  0.07190005  0.25331486  0.13217383  1
  O2-  O116  1  0.14269199  0.26553582  0.39358210  1
  O2-  O117  1  0.10392579  0.24693725  0.61802111  1
  O2-  O118  1  0.09426715  0.24829099  0.87637321  1
  O2-  O119  1  0.11807574  0.74383649  0.11436221  1
  O2-  O120  1  0.08838372  0.74828127  0.35839248  1
  O2-  O121  1  0.10949923  0.72252935  0.63435963  1
  O2-  O122  1  0.06692983  0.74270862  0.90477973  1
  O2-  O123  1  0.34005722  0.24440148  0.12318239  1
  O2-  O124  1  0.37597559  0.29150731  0.37258334  1
  O2-  O125  1  0.42227709  0.23985909  0.64321599  1
  O2-  O126  1  0.43749173  0.22112030  0.87213437  1
  O2-  O127  1  0.32840008  0.74979849  0.13050605  1
  O2-  O128  1  0.36882182  0.73522486  0.36214662  1
  O2-  O129  1  0.31330757  0.73745401  0.62970003  1
  O2-  O130  1  0.33141146  0.74332066  0.87208692  1
  O2-  O131  1  0.72487925  0.18166111  0.14276819  1
  O2-  O132  1  0.71543918  0.17042992  0.35352322  1
  O2-  O133  1  0.61143296  0.27190279  0.61926053  1
  O2-  O134  1  0.57788731  0.32471667  0.88342823  1
  O2-  O135  1  0.61428802  0.75637769  0.13793779  1
  O2-  O136  1  0.65504943  0.76433077  0.34598299  1
  O2-  O137  1  0.64350547  0.74351682  0.63227476  1
  O2-  O138  1  0.62967652  0.75519365  0.88317495  1
  O2-  O139  1  0.88145129  0.26875043  0.11686251  1
  O2-  O140  1  0.86893339  0.26775887  0.39603197  1
  O2-  O141  1  0.92537543  0.24591962  0.61622202  1
  O2-  O142  1  0.90113392  0.25139398  0.87513288  1
  O2-  O143  1  0.90513170  0.74560440  0.10744071  1
  O2-  O144  1  0.82702709  0.77080892  0.39950036  1
  O2-  O145  1  0.81882719  0.76216480  0.62799896  1
  O2-  O146  1  0.88433776  0.75012210  0.85080374  1
  O2-  O147  1  0.13196493  0.14554723  0.00566742  1
  O2-  O148  1  0.15129495  0.13499066  0.24638894  1
  O2-  O149  1  0.13043271  0.12729723  0.50198716  1
  O2-  O150  1  0.11653864  0.13609307  0.75375990  1
  O2-  O151  1  0.15571642  0.61914428  0.00127386  1
  O2-  O152  1  0.08896327  0.61352927  0.24335459  1
  O2-  O153  1  0.12508477  0.62669845  0.48063862  1
  O2-  O154  1  0.15839707  0.63269861  0.81343227  1
  O2-  O155  1  0.41274630  0.12467427  0.00046879  1
  O2-  O156  1  0.39364602  0.11175936  0.25729318  1
  O2-  O157  1  0.41573221  0.12743762  0.50610437  1
  O2-  O158  1  0.42740138  0.11025393  0.75026173  1
  O2-  O159  1  0.37417522  0.64927877  0.00247230  1
  O2-  O160  1  0.36365738  0.60057327  0.24883617  1
  O2-  O161  1  0.35315927  0.62863426  0.49855000  1
  O2-  O162  1  0.36263007  0.62892897  0.75527584  1
  O2-  O163  1  0.61993155  0.15481708  -0.01595182  1
  O2-  O164  1  0.61538079  0.08261717  0.24365243  1
  O2-  O165  1  0.62565038  0.14278308  0.49805744  1
  O2-  O166  1  0.61656006  0.14795618  0.78325152  1
  O2-  O167  1  0.56220537  0.63835244  0.02499898  1
  O2-  O168  1  0.59333785  0.61626791  0.24414022  1
  O2-  O169  1  0.60123023  0.65686619  0.48983961  1
  O2-  O170  1  0.61744992  0.61744609  0.74475700  1
  O2-  O171  1  0.94535751  0.13204136  -0.01676113  1
  O2-  O172  1  0.88960770  0.12826400  0.26581063  1
  O2-  O173  1  0.88504009  0.12208284  0.49573903  1
  O2-  O174  1  0.92130352  0.14232368  0.75276774  1
  O2-  O175  1  0.78785108  0.64209285  -0.03786417  1
  O2-  O176  1  0.88975287  0.66218974  0.28589485  1
  O2-  O177  1  0.78937459  0.64022879  0.50542474  1
  O2-  O178  1  0.81440637  0.63166509  0.74310102  1
  O2-  O179  1  0.14842506  0.35164591  0.00626281  1
  O2-  O180  1  0.18178484  0.35413050  0.24680727  1
  O2-  O181  1  0.18448096  0.39674940  0.48737999  1
  O2-  O182  1  0.11032255  0.37900115  0.76002334  1
  O2-  O183  1  0.17447818  0.87425463  -0.00264373  1
  O2-  O184  1  0.10432130  0.86744569  0.23885382  1
  O2-  O185  1  0.13750920  0.85986743  0.49149884  1
  O2-  O186  1  0.12194687  0.84750858  0.76964293  1
  O2-  O187  1  0.38615779  0.35279116  -0.01767171  1
  O2-  O188  1  0.36041298  0.39765221  0.23537838  1
  O2-  O189  1  0.38763528  0.34971155  0.52481349  1
  O2-  O190  1  0.41137745  0.36950898  0.76525790  1
  O2-  O191  1  0.37093125  0.85322520  0.00165969  1
  O2-  O192  1  0.31072470  0.87519909  0.25356323  1
  O2-  O193  1  0.36501100  0.84099223  0.49858488  1
  O2-  O194  1  0.34988729  0.86483404  0.75243478  1
  O2-  O195  1  0.64216739  0.32001442  0.07192147  1
  O2-  O196  1  0.67475626  0.34812016  0.26066581  1
  O2-  O197  1  0.67195342  0.33987068  0.46200421  1
  O2-  O198  1  0.58034768  0.40048606  0.72596651  1
  O2-  O199  1  0.56987516  0.86522416  0.01555754  1
  O2-  O200  1  0.59992513  0.90625425  0.22602907  1
  O2-  O201  1  0.57987775  0.84547338  0.49707609  1
  O2-  O202  1  0.60943117  0.86155050  0.75340140  1
  O2-  O203  1  0.89990508  0.37877401  -0.01075142  1
  O2-  O204  1  0.86450083  0.38815692  0.24783703  1
  O2-  O205  1  0.96213319  0.37905300  0.51617267  1
  O2-  O206  1  0.91927285  0.37260864  0.74560076  1
  O2-  O207  1  0.82587877  0.88690321  -0.03198225  1
  O2-  O208  1  0.90608170  0.84605878  0.27530406  1
  O2-  O209  1  0.82752787  0.89241675  0.51545696  1
  O2-  O210  1  0.82062159  0.88189795  0.75585892  1
  O2-  O211  1  0.00855289  -0.12707705  0.01985588  1
  O2-  O212  1  0.02468209  0.13664252  0.37498636  1
  O2-  O213  1  -0.02840729  -0.02770081  0.41829997  1
  O2-  O214  1  -0.01428774  -0.15251392  0.64342031  1
  O2-  O215  1  -0.04336738  0.61457517  -0.02328466  1
  O2-  O216  1  0.01437714  0.41342656  0.13235659  1
  O2-  O217  1  -0.04789127  0.69460573  0.51432207  1
  O2-  O218  1  -0.01756664  0.60408533  0.80899878  1
  O2-  O219  1  0.26581621  0.11338269  -0.12151189  1
  O2-  O220  1  0.27698981  0.13982766  0.38945102  1
  O2-  O221  1  0.27100042  0.17099813  0.58031891  1
  O2-  O222  1  0.26557108  0.07212219  0.69759882  1
  O2-  O223  1  0.24873575  0.46877168  -0.11915501  1
  O2-  O224  1  0.20255901  0.50946547  0.34527969  1
  O2-  O225  1  0.25092960  0.33414262  0.65070778  1
  O2-  O226  1  0.26161402  0.31055789  0.85263585  1
  O2-  O227  1  0.51175617  0.16433328  0.12630150  1
  O2-  O228  1  0.51405984  0.17281039  0.37314664  1
  O2-  O229  1  0.50564220  0.00791234  0.37337726  1
  O2-  O230  1  0.47560181  -0.19853537  0.63192282  1
  O2-  O231  1  0.48827602  0.36361543  0.11429984  1
  O2-  O232  1  0.53124033  0.42348327  0.27379444  1
  O2-  O233  1  0.52022061  0.38844564  0.43056512  1
  O2-  O234  1  0.48511367  0.61979987  0.61672274  1
  O2-  O235  1  0.77670067  0.13385110  -0.04654601  1
  O2-  O236  1  0.76589662  -0.14457066  0.13391810  1
  O2-  O237  1  0.76180221  0.15389556  0.62911359  1
  O2-  O238  1  0.77362375  0.07011526  0.81035322  1
  O2-  O239  1  0.74836012  0.34242102  -0.10745408  1
  O2-  O240  1  0.75568446  0.65238964  0.14050628  1
  O2-  O241  1  0.78338189  0.34572905  0.58267628  1
  O2-  O242  1  0.74087412  0.40353637  0.73354017  1
