# generated using pymatgen
data_Gd19Ta56(WO20)8
_symmetry_space_group_name_H-M   'P 1'
_cell_length_a   15.47138564
_cell_length_b   15.50447852
_cell_length_c   15.31433686
_cell_angle_alpha   89.95600139
_cell_angle_beta   89.83618506
_cell_angle_gamma   90.06876440
_symmetry_Int_Tables_number   1
_chemical_formula_structural   Gd19Ta56(WO20)8
_chemical_formula_sum   'Gd19 Ta56 W8 O160'
_cell_volume   3673.51953630
_cell_formula_units_Z   1
loop_
 _symmetry_equiv_pos_site_id
 _symmetry_equiv_pos_as_xyz
  1  'x, y, z'
loop_
 _atom_type_symbol
 _atom_type_oxidation_number
  Gd3+  3.0
  Ta5+  5.0
  W6+  6.0
  O2-  -2.0
loop_
 _atom_site_type_symbol
 _atom_site_label
 _atom_site_symmetry_multiplicity
 _atom_site_fract_x
 _atom_site_fract_y
 _atom_site_fract_z
 _atom_site_occupancy
  Gd3+  Gd0  1  0.48803369  0.25438544  0.51237808  1
  Gd3+  Gd1  1  0.19055433  0.70702743  -0.01074917  1
  Gd3+  Gd2  1  0.77488495  0.77414819  0.00226606  1
  Gd3+  Gd3  1  0.48486109  0.24480140  0.27923167  1
  Gd3+  Gd4  1  0.25550362  0.29744068  0.48295082  1
  Gd3+  Gd5  1  0.75870803  0.26321397  0.00920026  1
  Gd3+  Gd6  1  0.44473413  0.74188652  0.00555798  1
  Gd3+  Gd7  1  0.79279828  0.24376946  0.25698645  1
  Gd3+  Gd8  1  0.75012453  0.75769196  0.25237579  1
  Gd3+  Gd9  1  0.23711292  0.24614755  0.23104629  1
  Gd3+  Gd10  1  0.49624931  0.74700202  0.24010605  1
  Gd3+  Gd11  1  0.21271625  0.76492769  0.51934623  1
  Gd3+  Gd12  1  -0.00798685  0.25609937  0.51609736  1
  Gd3+  Gd13  1  0.51104186  0.75340890  0.75166383  1
  Gd3+  Gd14  1  0.49628559  0.26128151  0.75669592  1
  Gd3+  Gd15  1  0.24795058  0.76608276  0.23406410  1
  Gd3+  Gd16  1  0.01440747  0.74174650  0.76539800  1
  Gd3+  Gd17  1  0.24735765  0.23552444  0.76764930  1
  Gd3+  Gd18  1  0.24908748  0.76915959  0.75876840  1
  Ta5+  Ta19  1  0.62685245  0.62496120  0.89780197  1
  Ta5+  Ta20  1  0.35329417  0.10117283  0.62504564  1
  Ta5+  Ta21  1  0.12778977  0.13578102  0.62442479  1
  Ta5+  Ta22  1  0.10427235  0.90074319  0.31676114  1
  Ta5+  Ta23  1  0.36508331  0.37473117  0.89303808  1
  Ta5+  Ta24  1  0.87976881  0.38848091  0.63249120  1
  Ta5+  Ta25  1  0.09320008  0.60248321  0.36735810  1
  Ta5+  Ta26  1  0.13514142  0.38064467  0.64107516  1
  Ta5+  Ta27  1  0.08664530  0.35853313  0.11763145  1
  Ta5+  Ta28  1  0.59702436  0.35461709  0.13004927  1
  Ta5+  Ta29  1  0.63983543  0.12287039  0.38296391  1
  Ta5+  Ta30  1  0.60689948  0.92160392  0.13261881  1
  Ta5+  Ta31  1  0.27463800  0.45803766  0.69748693  1
  Ta5+  Ta32  1  0.13896439  0.57799817  0.16757981  1
  Ta5+  Ta33  1  0.08240005  0.35785716  0.36606259  1
  Ta5+  Ta34  1  0.08306151  0.13597129  0.88387078  1
  Ta5+  Ta35  1  0.38272536  0.87158528  0.62333772  1
  Ta5+  Ta36  1  0.38720181  0.90940133  0.12416363  1
  Ta5+  Ta37  1  0.34882609  0.58168077  0.13744077  1
  Ta5+  Ta38  1  0.92471375  0.13608302  0.10414982  1
  Ta5+  Ta39  1  0.10774968  0.34731655  0.88258892  1
  Ta5+  Ta40  1  0.61929700  0.61877514  0.39203568  1
  Ta5+  Ta41  1  0.92081009  0.37244297  0.12537316  1
  Ta5+  Ta42  1  0.93885663  0.61793975  0.13290488  1
  Ta5+  Ta43  1  0.90809934  0.38589872  0.37130490  1
  Ta5+  Ta44  1  0.09846849  0.88994167  0.12763913  1
  Ta5+  Ta45  1  0.85151547  0.13324727  0.62277070  1
  Ta5+  Ta46  1  0.60583874  0.15137959  0.13014367  1
  Ta5+  Ta47  1  0.34511493  0.88203562  0.37981753  1
  Ta5+  Ta48  1  0.36761663  0.90032246  0.87570723  1
  Ta5+  Ta49  1  0.85879707  0.14925719  0.85717167  1
  Ta5+  Ta50  1  0.59697683  0.87778719  0.39064391  1
  Ta5+  Ta51  1  0.09590851  0.13715221  0.36595892  1
  Ta5+  Ta52  1  0.86840500  0.63339285  0.88363380  1
  Ta5+  Ta53  1  0.38107382  0.61562955  0.63259017  1
  Ta5+  Ta54  1  0.92568199  0.12761192  0.36579708  1
  Ta5+  Ta55  1  0.89304586  0.88322690  0.38438315  1
  Ta5+  Ta56  1  0.63568196  0.37945305  0.62298206  1
  Ta5+  Ta57  1  0.42258451  0.44782188  0.37378415  1
  Ta5+  Ta58  1  0.13489012  0.57917222  0.67333979  1
  Ta5+  Ta59  1  0.36758992  0.62804881  0.38255363  1
  Ta5+  Ta60  1  0.90706880  0.39490035  0.88216519  1
  Ta5+  Ta61  1  0.13714005  0.93215438  0.64653202  1
  Ta5+  Ta62  1  0.38401888  0.10679855  0.88010447  1
  Ta5+  Ta63  1  0.62766703  0.62428225  0.64157877  1
  Ta5+  Ta64  1  0.61629035  0.11546370  0.62125363  1
  Ta5+  Ta65  1  0.64424630  0.37227256  0.38019648  1
  Ta5+  Ta66  1  0.86076038  0.90132405  0.86822527  1
  Ta5+  Ta67  1  0.86546390  0.63379576  0.38074040  1
  Ta5+  Ta68  1  0.64033402  0.87353253  0.63738394  1
  Ta5+  Ta69  1  0.43717495  0.11261954  0.12708334  1
  Ta5+  Ta70  1  0.35915786  0.11123517  0.36846288  1
  Ta5+  Ta71  1  0.86881350  0.63161124  0.62929237  1
  Ta5+  Ta72  1  0.89984274  0.90131241  0.15352506  1
  Ta5+  Ta73  1  0.15202605  0.50434536  0.83245916  1
  Ta5+  Ta74  1  0.58962334  0.60228558  0.09958831  1
  W6+  W75  1  0.60609049  0.12435282  0.88274093  1
  W6+  W76  1  0.34066269  0.61899860  0.87858080  1
  W6+  W77  1  0.62068084  0.37836823  0.87715231  1
  W6+  W78  1  0.42344676  0.35305199  0.12671091  1
  W6+  W79  1  0.89000714  0.88389272  0.63240796  1
  W6+  W80  1  0.08547105  0.13273857  0.11715166  1
  W6+  W81  1  0.11918824  0.88798871  0.89158691  1
  W6+  W82  1  0.61496486  0.88399437  0.89186859  1
  O2-  O83  1  0.07701998  0.00336328  0.09139177  1
  O2-  O84  1  0.10796394  0.01026216  0.36956107  1
  O2-  O85  1  0.06226237  0.02790124  0.62962227  1
  O2-  O86  1  0.10562147  0.02236270  0.89663337  1
  O2-  O87  1  0.11241080  0.47828768  0.10057359  1
  O2-  O88  1  0.09478973  0.48361522  0.38324986  1
  O2-  O89  1  0.07661152  0.48878566  0.61095155  1
  O2-  O90  1  0.22532701  0.39226504  0.89632940  1
  O2-  O91  1  0.33487782  0.01609868  0.12982992  1
  O2-  O92  1  0.30890475  -0.00389463  0.36630588  1
  O2-  O93  1  0.41263190  -0.00353065  0.62731590  1
  O2-  O94  1  0.43793052  -0.00162239  0.84267443  1
  O2-  O95  1  0.42090142  0.49110961  0.11879677  1
  O2-  O96  1  0.31490491  0.51626348  0.37245226  1
  O2-  O97  1  0.40392007  0.50072923  0.65415428  1
  O2-  O98  1  0.48589233  0.35990722  0.87182206  1
  O2-  O99  1  0.66160921  0.02757689  0.13567755  1
  O2-  O100  1  0.63045403  -0.00350127  0.38181917  1
  O2-  O101  1  0.61212989  -0.00367153  0.61259116  1
  O2-  O102  1  0.64614332  0.01297990  0.89339136  1
  O2-  O103  1  0.60493859  0.48710157  0.12724172  1
  O2-  O104  1  0.63401997  0.49633331  0.37848314  1
  O2-  O105  1  0.62579339  0.50133249  0.62103780  1
  O2-  O106  1  0.64903986  0.50891601  0.89766600  1
  O2-  O107  1  0.88889310  0.01540006  0.11227975  1
  O2-  O108  1  0.90269501  0.00777912  0.37229509  1
  O2-  O109  1  0.87809813  0.02104078  0.64372432  1
  O2-  O110  1  0.85097748  0.02044503  0.85585606  1
  O2-  O111  1  0.92173555  0.50044939  0.12800737  1
  O2-  O112  1  0.87799634  0.51294018  0.36708029  1
  O2-  O113  1  0.89613586  0.51196751  0.62110247  1
  O2-  O114  1  0.86380381  0.51025149  0.89835795  1
  O2-  O115  1  0.15204412  0.24772830  0.10906908  1
  O2-  O116  1  0.16800727  0.25048324  0.36828905  1
  O2-  O117  1  0.20013830  0.24567951  0.62051218  1
  O2-  O118  1  0.17044690  0.22391789  0.90082827  1
  O2-  O119  1  0.22030351  0.66820193  0.12824190  1
  O2-  O120  1  0.20938718  0.85037110  0.37591429  1
  O2-  O121  1  0.14625268  0.71225854  0.66711208  1
  O2-  O122  1  0.13505275  0.75619376  0.86109498  1
  O2-  O123  1  0.37833907  0.22004225  0.15738270  1
  O2-  O124  1  0.34030010  0.23238424  0.34709183  1
  O2-  O125  1  0.41269405  0.21240356  0.63733456  1
  O2-  O126  1  0.37272830  0.23128893  0.85723637  1
  O2-  O127  1  0.32545313  0.80224297  0.10671761  1
  O2-  O128  1  0.33529522  0.74863605  0.38388463  1
  O2-  O129  1  0.32629766  0.75145361  0.61858793  1
  O2-  O130  1  0.32954277  0.76284228  0.90285433  1
  O2-  O131  1  0.68752639  0.25865120  0.14993050  1
  O2-  O132  1  0.59397791  0.24856163  0.39520195  1
  O2-  O133  1  0.59164408  0.25296909  0.62139999  1
  O2-  O134  1  0.61544128  0.24507288  0.85105825  1
  O2-  O135  1  0.62600669  0.67128775  0.19985898  1
  O2-  O136  1  0.58508223  0.74193190  0.36409089  1
  O2-  O137  1  0.63730051  0.74919463  0.65356108  1
  O2-  O138  1  0.56384892  0.75084384  0.89592201  1
  O2-  O139  1  0.86423582  0.25093729  0.11855336  1
  O2-  O140  1  0.90401767  0.25587324  0.37411675  1
  O2-  O141  1  0.90236307  0.25568249  0.63394740  1
  O2-  O142  1  0.84761459  0.27717763  0.87635716  1
  O2-  O143  1  0.81207608  0.80866653  0.13308430  1
  O2-  O144  1  0.84025822  0.76359851  0.36830749  1
  O2-  O145  1  0.92446368  0.74374294  0.63547412  1
  O2-  O146  1  0.91832661  0.74713526  0.88723772  1
  O2-  O147  1  0.01740935  0.14999478  -0.00191764  1
  O2-  O148  1  0.13517019  0.13873525  0.24313311  1
  O2-  O149  1  0.10138133  0.15020127  0.49976616  1
  O2-  O150  1  0.13108744  0.13913760  0.75308645  1
  O2-  O151  1  0.21061243  0.58301227  -0.08724900  1
  O2-  O152  1  0.18275405  0.63651424  0.28660632  1
  O2-  O153  1  0.15505729  0.65204383  0.45950825  1
  O2-  O154  1  0.06810401  0.59500239  0.78203582  1
  O2-  O155  1  0.41058870  0.11198742  -0.00171237  1
  O2-  O156  1  0.43147080  0.09668587  0.26861145  1
  O2-  O157  1  0.37307918  0.12782983  0.49641424  1
  O2-  O158  1  0.32714244  0.10683555  0.75074384  1
  O2-  O159  1  0.33947153  0.62979104  0.02159512  1
  O2-  O160  1  0.36688454  0.65354011  0.24737454  1
  O2-  O161  1  0.37870868  0.62460729  0.50503373  1
  O2-  O162  1  0.37465810  0.66319610  0.75444164  1
  O2-  O163  1  0.64070917  0.16139625  0.00751870  1
  O2-  O164  1  0.60628132  0.13984840  0.26580688  1
  O2-  O165  1  0.57047378  0.12562500  0.50124126  1
  O2-  O166  1  0.56674338  0.12431832  0.73610553  1
  O2-  O167  1  0.67787152  0.65552826  0.02800978  1
  O2-  O168  1  0.73249449  0.63656674  0.34973503  1
  O2-  O169  1  0.63238752  0.63496751  0.50929368  1
  O2-  O170  1  0.60075845  0.62672806  0.77281140  1
  O2-  O171  1  0.84200369  0.14239197  -0.01412465  1
  O2-  O172  1  0.90511889  0.14166659  0.23561505  1
  O2-  O173  1  0.90088346  0.13788525  0.50337370  1
  O2-  O174  1  0.80397358  0.15565951  0.74662404  1
  O2-  O175  1  0.87716864  0.64831770  0.02784087  1
  O2-  O176  1  0.86960245  0.65579105  0.23046849  1
  O2-  O177  1  0.84663480  0.63766057  0.50291098  1
  O2-  O178  1  0.89503224  0.62892011  0.76225493  1
  O2-  O179  1  0.05282240  0.33667197  -0.00478387  1
  O2-  O180  1  0.12111980  0.35420483  0.24474392  1
  O2-  O181  1  0.11255775  0.34518027  0.49781241  1
  O2-  O182  1  0.10569975  0.32079667  0.75406178  1
  O2-  O183  1  0.15412261  0.84796728  0.02409112  1
  O2-  O184  1  0.10462818  0.79551703  0.22869827  1
  O2-  O185  1  0.11146787  0.86041759  0.55520592  1
  O2-  O186  1  0.09681764  0.88038689  0.74869017  1
  O2-  O187  1  0.36130490  0.33850228  0.00761497  1
  O2-  O188  1  0.42447288  0.38582649  0.27248673  1
  O2-  O189  1  0.39935094  0.36515650  0.46149401  1
  O2-  O190  1  0.33420358  0.35983830  0.76069819  1
  O2-  O191  1  0.40941200  0.89977054  -0.00591537  1
  O2-  O192  1  0.38307188  0.86423477  0.25374293  1
  O2-  O193  1  0.33324378  0.87979547  0.50598536  1
  O2-  O194  1  0.39118334  0.84663999  0.75585621  1
  O2-  O195  1  0.63622018  0.35414594  0.01055525  1
  O2-  O196  1  0.60385100  0.35886288  0.26372946  1
  O2-  O197  1  0.58919960  0.37423619  0.50333906  1
  O2-  O198  1  0.58916156  0.37936081  0.73673624  1
  O2-  O199  1  0.65817038  0.86848461  0.03288555  1
  O2-  O200  1  0.62409032  0.86660918  0.25031932  1
  O2-  O201  1  0.63918334  0.85692047  0.50070210  1
  O2-  O202  1  0.59165467  0.87892045  0.75473157  1
  O2-  O203  1  0.87599628  0.37506478  0.00537032  1
  O2-  O204  1  0.87790729  0.36797115  0.24510220  1
  O2-  O205  1  0.90567025  0.37946836  0.50403191  1
  O2-  O206  1  0.89311874  0.39340912  0.75410275  1
  O2-  O207  1  0.87138365  0.88915859  -0.01082047  1
  O2-  O208  1  0.83391110  0.89353594  0.26642605  1
  O2-  O209  1  0.85765998  0.88779925  0.49861877  1
  O2-  O210  1  0.92519469  0.87010207  0.76571463  1
  O2-  O211  1  -0.01258323  -0.16812112  0.10067179  1
  O2-  O212  1  0.00158349  -0.07173736  0.23132167  1
  O2-  O213  1  0.01044005  -0.14978469  0.38771267  1
  O2-  O214  1  -0.02532688  0.15433622  0.82408659  1
  O2-  O215  1  0.05614863  0.64417401  0.08586432  1
  O2-  O216  1  0.03528680  0.58412748  0.23932819  1
  O2-  O217  1  -0.01413988  0.65991804  0.38951086  1
  O2-  O218  1  0.02301497  0.44438054  0.86189922  1
  O2-  O219  1  0.25016394  -0.08871752  -0.14276759  1
  O2-  O220  1  0.18541537  -0.07232422  0.21578202  1
  O2-  O221  1  0.23532832  0.06793732  0.60010720  1
  O2-  O222  1  0.25611019  -0.09855237  0.66594966  1
  O2-  O223  1  0.37606744  0.49276472  -0.10682676  1
  O2-  O224  1  0.25527808  0.51669961  0.18194884  1
  O2-  O225  1  0.25341329  0.40241840  0.58185009  1
  O2-  O226  1  0.25618428  0.58003280  0.63081309  1
  O2-  O227  1  0.50545797  -0.17188274  0.11944721  1
  O2-  O228  1  0.49793365  -0.01351128  0.13891819  1
  O2-  O229  1  0.47683101  -0.11432059  0.39745262  1
  O2-  O230  1  0.49749360  -0.16083070  0.61161839  1
  O2-  O231  1  0.52918134  0.60863185  -0.01909362  1
  O2-  O232  1  0.47586554  0.65447292  0.12785089  1
  O2-  O233  1  0.48662710  0.57520470  0.36704817  1
  O2-  O234  1  0.50284689  0.65101718  0.63399637  1
  O2-  O235  1  0.74997686  -0.14905302  -0.13481837  1
  O2-  O236  1  0.75678854  0.14429653  0.37128048  1
  O2-  O237  1  0.73281771  0.13751694  0.58752378  1
  O2-  O238  1  0.75602253  -0.11571650  0.65644052  1
  O2-  O239  1  0.75020299  0.66423268  -0.12134227  1
  O2-  O240  1  0.76206183  0.35462893  0.37446962  1
  O2-  O241  1  0.75576790  0.36869259  0.62291773  1
  O2-  O242  1  0.75236338  0.62487067  0.65922374  1
