# generated using pymatgen
data_Gd19Ta56(WO20)8
_symmetry_space_group_name_H-M   'P 1'
_cell_length_a   15.56497855
_cell_length_b   15.45599143
_cell_length_c   15.20677247
_cell_angle_alpha   90.13959021
_cell_angle_beta   89.62264021
_cell_angle_gamma   90.30082899
_symmetry_Int_Tables_number   1
_chemical_formula_structural   Gd19Ta56(WO20)8
_chemical_formula_sum   'Gd19 Ta56 W8 O160'
_cell_volume   3658.18601002
_cell_formula_units_Z   1
loop_
 _symmetry_equiv_pos_site_id
 _symmetry_equiv_pos_as_xyz
  1  'x, y, z'
loop_
 _atom_type_symbol
 _atom_type_oxidation_number
  Gd3+  3.0
  Ta5+  5.0
  W6+  6.0
  O2-  -2.0
loop_
 _atom_site_type_symbol
 _atom_site_label
 _atom_site_symmetry_multiplicity
 _atom_site_fract_x
 _atom_site_fract_y
 _atom_site_fract_z
 _atom_site_occupancy
  Gd3+  Gd0  1  0.73893378  0.25793698  -0.00602597  1
  Gd3+  Gd1  1  0.74159353  0.75071656  -0.00762447  1
  Gd3+  Gd2  1  0.25600938  0.74879542  0.23502080  1
  Gd3+  Gd3  1  -0.00297317  0.26730953  0.74432600  1
  Gd3+  Gd4  1  0.00064875  0.76010193  0.00984483  1
  Gd3+  Gd5  1  0.74018662  0.76615167  0.50616376  1
  Gd3+  Gd6  1  0.24288837  0.74589472  0.49383317  1
  Gd3+  Gd7  1  0.50321156  0.22756033  0.48605251  1
  Gd3+  Gd8  1  0.76353133  0.76567671  0.76127992  1
  Gd3+  Gd9  1  0.48433138  0.25004042  0.24010958  1
  Gd3+  Gd10  1  0.48941108  0.74095136  0.49465782  1
  Gd3+  Gd11  1  0.52217520  0.74260881  -0.04829523  1
  Gd3+  Gd12  1  0.73184313  0.22786907  0.26601618  1
  Gd3+  Gd13  1  0.51734291  0.24296712  0.73107316  1
  Gd3+  Gd14  1  0.75646842  0.26534169  0.75706136  1
  Gd3+  Gd15  1  0.24011692  0.23071980  -0.00956540  1
  Gd3+  Gd16  1  0.01418195  0.74106423  0.75755421  1
  Gd3+  Gd17  1  0.71834506  0.20829120  0.49789645  1
  Gd3+  Gd18  1  0.74204307  0.76728714  0.24038053  1
  Ta5+  Ta19  1  0.37187531  0.61025425  0.87861366  1
  Ta5+  Ta20  1  0.10106498  0.36831996  0.37102502  1
  Ta5+  Ta21  1  0.37536577  0.37880998  0.62428298  1
  Ta5+  Ta22  1  0.37547155  0.61185822  0.36902340  1
  Ta5+  Ta23  1  0.65310766  0.60814423  0.85001589  1
  Ta5+  Ta24  1  0.59182074  0.37293999  0.87656405  1
  Ta5+  Ta25  1  0.37406903  0.61827639  0.63566855  1
  Ta5+  Ta26  1  0.07406572  0.12685525  0.88523357  1
  Ta5+  Ta27  1  0.86794690  0.89585097  0.37619875  1
  Ta5+  Ta28  1  0.42328705  0.86958055  0.12173284  1
  Ta5+  Ta29  1  0.40159056  0.61813695  0.11824264  1
  Ta5+  Ta30  1  0.62536802  0.38723389  0.38651554  1
  Ta5+  Ta31  1  0.64518912  0.61630438  0.12122968  1
  Ta5+  Ta32  1  0.34316033  0.36741142  0.37041911  1
  Ta5+  Ta33  1  0.86957883  0.90181215  0.12392658  1
  Ta5+  Ta34  1  0.85528266  0.39066835  0.35248971  1
  Ta5+  Ta35  1  0.40998368  0.90280116  0.36467592  1
  Ta5+  Ta36  1  0.42523635  0.36979304  0.87801463  1
  Ta5+  Ta37  1  0.89039494  0.91349054  0.87772584  1
  Ta5+  Ta38  1  0.88556489  0.56514895  0.89418383  1
  Ta5+  Ta39  1  0.41754406  0.11704662  0.87037389  1
  Ta5+  Ta40  1  0.13121910  0.61650515  0.62816716  1
  Ta5+  Ta41  1  0.63466431  0.38528956  0.60944755  1
  Ta5+  Ta42  1  0.12302545  0.12270342  0.63445759  1
  Ta5+  Ta43  1  0.84937805  0.62164584  0.11485813  1
  Ta5+  Ta44  1  0.33363449  0.12492761  0.37471903  1
  Ta5+  Ta45  1  0.60625405  0.87882157  0.37265369  1
  Ta5+  Ta46  1  0.11418807  0.88660151  0.14485213  1
  Ta5+  Ta47  1  0.10033996  0.36934297  0.88955941  1
  Ta5+  Ta48  1  0.63967649  0.04426335  0.36853629  1
  Ta5+  Ta49  1  0.65366527  0.92304371  0.88245724  1
  Ta5+  Ta50  1  0.88341554  0.14008911  0.37615000  1
  Ta5+  Ta51  1  0.63152429  0.10721925  0.87439294  1
  Ta5+  Ta52  1  0.58973809  0.87222395  0.12127314  1
  Ta5+  Ta53  1  0.11052200  0.88363337  0.38653715  1
  Ta5+  Ta54  1  0.61272725  0.11090608  0.12309660  1
  Ta5+  Ta55  1  0.94097008  0.33404446  0.94785226  1
  Ta5+  Ta56  1  0.85030350  0.11869958  0.62429522  1
  Ta5+  Ta57  1  0.90211173  0.88265211  0.62030570  1
  Ta5+  Ta58  1  0.88776137  0.63883418  0.35519677  1
  Ta5+  Ta59  1  0.13118373  0.61814547  0.89553598  1
  Ta5+  Ta60  1  0.60823071  0.37631713  0.13077974  1
  Ta5+  Ta61  1  0.37344692  0.11365443  0.11805012  1
  Ta5+  Ta62  1  0.10671565  0.12532705  0.13508335  1
  Ta5+  Ta63  1  0.90803960  0.15793367  0.88609854  1
  Ta5+  Ta64  1  0.13743654  0.88316345  0.88550558  1
  Ta5+  Ta65  1  0.15791956  0.87622357  0.63715849  1
  Ta5+  Ta66  1  0.87032128  0.13665132  0.11831806  1
  Ta5+  Ta67  1  0.88422346  0.37901931  0.11220215  1
  Ta5+  Ta68  1  0.84748247  0.38613775  0.58775959  1
  Ta5+  Ta69  1  0.63267554  0.62584939  0.64765163  1
  Ta5+  Ta70  1  0.89972308  0.62711135  0.56659486  1
  Ta5+  Ta71  1  0.38156507  0.87535607  0.86994356  1
  Ta5+  Ta72  1  0.35480212  0.12830043  0.62626990  1
  Ta5+  Ta73  1  0.13518198  0.37783402  0.62638427  1
  Ta5+  Ta74  1  0.36592714  0.36978719  0.10885671  1
  W6+  W75  1  0.40866321  0.88624820  0.62955304  1
  W6+  W76  1  0.09349452  0.61941812  0.37859834  1
  W6+  W77  1  0.07868227  0.13529343  0.39036541  1
  W6+  W78  1  0.61834168  0.06121900  0.68182323  1
  W6+  W79  1  0.10139978  0.61629792  0.15306311  1
  W6+  W80  1  0.11467735  0.37095877  0.11855536  1
  W6+  W81  1  0.61188984  0.87831304  0.63780579  1
  W6+  W82  1  0.63372527  0.63424182  0.37950065  1
  O2-  O83  1  0.15112983  0.00547008  0.13739410  1
  O2-  O84  1  0.11053947  0.00247182  0.38751177  1
  O2-  O85  1  0.14865398  0.00126494  0.64521568  1
  O2-  O86  1  0.10769108  -0.00126799  0.87363577  1
  O2-  O87  1  0.08711300  0.49452573  0.12135408  1
  O2-  O88  1  0.06417021  0.48211828  0.37833657  1
  O2-  O89  1  0.10028202  0.49657414  0.63814820  1
  O2-  O90  1  0.10826234  0.50064864  0.89665162  1
  O2-  O91  1  0.38782707  -0.00772711  0.11498326  1
  O2-  O92  1  0.33163807  0.00263253  0.37812880  1
  O2-  O93  1  0.35561289  0.01186971  0.62682801  1
  O2-  O94  1  0.37638251  -0.00036248  0.86904354  1
  O2-  O95  1  0.36721126  0.49568772  0.10441459  1
  O2-  O96  1  0.35107642  0.49027076  0.37965034  1
  O2-  O97  1  0.40899650  0.49622116  0.61054926  1
  O2-  O98  1  0.38240546  0.48973315  0.88875039  1
  O2-  O99  1  0.62522288  -0.00758654  0.10790111  1
  O2-  O100  1  0.72420321  -0.05957831  0.38679837  1
  O2-  O101  1  0.52610371  -0.03088416  0.62014000  1
  O2-  O102  1  0.72591401  0.02103809  0.90008904  1
  O2-  O103  1  0.64780838  0.49061158  0.12395918  1
  O2-  O104  1  0.62963541  0.50487690  0.39838591  1
  O2-  O105  1  0.61938309  0.50728263  0.61115361  1
  O2-  O106  1  0.63492166  0.49088366  0.87361090  1
  O2-  O107  1  0.83051531  0.01658741  0.12694722  1
  O2-  O108  1  0.89492625  0.01396319  0.37709592  1
  O2-  O109  1  0.90257236  0.00522320  0.63205449  1
  O2-  O110  1  0.92517717  0.02723728  0.85723192  1
  O2-  O111  1  0.86745274  0.50255587  0.12790411  1
  O2-  O112  1  0.86203294  0.51344839  0.35296854  1
  O2-  O113  1  0.86311379  0.51497901  0.59894731  1
  O2-  O114  1  0.91427885  0.45009186  0.88146303  1
  O2-  O115  1  0.15697513  0.23922588  0.11692484  1
  O2-  O116  1  0.03620133  0.26757378  0.39489730  1
  O2-  O117  1  0.10020952  0.25744227  0.64071274  1
  O2-  O118  1  0.13317032  0.24061244  0.87180191  1
  O2-  O119  1  0.13707406  0.76166853  0.14194622  1
  O2-  O120  1  0.13670567  0.75435631  0.39307420  1
  O2-  O121  1  0.14405035  0.74592322  0.62555446  1
  O2-  O122  1  0.10227671  0.75420345  0.88999002  1
  O2-  O123  1  0.33604895  0.24123601  0.12184030  1
  O2-  O124  1  0.40753754  0.24828468  0.37072697  1
  O2-  O125  1  0.42254426  0.25188621  0.61594907  1
  O2-  O126  1  0.45140216  0.24185843  0.87244637  1
  O2-  O127  1  0.36179168  0.74162552  0.11890764  1
  O2-  O128  1  0.31450499  0.72156218  0.36742941  1
  O2-  O129  1  0.42267475  0.73354384  0.63009180  1
  O2-  O130  1  0.39748851  0.74195481  0.87012302  1
  O2-  O131  1  0.62704189  0.24873226  0.16028322  1
  O2-  O132  1  0.62547133  0.25624851  0.38371290  1
  O2-  O133  1  0.61283766  0.25559319  0.60332663  1
  O2-  O134  1  0.63715142  0.24931310  0.85742313  1
  O2-  O135  1  0.65332616  0.75204905  0.11594683  1
  O2-  O136  1  0.67630809  0.76337233  0.37267610  1
  O2-  O137  1  0.67652642  0.75423179  0.64613154  1
  O2-  O138  1  0.64582952  0.74133838  0.85609463  1
  O2-  O139  1  0.81305767  0.25502343  0.13227018  1
  O2-  O140  1  0.82849447  0.25851665  0.38431868  1
  O2-  O141  1  0.81268678  0.25251877  0.61035063  1
  O2-  O142  1  0.84925744  0.27846247  0.86764204  1
  O2-  O143  1  0.85347978  0.76821983  0.10025098  1
  O2-  O144  1  0.85092255  0.76173931  0.37255442  1
  O2-  O145  1  0.86063987  0.74244055  0.61784696  1
  O2-  O146  1  0.94210588  0.79601324  0.87881643  1
  O2-  O147  1  0.13013893  0.12267361  -0.00136672  1
  O2-  O148  1  0.09063790  0.13712491  0.25430948  1
  O2-  O149  1  0.06745310  0.11947848  0.53036065  1
  O2-  O150  1  0.06475717  0.12778625  0.74680779  1
  O2-  O151  1  0.08772278  0.64106402  0.01195143  1
  O2-  O152  1  0.17312755  0.62744466  0.26303993  1
  O2-  O153  1  0.16236128  0.61665681  0.50669314  1
  O2-  O154  1  0.11576397  0.63485723  0.76839742  1
  O2-  O155  1  0.36588446  0.13124738  -0.01548744  1
  O2-  O156  1  0.37516693  0.12726162  0.25304145  1
  O2-  O157  1  0.38518925  0.13461996  0.49444565  1
  O2-  O158  1  0.36898116  0.14693759  0.75073411  1
  O2-  O159  1  0.43312703  0.62734228  -0.01156806  1
  O2-  O160  1  0.36364212  0.61625616  0.24304101  1
  O2-  O161  1  0.36019544  0.63561055  0.50270331  1
  O2-  O162  1  0.39736215  0.60366875  0.75700102  1
  O2-  O163  1  0.63319644  0.14715683  0.00038757  1
  O2-  O164  1  0.61252519  0.10509305  0.25941706  1
  O2-  O165  1  0.59158830  0.10914522  0.46211594  1
  O2-  O166  1  0.52736555  0.10450200  0.78808647  1
  O2-  O167  1  0.62610504  0.63485179  -0.01319551  1
  O2-  O168  1  0.65791190  0.63566316  0.24509379  1
  O2-  O169  1  0.61235668  0.66078793  0.52180890  1
  O2-  O170  1  0.72818944  0.61548222  0.73180820  1
  O2-  O171  1  0.83732363  0.13912636  -0.00416668  1
  O2-  O172  1  0.87243315  0.14702741  0.24982029  1
  O2-  O173  1  0.88812480  0.14045989  0.50790358  1
  O2-  O174  1  0.88109570  0.16424957  0.74082109  1
  O2-  O175  1  0.91418406  0.63383330  -0.00119722  1
  O2-  O176  1  0.83199703  0.64853105  0.24028677  1
  O2-  O177  1  0.80810365  0.63821953  0.47664540  1
  O2-  O178  1  0.93273852  0.62561163  0.80173107  1
  O2-  O179  1  0.17219634  0.36218852  -0.00449901  1
  O2-  O180  1  0.09971719  0.35752720  0.24863983  1
  O2-  O181  1  0.13388583  0.37482362  0.50594505  1
  O2-  O182  1  0.09912205  0.37540522  0.76314641  1
  O2-  O183  1  0.10552083  0.87701308  0.01142321  1
  O2-  O184  1  0.16446106  0.87607652  0.26855118  1
  O2-  O185  1  0.16691281  0.87867915  0.50436784  1
  O2-  O186  1  0.11055025  0.86161908  0.75977663  1
  O2-  O187  1  0.35524175  0.34331440  -0.01334031  1
  O2-  O188  1  0.37747881  0.36279189  0.24748785  1
  O2-  O189  1  0.36526750  0.35518495  0.49714266  1
  O2-  O190  1  0.41079039  0.36383374  0.74406832  1
  O2-  O191  1  0.43021048  0.86411148  -0.01340339  1
  O2-  O192  1  0.37099303  0.86725988  0.25148798  1
  O2-  O193  1  0.38066606  0.85829686  0.48251382  1
  O2-  O194  1  0.44030107  0.87556671  0.76397194  1
  O2-  O195  1  0.62208445  0.35442064  0.00485166  1
  O2-  O196  1  0.57010828  0.37785350  0.27036565  1
  O2-  O197  1  0.55195381  0.37378617  0.49560367  1
  O2-  O198  1  0.59124079  0.37211683  0.73376480  1
  O2-  O199  1  0.62314996  0.85103123  -0.01164751  1
  O2-  O200  1  0.62157324  0.86913558  0.24452161  1
  O2-  O201  1  0.59914296  0.84639889  0.50223994  1
  O2-  O202  1  0.67214376  0.89276524  0.76036716  1
  O2-  O203  1  0.81707211  0.38105393  0.00788404  1
  O2-  O204  1  0.90866396  0.36032371  0.24757612  1
  O2-  O205  1  0.89785649  0.38459492  0.47316373  1
  O2-  O206  1  0.94342691  0.36452373  0.65340761  1
  O2-  O207  1  0.91243514  0.91084036  0.00245613  1
  O2-  O208  1  0.84202192  0.88400466  0.25256401  1
  O2-  O209  1  0.84271862  0.88071665  0.50758063  1
  O2-  O210  1  0.87383428  0.87021032  0.74367870  1
  O2-  O211  1  -0.01128901  0.11295535  0.10693106  1
  O2-  O212  1  -0.00535115  -0.11727485  0.15859124  1
  O2-  O213  1  -0.01059527  -0.13389948  0.38265519  1
  O2-  O214  1  0.01699171  -0.14017024  0.61372985  1
  O2-  O215  1  -0.01009265  0.31543793  0.07839860  1
  O2-  O216  1  -0.00815709  0.64828448  0.29193538  1
  O2-  O217  1  -0.02816857  0.62779489  0.46396093  1
  O2-  O218  1  0.00511001  0.64687757  0.63282718  1
  O2-  O219  1  0.25653387  -0.13089766  -0.12161741  1
  O2-  O220  1  0.22414250  0.15852467  0.38883472  1
  O2-  O221  1  0.23988117  0.16265398  0.61256875  1
  O2-  O222  1  0.27349012  -0.14470950  0.65219092  1
  O2-  O223  1  0.25236006  0.62561663  -0.10142887  1
  O2-  O224  1  0.22826864  0.34807384  0.36407065  1
  O2-  O225  1  0.25667552  0.38068187  0.64748187  1
  O2-  O226  1  0.25596438  0.60987056  0.65601445  1
  O2-  O227  1  0.49186634  0.15265594  0.11891314  1
  O2-  O228  1  0.49390002  -0.19263370  0.35993377  1
  O2-  O229  1  0.51295161  -0.02095609  0.36432216  1
  O2-  O230  1  0.56128201  -0.00001639  0.91181599  1
  O2-  O231  1  0.48651693  0.34731059  0.11463685  1
  O2-  O232  1  0.51760527  0.62333765  0.13767890  1
  O2-  O233  1  0.49182383  0.62811106  0.38200444  1
  O2-  O234  1  0.56537670  0.62167007  0.75079794  1
  O2-  O235  1  0.77581859  -0.14637376  -0.10715464  1
  O2-  O236  1  0.74942296  0.11583831  0.37711619  1
  O2-  O237  1  0.73650097  0.08591613  0.59586014  1
  O2-  O238  1  0.69967225  0.13209140  0.76432686  1
  O2-  O239  1  0.77338081  0.62870282  -0.10322941  1
  O2-  O240  1  0.73690380  0.37878275  0.31696428  1
  O2-  O241  1  0.71901283  0.36900538  0.50461652  1
  O2-  O242  1  0.74653636  0.39359587  0.67163453  1
