# generated using pymatgen
data_Gd19Ta56(WO20)8
_symmetry_space_group_name_H-M   'P 1'
_cell_length_a   15.59260895
_cell_length_b   15.51145771
_cell_length_c   15.29696402
_cell_angle_alpha   90.10394550
_cell_angle_beta   89.96873886
_cell_angle_gamma   90.06370833
_symmetry_Int_Tables_number   1
_chemical_formula_structural   Gd19Ta56(WO20)8
_chemical_formula_sum   'Gd19 Ta56 W8 O160'
_cell_volume   3699.77742501
_cell_formula_units_Z   1
loop_
 _symmetry_equiv_pos_site_id
 _symmetry_equiv_pos_as_xyz
  1  'x, y, z'
loop_
 _atom_type_symbol
 _atom_type_oxidation_number
  Gd3+  3.0
  Ta5+  5.0
  W6+  6.0
  O2-  -2.0
loop_
 _atom_site_type_symbol
 _atom_site_label
 _atom_site_symmetry_multiplicity
 _atom_site_fract_x
 _atom_site_fract_y
 _atom_site_fract_z
 _atom_site_occupancy
  Gd3+  Gd0  1  0.23143973  0.23791137  0.26711228  1
  Gd3+  Gd1  1  0.24334640  0.76205535  -0.02820251  1
  Gd3+  Gd2  1  0.78168097  0.72423812  0.74690284  1
  Gd3+  Gd3  1  0.74711338  0.74220270  0.51195632  1
  Gd3+  Gd4  1  0.73178105  0.23054213  0.50843126  1
  Gd3+  Gd5  1  0.25375666  0.77583399  0.22497218  1
  Gd3+  Gd6  1  0.25489577  0.23231254  -0.01785445  1
  Gd3+  Gd7  1  -0.00061637  0.24732053  0.27747296  1
  Gd3+  Gd8  1  0.50254027  0.24545919  0.02103343  1
  Gd3+  Gd9  1  -0.02801994  0.76105189  0.52909472  1
  Gd3+  Gd10  1  0.25546578  0.76958757  0.49476530  1
  Gd3+  Gd11  1  0.00592048  0.24231565  0.04941960  1
  Gd3+  Gd12  1  0.49047530  0.74944136  0.24033057  1
  Gd3+  Gd13  1  0.21797121  0.26071813  0.72625108  1
  Gd3+  Gd14  1  0.75248170  0.23789494  0.75951208  1
  Gd3+  Gd15  1  0.75020156  0.22006253  0.27106292  1
  Gd3+  Gd16  1  0.76818206  0.76343386  -0.01682118  1
  Gd3+  Gd17  1  0.51243704  0.24854911  0.25841215  1
  Gd3+  Gd18  1  0.00884160  0.75691457  0.77203734  1
  Ta5+  Ta19  1  0.57932501  0.11115322  0.87254989  1
  Ta5+  Ta20  1  0.61910814  0.86177068  0.37386513  1
  Ta5+  Ta21  1  0.11436766  0.91015403  0.87730630  1
  Ta5+  Ta22  1  0.13279028  0.88963687  0.62744209  1
  Ta5+  Ta23  1  0.38172719  0.88944944  0.36330787  1
  Ta5+  Ta24  1  0.89137316  0.55832704  0.64081942  1
  Ta5+  Ta25  1  0.37845842  0.37792248  0.36187438  1
  Ta5+  Ta26  1  0.65084513  0.37749068  0.12539301  1
  Ta5+  Ta27  1  0.11737940  0.62142678  0.61657475  1
  Ta5+  Ta28  1  0.41624482  0.87601296  0.86825446  1
  Ta5+  Ta29  1  0.40764893  0.12222448  0.85952353  1
  Ta5+  Ta30  1  0.91647953  0.15269330  0.86985013  1
  Ta5+  Ta31  1  0.60513073  0.63552977  0.38027006  1
  Ta5+  Ta32  1  0.37848192  0.37909889  0.61528444  1
  Ta5+  Ta33  1  0.84299208  0.10570064  0.09929628  1
  Ta5+  Ta34  1  0.35377523  0.63128992  0.61856055  1
  Ta5+  Ta35  1  0.07082835  0.06211811  0.36864272  1
  Ta5+  Ta36  1  0.36367446  0.12877676  0.62510424  1
  Ta5+  Ta37  1  0.62044599  0.36642950  0.87951115  1
  Ta5+  Ta38  1  0.37067574  0.62113719  0.10702638  1
  Ta5+  Ta39  1  0.59186584  0.12336089  0.64242342  1
  Ta5+  Ta40  1  0.11228337  0.87720320  0.35877591  1
  Ta5+  Ta41  1  0.39365562  0.87783129  0.08974306  1
  Ta5+  Ta42  1  0.91695539  0.13922277  0.62707113  1
  Ta5+  Ta43  1  0.91277463  0.35197051  0.87973828  1
  Ta5+  Ta44  1  0.85303433  0.37758642  0.13013627  1
  Ta5+  Ta45  1  0.15190192  0.10606060  0.12168044  1
  Ta5+  Ta46  1  0.88974820  0.90593125  0.86288019  1
  Ta5+  Ta47  1  0.61682726  0.37876238  0.63594652  1
  Ta5+  Ta48  1  0.12550997  0.62653378  0.11448085  1
  Ta5+  Ta49  1  0.08879493  0.87145286  0.11026652  1
  Ta5+  Ta50  1  0.13177273  0.60883928  0.86621170  1
  Ta5+  Ta51  1  0.62966313  0.86440071  0.11489264  1
  Ta5+  Ta52  1  0.14245548  0.63607454  0.36067425  1
  Ta5+  Ta53  1  0.07962523  0.36630737  0.87057218  1
  Ta5+  Ta54  1  0.85435820  0.39346818  0.38191579  1
  Ta5+  Ta55  1  0.08287438  0.15592306  0.86593158  1
  Ta5+  Ta56  1  0.86246411  0.90166993  0.65641867  1
  Ta5+  Ta57  1  0.36916552  0.62252216  0.85836413  1
  Ta5+  Ta58  1  0.85196050  0.07082322  0.39942445  1
  Ta5+  Ta59  1  0.64191235  0.10966415  0.11937817  1
  Ta5+  Ta60  1  0.90884291  0.35577714  0.62786382  1
  Ta5+  Ta61  1  0.38832186  0.37828855  0.86609437  1
  Ta5+  Ta62  1  0.92315211  0.87348994  0.10368739  1
  Ta5+  Ta63  1  0.38011116  0.88245033  0.62567085  1
  Ta5+  Ta64  1  0.35875237  0.11324566  0.11776615  1
  Ta5+  Ta65  1  0.14555357  0.38212447  0.11973357  1
  Ta5+  Ta66  1  0.34853926  0.37617939  0.12096484  1
  Ta5+  Ta67  1  0.61798878  0.62696422  0.11579244  1
  Ta5+  Ta68  1  0.90748368  0.62944469  0.33846231  1
  Ta5+  Ta69  1  0.08509874  0.38811291  0.61352939  1
  Ta5+  Ta70  1  0.88277886  0.62545670  0.11319757  1
  Ta5+  Ta71  1  0.64253789  0.61293280  0.86609950  1
  Ta5+  Ta72  1  0.92212763  0.90462008  0.33169596  1
  Ta5+  Ta73  1  0.62974032  0.88797048  0.63167575  1
  Ta5+  Ta74  1  0.36285925  0.62409704  0.36582230  1
  W6+  W75  1  0.10753125  0.40293214  0.36070010  1
  W6+  W76  1  0.60235354  0.11221289  0.38363919  1
  W6+  W77  1  0.58333184  0.86107301  0.86954460  1
  W6+  W78  1  0.60890609  0.63228834  0.64070412  1
  W6+  W79  1  0.62120872  0.38649365  0.37842743  1
  W6+  W80  1  0.07866995  0.13862538  0.60847237  1
  W6+  W81  1  0.88232186  0.60046895  0.88615390  1
  W6+  W82  1  0.33152094  0.09379399  0.43613342  1
  O2-  O83  1  0.10380246  -0.00394351  0.11951701  1
  O2-  O84  1  0.16965741  -0.01111844  0.37242198  1
  O2-  O85  1  0.09035628  -0.00155466  0.62083894  1
  O2-  O86  1  0.09862415  0.02625797  0.86869902  1
  O2-  O87  1  0.14110694  0.50474072  0.12210105  1
  O2-  O88  1  0.16593457  0.51963668  0.36146538  1
  O2-  O89  1  0.15016385  0.50844602  0.62065063  1
  O2-  O90  1  0.09051534  0.49565820  0.87603319  1
  O2-  O91  1  0.40415744  -0.00157442  0.11368433  1
  O2-  O92  1  0.35394283  0.00439746  0.34445836  1
  O2-  O93  1  0.39085299  0.00376916  0.63495762  1
  O2-  O94  1  0.40398670  0.00058068  0.86069650  1
  O2-  O95  1  0.36143808  0.50118728  0.12602198  1
  O2-  O96  1  0.36235334  0.50415343  0.34862594  1
  O2-  O97  1  0.36310502  0.50512043  0.61907215  1
  O2-  O98  1  0.40667475  0.50556545  0.86952433  1
  O2-  O99  1  0.62390227  -0.01355374  0.12433041  1
  O2-  O100  1  0.61990084  -0.02119522  0.37633311  1
  O2-  O101  1  0.74033802  -0.06412119  0.63705130  1
  O2-  O102  1  0.58476982  -0.00709069  0.86965876  1
  O2-  O103  1  0.64394169  0.50922097  0.12724002  1
  O2-  O104  1  0.60013872  0.51942833  0.37517827  1
  O2-  O105  1  0.60774985  0.49625553  0.63841785  1
  O2-  O106  1  0.63390249  0.48844116  0.88574654  1
  O2-  O107  1  0.89878920  0.00108173  0.12140127  1
  O2-  O108  1  0.81219815  -0.04692968  0.36376433  1
  O2-  O109  1  0.89916224  0.01601658  0.63621284  1
  O2-  O110  1  0.90186312  0.02333415  0.86651184  1
  O2-  O111  1  0.87751333  0.49609095  0.13864604  1
  O2-  O112  1  0.90975280  0.51525126  0.36771162  1
  O2-  O113  1  0.82178003  0.45864168  0.63407384  1
  O2-  O114  1  0.89420952  0.46952090  0.88806092  1
  O2-  O115  1  0.14759985  0.24100190  0.13121242  1
  O2-  O116  1  0.11961036  0.27386952  0.35158110  1
  O2-  O117  1  0.12190876  0.26924152  0.60951195  1
  O2-  O118  1  0.16625974  0.26385336  0.87108306  1
  O2-  O119  1  0.15871789  0.75292062  0.09769111  1
  O2-  O120  1  0.17671722  0.76415899  0.36418058  1
  O2-  O121  1  0.07876300  0.76991627  0.63515479  1
  O2-  O122  1  0.12860360  0.74081481  0.87365280  1
  O2-  O123  1  0.32975391  0.24529380  0.11964120  1
  O2-  O124  1  0.34412700  0.25987597  0.35388047  1
  O2-  O125  1  0.32802069  0.26474995  0.62159536  1
  O2-  O126  1  0.35981132  0.25495996  0.87569461  1
  O2-  O127  1  0.34310088  0.75368843  0.09528450  1
  O2-  O128  1  0.34169714  0.76100417  0.36892713  1
  O2-  O129  1  0.38762381  0.75267911  0.59372667  1
  O2-  O130  1  0.37974580  0.74649388  0.88690181  1
  O2-  O131  1  0.63615195  0.24427617  0.12207847  1
  O2-  O132  1  0.62699007  0.24982437  0.36632462  1
  O2-  O133  1  0.65100763  0.24402584  0.64165233  1
  O2-  O134  1  0.63246180  0.23928197  0.87813900  1
  O2-  O135  1  0.68468288  0.73586829  0.11167600  1
  O2-  O136  1  0.68457937  0.74751121  0.37616418  1
  O2-  O137  1  0.68027549  0.76189572  0.64447725  1
  O2-  O138  1  0.67727922  0.74165737  0.86175810  1
  O2-  O139  1  0.87234908  0.22728572  0.14792798  1
  O2-  O140  1  0.81161457  0.27720550  0.39118997  1
  O2-  O141  1  0.83249236  0.25138508  0.61652611  1
  O2-  O142  1  0.82936538  0.24922134  0.89094879  1
  O2-  O143  1  0.88979916  0.74818923  0.08413946  1
  O2-  O144  1  0.86885704  0.69083990  0.43599745  1
  O2-  O145  1  0.85776514  0.85575087  0.53724953  1
  O2-  O146  1  0.87652061  0.74317982  0.86476283  1
  O2-  O147  1  0.10514580  0.14587831  -0.00035847  1
  O2-  O148  1  0.09255747  0.12461296  0.25766507  1
  O2-  O149  1  0.07610532  0.12691411  0.46915959  1
  O2-  O150  1  0.10908418  0.15818241  0.74258219  1
  O2-  O151  1  0.15859813  0.62085142  -0.00741392  1
  O2-  O152  1  0.17579572  0.64714167  0.23157847  1
  O2-  O153  1  0.13375858  0.65860489  0.49069145  1
  O2-  O154  1  0.09225735  0.63035332  0.74202968  1
  O2-  O155  1  0.39633372  0.14010100  -0.01149035  1
  O2-  O156  1  0.46989958  0.16760697  0.14362756  1
  O2-  O157  1  0.42045377  0.14801140  0.51136057  1
  O2-  O158  1  0.32955226  0.14014961  0.74881803  1
  O2-  O159  1  0.33862458  0.61884733  -0.01174006  1
  O2-  O160  1  0.36716569  0.65594212  0.23661326  1
  O2-  O161  1  0.32702284  0.62798298  0.48619776  1
  O2-  O162  1  0.39106403  0.64031816  0.73635578  1
  O2-  O163  1  0.57889200  0.12031032  0.00498295  1
  O2-  O164  1  0.60196016  0.12813014  0.24293202  1
  O2-  O165  1  0.62837665  0.12685663  0.52167084  1
  O2-  O166  1  0.64905663  0.11671739  0.75469634  1
  O2-  O167  1  0.61536415  0.63308453  -0.01119700  1
  O2-  O168  1  0.60674968  0.65246081  0.24705676  1
  O2-  O169  1  0.63385067  0.64549750  0.50170819  1
  O2-  O170  1  0.56749864  0.62569567  0.77514258  1
  O2-  O171  1  0.91604373  0.13782609  0.00165131  1
  O2-  O172  1  0.90338763  0.13898032  0.31315159  1
  O2-  O173  1  0.85741850  0.13015436  0.50835970  1
  O2-  O174  1  0.88058393  0.15561909  0.74548527  1
  O2-  O175  1  0.81614919  0.61524786  0.00958455  1
  O2-  O176  1  0.84244904  0.64678066  0.23413728  1
  O2-  O177  1  0.80348733  0.63543106  0.60643517  1
  O2-  O178  1  0.91407064  0.60422611  0.75119376  1
  O2-  O179  1  0.08730410  0.36027900  0.00715573  1
  O2-  O180  1  0.06870960  0.37156221  0.21829681  1
  O2-  O181  1  0.09106027  0.40259807  0.49257897  1
  O2-  O182  1  0.11441719  0.37084621  0.74574376  1
  O2-  O183  1  0.15854011  0.88381104  -0.00880086  1
  O2-  O184  1  0.12077207  0.84575021  0.23325130  1
  O2-  O185  1  0.13187985  0.86054999  0.49943396  1
  O2-  O186  1  0.13807157  0.87692152  0.75782546  1
  O2-  O187  1  0.40990221  0.36597303  0.00504817  1
  O2-  O188  1  0.41397450  0.36367433  0.23285637  1
  O2-  O189  1  0.38305342  0.37992103  0.48998869  1
  O2-  O190  1  0.34070980  0.38014911  0.74959133  1
  O2-  O191  1  0.33870282  0.88742692  -0.02077906  1
  O2-  O192  1  0.38560386  0.85864585  0.23035796  1
  O2-  O193  1  0.36510011  0.88820860  0.48984586  1
  O2-  O194  1  0.39058839  0.85932775  0.74736066  1
  O2-  O195  1  0.59304300  0.36493628  0.00815452  1
  O2-  O196  1  0.58890818  0.37280160  0.23748509  1
  O2-  O197  1  0.65779101  0.36408373  0.51947845  1
  O2-  O198  1  0.66945730  0.36687853  0.75500830  1
  O2-  O199  1  0.65737615  0.86301924  -0.00597153  1
  O2-  O200  1  0.62011724  0.84591150  0.24567152  1
  O2-  O201  1  0.62895214  0.85156464  0.50687541  1
  O2-  O202  1  0.57128828  0.85694005  0.73278361  1
  O2-  O203  1  0.91162489  0.34827183  0.02332488  1
  O2-  O204  1  0.90118379  0.36178452  0.26542762  1
  O2-  O205  1  0.90052280  0.38175382  0.49637491  1
  O2-  O206  1  0.88751266  0.34075724  0.75201036  1
  O2-  O207  1  0.85391779  0.88668262  -0.01705692  1
  O2-  O208  1  0.89724148  0.84707370  0.22838485  1
  O2-  O209  1  0.99761006  0.82338865  0.39398215  1
  O2-  O210  1  0.89980892  0.77204605  0.66715741  1
  O2-  O211  1  0.00435294  -0.13926275  -0.10220504  1
  O2-  O212  1  0.02550734  -0.03757791  0.28856277  1
  O2-  O213  1  -0.03930541  0.00579150  0.42573745  1
  O2-  O214  1  -0.03988961  -0.10052892  0.74598126  1
  O2-  O215  1  0.00545645  0.62574489  0.12103595  1
  O2-  O216  1  0.02271773  0.65735155  0.32619911  1
  O2-  O217  1  -0.00907984  0.61895914  0.58049527  1
  O2-  O218  1  -0.01464901  0.46161920  0.65085004  1
  O2-  O219  1  0.25201194  0.09345330  0.04293450  1
  O2-  O220  1  0.26012598  0.10596634  0.20351661  1
  O2-  O221  1  0.26522845  0.10378623  0.55518219  1
  O2-  O222  1  0.25443641  -0.12470933  0.62394910  1
  O2-  O223  1  0.24844124  0.37242485  0.03718651  1
  O2-  O224  1  0.24494300  0.37456371  0.20618090  1
  O2-  O225  1  0.23607976  0.66757535  0.63267343  1
  O2-  O226  1  0.25084380  0.60555195  0.83480529  1
  O2-  O227  1  0.51064997  -0.17142424  0.10933231  1
  O2-  O228  1  0.50006241  -0.16324107  0.37058101  1
  O2-  O229  1  0.57674692  -0.00022505  0.62621134  1
  O2-  O230  1  0.48432400  0.16494687  0.66710488  1
  O2-  O231  1  0.49567564  0.64004930  0.11597311  1
  O2-  O232  1  0.48548412  0.66033398  0.37802120  1
  O2-  O233  1  0.49572857  0.35678325  0.63781367  1
  O2-  O234  1  0.50519321  0.35899265  0.84104360  1
  O2-  O235  1  0.74141108  0.10425290  0.03184409  1
  O2-  O236  1  0.75417963  0.09774980  0.19243616  1
  O2-  O237  1  0.73905460  0.11780998  0.38437343  1
  O2-  O238  1  0.80039866  -0.12229541  0.77635451  1
  O2-  O239  1  0.75475355  0.39005749  0.05394212  1
  O2-  O240  1  0.75006896  0.35262461  0.20706371  1
  O2-  O241  1  0.74794413  0.44297520  0.37651174  1
  O2-  O242  1  0.75578064  0.59736930  0.82185198  1
