# generated using pymatgen
data_Gd19Ta56(WO20)8
_symmetry_space_group_name_H-M   'P 1'
_cell_length_a   15.63017160
_cell_length_b   15.41413615
_cell_length_c   15.20493983
_cell_angle_alpha   89.98638732
_cell_angle_beta   89.86214620
_cell_angle_gamma   89.91080334
_symmetry_Int_Tables_number   1
_chemical_formula_structural   Gd19Ta56(WO20)8
_chemical_formula_sum   'Gd19 Ta56 W8 O160'
_cell_volume   3663.24400483
_cell_formula_units_Z   1
loop_
 _symmetry_equiv_pos_site_id
 _symmetry_equiv_pos_as_xyz
  1  'x, y, z'
loop_
 _atom_type_symbol
 _atom_type_oxidation_number
  Gd3+  3.0
  Ta5+  5.0
  W6+  6.0
  O2-  -2.0
loop_
 _atom_site_type_symbol
 _atom_site_label
 _atom_site_symmetry_multiplicity
 _atom_site_fract_x
 _atom_site_fract_y
 _atom_site_fract_z
 _atom_site_occupancy
  Gd3+  Gd0  1  0.22510108  0.74994561  0.74961131  1
  Gd3+  Gd1  1  0.00045710  0.26682132  0.50091033  1
  Gd3+  Gd2  1  0.26538730  0.23505466  0.72810999  1
  Gd3+  Gd3  1  0.49998614  0.74793575  0.01226218  1
  Gd3+  Gd4  1  0.75282614  0.24878293  0.77075736  1
  Gd3+  Gd5  1  0.25517233  0.24023223  -0.04266750  1
  Gd3+  Gd6  1  0.75805737  0.25065428  0.25461582  1
  Gd3+  Gd7  1  0.74305532  0.25321646  0.52061872  1
  Gd3+  Gd8  1  0.24437302  0.22227502  0.21926849  1
  Gd3+  Gd9  1  0.75131456  0.77170451  0.53299335  1
  Gd3+  Gd10  1  0.00009827  0.75814628  -0.00631050  1
  Gd3+  Gd11  1  0.50476942  0.74150031  0.25900374  1
  Gd3+  Gd12  1  0.01508181  0.77332288  0.23650660  1
  Gd3+  Gd13  1  0.22467679  0.78129402  -0.00690337  1
  Gd3+  Gd14  1  0.49365592  0.24422534  0.50052519  1
  Gd3+  Gd15  1  0.78212770  0.76572467  0.27885135  1
  Gd3+  Gd16  1  0.01767147  0.22555136  0.25706134  1
  Gd3+  Gd17  1  0.74960117  0.25531972  0.00243857  1
  Gd3+  Gd18  1  0.24061453  0.73596055  0.46419365  1
  Ta5+  Ta19  1  0.63456298  0.87717337  0.13174908  1
  Ta5+  Ta20  1  0.91607128  0.87374510  0.41232071  1
  Ta5+  Ta21  1  0.60331928  0.37952972  0.13381874  1
  Ta5+  Ta22  1  0.89956521  0.38007640  0.11538220  1
  Ta5+  Ta23  1  0.35022037  0.61644656  0.12286861  1
  Ta5+  Ta24  1  0.07606136  0.16076227  0.83331378  1
  Ta5+  Ta25  1  0.11207276  0.61562706  0.62738269  1
  Ta5+  Ta26  1  0.14740811  0.62307388  0.13279848  1
  Ta5+  Ta27  1  0.87890454  0.61687763  0.63001677  1
  Ta5+  Ta28  1  0.08395485  0.88231234  0.40430353  1
  Ta5+  Ta29  1  0.91787403  0.62604842  0.38621681  1
  Ta5+  Ta30  1  0.39768196  0.11823299  0.08167003  1
  Ta5+  Ta31  1  0.87081257  0.88458759  0.84378097  1
  Ta5+  Ta32  1  0.41521115  0.11735996  0.86158940  1
  Ta5+  Ta33  1  0.07871585  0.35838647  0.88281482  1
  Ta5+  Ta34  1  0.38614768  0.10824492  0.61017656  1
  Ta5+  Ta35  1  0.89300109  0.12383160  0.64081747  1
  Ta5+  Ta36  1  0.37733353  0.36416066  0.35487867  1
  Ta5+  Ta37  1  0.61818874  0.12597527  0.13748157  1
  Ta5+  Ta38  1  0.59260451  0.87021722  0.65754963  1
  Ta5+  Ta39  1  0.37750490  0.62358924  0.61520702  1
  Ta5+  Ta40  1  0.87472561  0.11824889  0.37912440  1
  Ta5+  Ta41  1  0.14975461  0.11906024  0.40561173  1
  Ta5+  Ta42  1  0.10754659  0.37504667  0.11075154  1
  Ta5+  Ta43  1  0.09048362  0.88168488  0.62010129  1
  Ta5+  Ta44  1  0.36661177  0.88002195  0.86424290  1
  Ta5+  Ta45  1  0.12137483  0.91922281  0.86452414  1
  Ta5+  Ta46  1  0.83534952  0.87917692  0.08354791  1
  Ta5+  Ta47  1  0.36455235  0.88053187  0.12837249  1
  Ta5+  Ta48  1  0.91496244  0.37346876  0.89059238  1
  Ta5+  Ta49  1  0.39978282  0.37446887  0.85304124  1
  Ta5+  Ta50  1  0.38475455  0.11898341  0.34961213  1
  Ta5+  Ta51  1  0.63526310  0.62120275  0.89156745  1
  Ta5+  Ta52  1  0.61324370  0.62301233  0.64233664  1
  Ta5+  Ta53  1  0.35889110  0.61237955  0.87259659  1
  Ta5+  Ta54  1  0.86921069  0.61999148  0.87726075  1
  Ta5+  Ta55  1  0.86835761  0.38758806  0.36879376  1
  Ta5+  Ta56  1  0.58741103  0.12671951  0.89278797  1
  Ta5+  Ta57  1  0.13135843  0.60068334  0.88977630  1
  Ta5+  Ta58  1  0.14018395  0.38121792  0.37329010  1
  Ta5+  Ta59  1  0.92505759  0.87738087  0.61628672  1
  Ta5+  Ta60  1  0.62278863  0.87601292  0.39308061  1
  Ta5+  Ta61  1  0.63774424  0.11883359  0.39154987  1
  Ta5+  Ta62  1  0.60087751  0.37319839  0.66019965  1
  Ta5+  Ta63  1  0.35895723  0.86498731  0.60553145  1
  Ta5+  Ta64  1  0.60332014  0.37803741  0.87937897  1
  Ta5+  Ta65  1  0.65198402  0.61660032  0.14031165  1
  Ta5+  Ta66  1  0.85420069  0.60762707  0.13231483  1
  Ta5+  Ta67  1  0.09119519  0.12716885  0.65489347  1
  Ta5+  Ta68  1  0.62652951  0.38003241  0.39171481  1
  Ta5+  Ta69  1  0.91308269  0.12885036  0.88393043  1
  Ta5+  Ta70  1  0.88296910  0.11681257  0.10758520  1
  Ta5+  Ta71  1  0.62700226  0.11261087  0.65200261  1
  Ta5+  Ta72  1  0.11701863  0.38718937  0.63830600  1
  Ta5+  Ta73  1  0.87244419  0.38812705  0.64030051  1
  Ta5+  Ta74  1  0.08779923  0.12051891  0.06786450  1
  W6+  W75  1  0.35913726  0.36587470  0.09791387  1
  W6+  W76  1  0.16060195  0.90767557  0.16525070  1
  W6+  W77  1  0.36351770  0.87405242  0.34738444  1
  W6+  W78  1  0.37574640  0.37166377  0.61401883  1
  W6+  W79  1  0.37305992  0.60808909  0.35109147  1
  W6+  W80  1  0.65194187  0.62618751  0.39888718  1
  W6+  W81  1  0.07863104  0.62355510  0.37324189  1
  W6+  W82  1  0.63665520  0.87940314  0.90433989  1
  O2-  O83  1  0.15524307  0.03735390  0.11951905  1
  O2-  O84  1  0.14333238  0.00114302  0.41106168  1
  O2-  O85  1  0.09263114  0.00437745  0.63114257  1
  O2-  O86  1  0.07967386  0.02813344  0.85251232  1
  O2-  O87  1  0.13038064  0.49537529  0.11792714  1
  O2-  O88  1  0.09023638  0.48595411  0.35289789  1
  O2-  O89  1  0.16951196  0.50066322  0.62592129  1
  O2-  O90  1  0.08739799  0.49099423  0.90244203  1
  O2-  O91  1  0.40589624  -0.00215684  0.10276187  1
  O2-  O92  1  0.40646373  0.00176749  0.35097422  1
  O2-  O93  1  0.35512573  -0.01190457  0.60901273  1
  O2-  O94  1  0.41714377  -0.01276395  0.85903620  1
  O2-  O95  1  0.36345071  0.50054242  0.10358867  1
  O2-  O96  1  0.41363660  0.47459190  0.33661496  1
  O2-  O97  1  0.38684760  0.50730966  0.62463923  1
  O2-  O98  1  0.40963142  0.50288299  0.84941816  1
  O2-  O99  1  0.62695761  0.00248450  0.14310601  1
  O2-  O100  1  0.61785734  -0.00127067  0.38361580  1
  O2-  O101  1  0.63686149  -0.01336318  0.64919452  1
  O2-  O102  1  0.61117459  0.01118710  0.90163606  1
  O2-  O103  1  0.59665346  0.50057728  0.14967810  1
  O2-  O104  1  0.61127563  0.49686628  0.39794113  1
  O2-  O105  1  0.59784674  0.50225314  0.64653245  1
  O2-  O106  1  0.59645865  0.50369890  0.88548076  1
  O2-  O107  1  0.87424269  -0.01166004  0.11215376  1
  O2-  O108  1  0.89806499  0.00328309  0.39075602  1
  O2-  O109  1  0.90037286  0.00503750  0.63532713  1
  O2-  O110  1  0.88932377  0.00212995  0.85870278  1
  O2-  O111  1  0.91939732  0.50294359  0.13615433  1
  O2-  O112  1  0.89986091  0.50179791  0.35278542  1
  O2-  O113  1  0.82123419  0.49850812  0.63365601  1
  O2-  O114  1  0.91078913  0.50752548  0.89037551  1
  O2-  O115  1  0.12059640  0.23160476  0.12170896  1
  O2-  O116  1  0.09523341  0.25948657  0.38210229  1
  O2-  O117  1  0.15158453  0.26700084  0.63586688  1
  O2-  O118  1  0.16654850  0.26127723  0.83955159  1
  O2-  O119  1  0.13176678  0.75978505  0.13105279  1
  O2-  O120  1  0.11081329  0.76050515  0.36829269  1
  O2-  O121  1  0.11540178  0.73977885  0.64517432  1
  O2-  O122  1  0.13484053  0.73757280  0.88117478  1
  O2-  O123  1  0.32789471  0.22920779  0.09121975  1
  O2-  O124  1  0.43307689  0.24201750  0.35655006  1
  O2-  O125  1  0.35580596  0.23316115  0.60329243  1
  O2-  O126  1  0.37015568  0.24212997  0.85513153  1
  O2-  O127  1  0.38230208  0.75168827  0.11893630  1
  O2-  O128  1  0.33702258  0.74028810  0.34823542  1
  O2-  O129  1  0.30367659  0.74279239  0.61202356  1
  O2-  O130  1  0.31841775  0.74065871  0.87749056  1
  O2-  O131  1  0.67247317  0.25684805  0.13439331  1
  O2-  O132  1  0.60381851  0.24714934  0.40289390  1
  O2-  O133  1  0.64659555  0.24971251  0.65504814  1
  O2-  O134  1  0.64886428  0.25462125  0.88611092  1
  O2-  O135  1  0.58922257  0.74895528  0.13250734  1
  O2-  O136  1  0.69010238  0.76178378  0.39469257  1
  O2-  O137  1  0.65229281  0.76037840  0.65068404  1
  O2-  O138  1  0.59789390  0.73906280  0.89990332  1
  O2-  O139  1  0.86935394  0.24724789  0.11598806  1
  O2-  O140  1  0.91160016  0.25782714  0.36209096  1
  O2-  O141  1  0.82893245  0.26494461  0.63951401  1
  O2-  O142  1  0.87336484  0.25190479  0.90483087  1
  O2-  O143  1  0.92079413  0.79531592  0.11963157  1
  O2-  O144  1  0.86911188  0.74358768  0.41530279  1
  O2-  O145  1  0.87361964  0.74135507  0.61857410  1
  O2-  O146  1  0.92602307  0.73087258  0.87005217  1
  O2-  O147  1  0.14354563  0.14335848  -0.03989952  1
  O2-  O148  1  0.13401063  0.13680049  0.28046990  1
  O2-  O149  1  0.09051431  0.14796789  0.51274589  1
  O2-  O150  1  0.17963575  0.11738697  0.74265583  1
  O2-  O151  1  0.08605585  0.63410531  0.01116962  1
  O2-  O152  1  0.06699266  0.63054979  0.22595975  1
  O2-  O153  1  0.13034015  0.63071086  0.50543917  1
  O2-  O154  1  0.14089699  0.61335791  0.76211841  1
  O2-  O155  1  0.33179085  0.10534446  -0.02753765  1
  O2-  O156  1  0.35525548  0.12487338  0.22355440  1
  O2-  O157  1  0.41478747  0.11919845  0.48143616  1
  O2-  O158  1  0.37610051  0.11681544  0.73983671  1
  O2-  O159  1  0.41075988  0.62941663  -0.01255235  1
  O2-  O160  1  0.42946539  0.62290235  0.22015566  1
  O2-  O161  1  0.34007198  0.62344060  0.49507130  1
  O2-  O162  1  0.34576613  0.64009428  0.74330089  1
  O2-  O163  1  0.64675651  0.14215981  0.01667184  1
  O2-  O164  1  0.65030988  0.14063168  0.26006164  1
  O2-  O165  1  0.65493450  0.12484778  0.52345791  1
  O2-  O166  1  0.65291033  0.12872572  0.77618711  1
  O2-  O167  1  0.60561861  0.62188733  0.02246706  1
  O2-  O168  1  0.62453628  0.64289770  0.26097993  1
  O2-  O169  1  0.68315037  0.63004722  0.54086623  1
  O2-  O170  1  0.64443928  0.62804989  0.76318988  1
  O2-  O171  1  0.82104872  0.12150175  -0.00379172  1
  O2-  O172  1  0.84911800  0.12942827  0.24635817  1
  O2-  O173  1  0.88487630  0.15323278  0.50791196  1
  O2-  O174  1  0.85904155  0.14237589  0.76361903  1
  O2-  O175  1  0.89227686  0.64388249  0.02038443  1
  O2-  O176  1  0.88808422  0.65670458  0.24930279  1
  O2-  O177  1  0.89257237  0.59673785  0.50508495  1
  O2-  O178  1  0.84396552  0.62067723  0.75647750  1
  O2-  O179  1  0.15736000  0.34704299  -0.00043192  1
  O2-  O180  1  0.15619521  0.34889124  0.24044211  1
  O2-  O181  1  0.10816171  0.37784913  0.49884239  1
  O2-  O182  1  0.10006392  0.39121541  0.76116940  1
  O2-  O183  1  0.08715297  0.87636027  -0.02325345  1
  O2-  O184  1  0.07589483  0.90333622  0.27337568  1
  O2-  O185  1  0.15332091  0.84834315  0.51267552  1
  O2-  O186  1  0.13174306  0.87022945  0.74826272  1
  O2-  O187  1  0.33010399  0.37680400  -0.04443298  1
  O2-  O188  1  0.34247586  0.33366882  0.23600606  1
  O2-  O189  1  0.41531877  0.36188054  0.47900442  1
  O2-  O190  1  0.33027743  0.37106189  0.74849421  1
  O2-  O191  1  0.39284442  0.85280898  -0.01398456  1
  O2-  O192  1  0.44065362  0.86962452  0.23020295  1
  O2-  O193  1  0.33568348  0.85788398  0.48327141  1
  O2-  O194  1  0.34252419  0.85321480  0.73937060  1
  O2-  O195  1  0.64656166  0.37871493  0.01093803  1
  O2-  O196  1  0.63250806  0.36190115  0.26062932  1
  O2-  O197  1  0.62000506  0.36175013  0.52991908  1
  O2-  O198  1  0.67992811  0.38264431  0.76895655  1
  O2-  O199  1  0.56189314  0.88067589  0.02835684  1
  O2-  O200  1  0.61100538  0.85474024  0.26316877  1
  O2-  O201  1  0.62930049  0.86852242  0.51810766  1
  O2-  O202  1  0.57295074  0.87255448  0.77702849  1
  O2-  O203  1  0.83409821  0.38596474  0.00883128  1
  O2-  O204  1  0.84063163  0.37400783  0.23641744  1
  O2-  O205  1  0.87519516  0.36639239  0.50195446  1
  O2-  O206  1  0.87608868  0.37096470  0.76889528  1
  O2-  O207  1  0.89389781  0.86426760  -0.03131589  1
  O2-  O208  1  0.89986017  0.84983194  0.28912081  1
  O2-  O209  1  0.83498870  0.88885322  0.51795785  1
  O2-  O210  1  0.93743832  0.85685640  0.74392910  1
  O2-  O211  1  -0.02184449  0.09847644  0.00497077  1
  O2-  O212  1  -0.00382183  0.11552795  0.16404623  1
  O2-  O213  1  0.00573240  -0.08023325  0.50908017  1
  O2-  O214  1  -0.01193410  0.20868132  0.63990915  1
  O2-  O215  1  -0.00117903  0.37195752  0.02250822  1
  O2-  O216  1  0.00409068  0.35150254  0.18520075  1
  O2-  O217  1  -0.00429775  0.59109177  0.64997503  1
  O2-  O218  1  -0.00819271  0.39325297  0.62707705  1
  O2-  O219  1  0.25534217  -0.10053379  0.06838767  1
  O2-  O220  1  0.28292235  -0.11233098  0.22728005  1
  O2-  O221  1  0.26906542  0.15651708  0.38449580  1
  O2-  O222  1  0.24493419  -0.09529232  0.88236317  1
  O2-  O223  1  0.24859515  0.64983432  0.04754344  1
  O2-  O224  1  0.25064771  0.61299735  0.20506050  1
  O2-  O225  1  0.25959614  0.37623218  0.39262735  1
  O2-  O226  1  0.24902960  0.56936670  0.89683675  1
  O2-  O227  1  0.48421442  0.14884896  -0.02437169  1
  O2-  O228  1  0.50351486  0.15442591  0.14358897  1
  O2-  O229  1  0.47906321  -0.14922661  0.61502038  1
  O2-  O230  1  0.50907489  0.13038486  0.62908952  1
  O2-  O231  1  0.49732828  0.34633198  -0.07017557  1
  O2-  O232  1  0.49274581  0.34841356  0.12498230  1
  O2-  O233  1  0.49624972  0.65821195  0.62211160  1
  O2-  O234  1  0.52065901  0.36813127  0.76877983  1
  O2-  O235  1  0.72384419  -0.13355941  0.02450231  1
  O2-  O236  1  0.75433859  -0.12500281  0.18353863  1
  O2-  O237  1  0.75741437  0.17037278  0.39161572  1
  O2-  O238  1  0.75646460  -0.13529801  0.82792731  1
  O2-  O239  1  0.75220847  0.53934427  0.11902781  1
  O2-  O240  1  0.75559312  0.69658158  0.14430066  1
  O2-  O241  1  0.74878166  0.34528320  0.39136061  1
  O2-  O242  1  0.75256434  0.61682823  0.91639373  1
