# generated using pymatgen
data_Gd19Ta56(WO20)8
_symmetry_space_group_name_H-M   'P 1'
_cell_length_a   15.51414048
_cell_length_b   15.47019035
_cell_length_c   15.42902203
_cell_angle_alpha   90.01227651
_cell_angle_beta   90.08283491
_cell_angle_gamma   89.95876965
_symmetry_Int_Tables_number   1
_chemical_formula_structural   Gd19Ta56(WO20)8
_chemical_formula_sum   'Gd19 Ta56 W8 O160'
_cell_volume   3703.06384696
_cell_formula_units_Z   1
loop_
 _symmetry_equiv_pos_site_id
 _symmetry_equiv_pos_as_xyz
  1  'x, y, z'
loop_
 _atom_type_symbol
 _atom_type_oxidation_number
  Gd3+  3.0
  Ta5+  5.0
  W6+  6.0
  O2-  -2.0
loop_
 _atom_site_type_symbol
 _atom_site_label
 _atom_site_symmetry_multiplicity
 _atom_site_fract_x
 _atom_site_fract_y
 _atom_site_fract_z
 _atom_site_occupancy
  Gd3+  Gd0  1  0.21710902  0.27833490  0.74574890  1
  Gd3+  Gd1  1  0.74069396  0.75669103  0.26097649  1
  Gd3+  Gd2  1  0.00309984  0.74214888  -0.00306381  1
  Gd3+  Gd3  1  0.49190137  0.74583123  0.00038058  1
  Gd3+  Gd4  1  0.44535001  0.23496454  0.01742316  1
  Gd3+  Gd5  1  0.45635658  0.24667784  0.77366211  1
  Gd3+  Gd6  1  0.53189662  0.76064962  0.49000004  1
  Gd3+  Gd7  1  0.24450451  0.75585399  -0.02135439  1
  Gd3+  Gd8  1  0.25304288  0.75420756  0.23920097  1
  Gd3+  Gd9  1  0.23976557  0.73569604  0.50100255  1
  Gd3+  Gd10  1  0.76942818  0.75064732  0.50424329  1
  Gd3+  Gd11  1  0.49234613  0.75923890  0.24380070  1
  Gd3+  Gd12  1  0.50813726  0.75419733  0.75599156  1
  Gd3+  Gd13  1  0.01661400  0.22627097  0.49205721  1
  Gd3+  Gd14  1  0.76692143  0.74519185  0.74032875  1
  Gd3+  Gd15  1  0.75773667  0.76236223  0.00239468  1
  Gd3+  Gd16  1  0.74807598  0.26444991  0.00150047  1
  Gd3+  Gd17  1  0.23740651  0.29161031  0.49748743  1
  Gd3+  Gd18  1  0.75366071  0.25709356  0.74068494  1
  Ta5+  Ta19  1  0.11475651  0.87924571  0.86844060  1
  Ta5+  Ta20  1  0.89535880  0.36879324  0.87321112  1
  Ta5+  Ta21  1  0.61648457  0.60449095  0.36880367  1
  Ta5+  Ta22  1  0.60250260  0.13317538  0.88503620  1
  Ta5+  Ta23  1  0.85412288  0.61448091  0.87786082  1
  Ta5+  Ta24  1  0.38490037  0.89550199  0.60367268  1
  Ta5+  Ta25  1  0.11662795  0.58333841  0.12688416  1
  Ta5+  Ta26  1  0.60161546  0.13288607  0.12152035  1
  Ta5+  Ta27  1  0.36214860  0.91422763  0.11464901  1
  Ta5+  Ta28  1  0.60846586  0.88704941  0.11970402  1
  Ta5+  Ta29  1  0.86982817  0.59459532  0.12595426  1
  Ta5+  Ta30  1  0.13073645  0.61245618  0.61882092  1
  Ta5+  Ta31  1  0.65858557  0.61199490  0.12738476  1
  Ta5+  Ta32  1  0.60701526  0.36940518  0.61971552  1
  Ta5+  Ta33  1  0.06632757  0.37885622  0.62840975  1
  Ta5+  Ta34  1  0.55335455  0.13725674  0.36716121  1
  Ta5+  Ta35  1  0.57164956  0.38552476  0.12214299  1
  Ta5+  Ta36  1  0.89926570  0.37024507  0.61587920  1
  Ta5+  Ta37  1  0.37048867  0.89551870  0.85696162  1
  Ta5+  Ta38  1  0.88070546  0.12972192  0.36237045  1
  Ta5+  Ta39  1  0.09846890  0.37567583  0.36626311  1
  Ta5+  Ta40  1  0.89736497  0.13897738  0.88485268  1
  Ta5+  Ta41  1  0.13660353  0.88300385  0.37360381  1
  Ta5+  Ta42  1  0.59556208  0.38035819  0.88091006  1
  Ta5+  Ta43  1  0.14639116  0.12373343  0.87671212  1
  Ta5+  Ta44  1  0.11901487  0.87202155  0.62366562  1
  Ta5+  Ta45  1  0.85818624  0.90451435  0.13301964  1
  Ta5+  Ta46  1  0.06469590  0.34142260  0.12829845  1
  Ta5+  Ta47  1  0.63992816  0.62349085  0.87862831  1
  Ta5+  Ta48  1  0.35082335  0.40653297  0.89335644  1
  Ta5+  Ta49  1  0.40967438  0.60344175  0.37479369  1
  Ta5+  Ta50  1  0.39597129  0.36691041  0.37109456  1
  Ta5+  Ta51  1  0.65326552  0.89022248  0.87301352  1
  Ta5+  Ta52  1  0.57681279  0.14019356  0.61867486  1
  Ta5+  Ta53  1  0.63110510  0.61867721  0.62383337  1
  Ta5+  Ta54  1  0.31931498  0.13180452  0.88425524  1
  Ta5+  Ta55  1  0.32098448  0.11680108  0.13744647  1
  Ta5+  Ta56  1  0.37845777  0.15022704  0.37609738  1
  Ta5+  Ta57  1  0.88913142  0.61202797  0.62675238  1
  Ta5+  Ta58  1  0.37654652  0.38920095  0.63031556  1
  Ta5+  Ta59  1  0.63490835  0.89732029  0.63019690  1
  Ta5+  Ta60  1  0.32332462  0.13073523  0.62343231  1
  Ta5+  Ta61  1  0.06457258  0.35335755  0.88195695  1
  Ta5+  Ta62  1  0.93039239  0.37031766  0.36292324  1
  Ta5+  Ta63  1  0.32871864  0.37211026  0.13322596  1
  Ta5+  Ta64  1  0.14189148  0.90098987  0.11696036  1
  Ta5+  Ta65  1  0.88899286  0.14085356  0.62502001  1
  Ta5+  Ta66  1  0.89501424  0.35973466  0.12856821  1
  Ta5+  Ta67  1  0.62510899  0.90405853  0.37063319  1
  Ta5+  Ta68  1  0.16226869  0.11377381  0.37733112  1
  Ta5+  Ta69  1  0.05118739  0.55767146  0.81170117  1
  Ta5+  Ta70  1  0.89907038  0.61777604  0.37508495  1
  Ta5+  Ta71  1  0.15120060  0.11353097  0.12752275  1
  Ta5+  Ta72  1  0.88324486  0.89325491  0.61711211  1
  Ta5+  Ta73  1  0.56412126  0.36315227  0.37204151  1
  Ta5+  Ta74  1  0.86763943  0.89308328  0.86329007  1
  W6+  W75  1  0.84856883  0.15252377  0.14428098  1
  W6+  W76  1  0.88376212  0.88022225  0.36583987  1
  W6+  W77  1  0.12282986  0.62026269  0.36079398  1
  W6+  W78  1  0.37955723  0.63819668  0.61850963  1
  W6+  W79  1  0.15074354  0.11639180  0.61621113  1
  W6+  W80  1  0.39516364  0.58672619  0.85576379  1
  W6+  W81  1  0.38323560  0.94249063  0.35457069  1
  W6+  W82  1  0.37881558  0.57685639  0.06927525  1
  O2-  O83  1  0.07903860  0.00421042  0.12824524  1
  O2-  O84  1  0.19634791  -0.00816794  0.38256549  1
  O2-  O85  1  0.16446840  -0.01782253  0.63027500  1
  O2-  O86  1  0.13720585  0.00013987  0.85429028  1
  O2-  O87  1  0.11015290  0.46347285  0.12019538  1
  O2-  O88  1  0.11298624  0.49189553  0.34415984  1
  O2-  O89  1  0.11899540  0.49103514  0.61855686  1
  O2-  O90  1  0.09256030  0.47721616  0.89342242  1
  O2-  O91  1  0.41644961  0.02055302  0.12724030  1
  O2-  O92  1  0.45405347  0.04446403  0.39469446  1
  O2-  O93  1  0.35288263  0.00963906  0.63933573  1
  O2-  O94  1  0.36133623  0.01485382  0.85612289  1
  O2-  O95  1  0.45453683  0.37387758  0.08718538  1
  O2-  O96  1  0.37013835  0.49264028  0.36009954  1
  O2-  O97  1  0.39848925  0.50506576  0.63643074  1
  O2-  O98  1  0.47663313  0.38790369  0.85615103  1
  O2-  O99  1  0.60922400  0.00401778  0.09959231  1
  O2-  O100  1  0.62089870  0.02199669  0.37862920  1
  O2-  O101  1  0.60857684  0.02011337  0.62597782  1
  O2-  O102  1  0.61144494  0.00469273  0.88305261  1
  O2-  O103  1  0.58396935  0.51425595  0.12592189  1
  O2-  O104  1  0.61768513  0.48470821  0.37787392  1
  O2-  O105  1  0.61792163  0.49662381  0.62176395  1
  O2-  O106  1  0.61699117  0.50347463  0.88084449  1
  O2-  O107  1  0.87999438  0.01924662  0.13395104  1
  O2-  O108  1  0.90582179  0.01376221  0.35306769  1
  O2-  O109  1  0.89294786  0.01879146  0.62349154  1
  O2-  O110  1  0.87473433  0.01665943  0.87662212  1
  O2-  O111  1  0.91768033  0.48187685  0.11852201  1
  O2-  O112  1  0.91167588  0.49918638  0.38131739  1
  O2-  O113  1  0.87350974  0.49219043  0.60760801  1
  O2-  O114  1  0.87657448  0.49476397  0.87918212  1
  O2-  O115  1  0.10711788  0.22463161  0.12813498  1
  O2-  O116  1  0.14056297  0.24397680  0.38846780  1
  O2-  O117  1  0.12137776  0.25546643  0.60549456  1
  O2-  O118  1  0.14647889  0.25571783  0.88161619  1
  O2-  O119  1  0.06650502  0.80794878  0.11201646  1
  O2-  O120  1  0.17514285  0.75671686  0.36506649  1
  O2-  O121  1  0.15196481  0.75076706  0.61971781  1
  O2-  O122  1  0.11863908  0.75797318  0.90910005  1
  O2-  O123  1  0.33350540  0.24177390  0.12139620  1
  O2-  O124  1  0.32288559  0.26403847  0.37846784  1
  O2-  O125  1  0.31035590  0.26765415  0.62327246  1
  O2-  O126  1  0.36537312  0.25824811  0.89432918  1
  O2-  O127  1  0.42292828  0.68512718  0.12416502  1
  O2-  O128  1  0.49910705  0.86318492  0.38075076  1
  O2-  O129  1  0.51390140  0.67416426  0.60984508  1
  O2-  O130  1  0.48197174  0.83884523  0.88069723  1
  O2-  O131  1  0.57253290  0.25296550  0.10593568  1
  O2-  O132  1  0.60320900  0.24699973  0.36144231  1
  O2-  O133  1  0.64870486  0.24630265  0.62686137  1
  O2-  O134  1  0.55309692  0.25052556  0.90368858  1
  O2-  O135  1  0.61487229  0.73943754  0.15785294  1
  O2-  O136  1  0.62016150  0.74685209  0.35707581  1
  O2-  O137  1  0.65534656  0.76473160  0.62906796  1
  O2-  O138  1  0.65961704  0.75715934  0.86209623  1
  O2-  O139  1  0.79449442  0.27677453  0.13546900  1
  O2-  O140  1  0.95070974  0.23501301  0.35552839  1
  O2-  O141  1  0.83083900  0.25402240  0.61578580  1
  O2-  O142  1  0.82401374  0.25148288  0.87276326  1
  O2-  O143  1  0.77631720  0.69450042  0.13143654  1
  O2-  O144  1  0.83926415  0.73976957  0.37164774  1
  O2-  O145  1  0.85770571  0.76077040  0.62254127  1
  O2-  O146  1  0.84772232  0.75934991  0.87788495  1
  O2-  O147  1  0.16141116  0.11120360  0.00034957  1
  O2-  O148  1  0.14238737  0.10999707  0.25948214  1
  O2-  O149  1  0.09496791  0.10185123  0.48367679  1
  O2-  O150  1  0.15222465  0.14624315  0.74892768  1
  O2-  O151  1  0.17407667  0.63567488  0.03714626  1
  O2-  O152  1  0.16855796  0.63165836  0.22645304  1
  O2-  O153  1  0.13075092  0.62981411  0.49281740  1
  O2-  O154  1  0.13164225  0.62240829  0.75068703  1
  O2-  O155  1  0.34667375  0.11964489  0.00445619  1
  O2-  O156  1  0.34608680  0.12424048  0.25858947  1
  O2-  O157  1  0.34365902  0.14438904  0.50296649  1
  O2-  O158  1  0.33168330  0.16396330  0.75539832  1
  O2-  O159  1  0.36335753  0.66886700  -0.03441600  1
  O2-  O160  1  0.36571386  0.69903793  0.30807240  1
  O2-  O161  1  0.35092410  0.63944044  0.47752474  1
  O2-  O162  1  0.39247954  0.66820543  0.74797687  1
  O2-  O163  1  0.66254335  0.14062784  -0.00099087  1
  O2-  O164  1  0.56861257  0.12446005  0.23716751  1
  O2-  O165  1  0.56699686  0.14479421  0.49937819  1
  O2-  O166  1  0.59735321  0.15174691  0.76142886  1
  O2-  O167  1  0.61016837  0.65186033  0.01512141  1
  O2-  O168  1  0.68229008  0.61500098  0.25913864  1
  O2-  O169  1  0.65807311  0.64557403  0.49021029  1
  O2-  O170  1  0.60609414  0.63631585  0.74389733  1
  O2-  O171  1  0.86398111  0.15536859  0.00414947  1
  O2-  O172  1  0.80397222  0.14965144  0.27388851  1
  O2-  O173  1  0.88743083  0.14411607  0.49252552  1
  O2-  O174  1  0.88116332  0.15070825  0.75200753  1
  O2-  O175  1  0.88819067  0.64490925  0.00984712  1
  O2-  O176  1  0.88379772  0.61979768  0.24773832  1
  O2-  O177  1  0.86865827  0.63488419  0.49845955  1
  O2-  O178  1  0.88798665  0.64236525  0.74977516  1
  O2-  O179  1  0.04577409  0.33736024  0.00350108  1
  O2-  O180  1  0.05121057  0.34072891  0.25365047  1
  O2-  O181  1  0.10135495  0.37519135  0.49563441  1
  O2-  O182  1  0.08590286  0.34861918  0.74994509  1
  O2-  O183  1  0.15921304  0.89910788  -0.00616646  1
  O2-  O184  1  0.16599727  0.87802558  0.24776944  1
  O2-  O185  1  0.16479811  0.86486633  0.49643409  1
  O2-  O186  1  0.10195310  0.85825951  0.74797028  1
  O2-  O187  1  0.30213325  0.37345102  0.00098352  1
  O2-  O188  1  0.37577129  0.36262601  0.24475568  1
  O2-  O189  1  0.37582133  0.37567232  0.50577298  1
  O2-  O190  1  0.34481536  0.36023269  0.75824529  1
  O2-  O191  1  0.25766422  0.82198659  0.11122101  1
  O2-  O192  1  0.36770178  0.87016471  0.23838464  1
  O2-  O193  1  0.34709962  0.77664076  0.59648722  1
  O2-  O194  1  0.39563225  0.87079455  0.73778230  1
  O2-  O195  1  0.63857735  0.37470470  0.00286923  1
  O2-  O196  1  0.57158835  0.37507264  0.24092163  1
  O2-  O197  1  0.58016673  0.36168765  0.50348061  1
  O2-  O198  1  0.63841855  0.35853980  0.76393380  1
  O2-  O199  1  0.61881016  0.84306045  -0.00102794  1
  O2-  O200  1  0.74369457  0.88369653  0.34347300  1
  O2-  O201  1  0.64173875  0.86778880  0.49433025  1
  O2-  O202  1  0.59671508  0.88227141  0.74951926  1
  O2-  O203  1  0.86583134  0.35846368  -0.00035303  1
  O2-  O204  1  0.87684441  0.37019435  0.25290554  1
  O2-  O205  1  0.90596855  0.34721428  0.48837621  1
  O2-  O206  1  0.86603828  0.35929825  0.74693351  1
  O2-  O207  1  0.89219899  0.83426583  0.04024083  1
  O2-  O208  1  0.89240736  0.84532520  0.23031064  1
  O2-  O209  1  0.85209627  0.87767048  0.49682345  1
  O2-  O210  1  0.90293309  0.88055078  0.74461318  1
  O2-  O211  1  -0.00893682  -0.12447523  -0.10078234  1
  O2-  O212  1  0.02068099  -0.12002129  0.37662060  1
  O2-  O213  1  0.00421994  -0.12085704  0.58946640  1
  O2-  O214  1  0.01437085  0.13877424  0.88645268  1
  O2-  O215  1  -0.01337201  0.63583713  -0.11782305  1
  O2-  O216  1  0.00635412  0.63102643  0.12034380  1
  O2-  O217  1  0.00515894  0.63983424  0.61558697  1
  O2-  O218  1  -0.00678167  0.49575819  0.72873616  1
  O2-  O219  1  0.36224421  -0.12023451  -0.00674197  1
  O2-  O220  1  0.25481379  -0.00615811  0.12682278  1
  O2-  O221  1  0.36707002  -0.08372835  0.48500996  1
  O2-  O222  1  0.25735072  -0.15258093  0.85589824  1
  O2-  O223  1  0.41366078  0.50377302  -0.03666453  1
  O2-  O224  1  0.30837895  0.49779262  0.13820496  1
  O2-  O225  1  0.25261107  0.61397107  0.61570444  1
  O2-  O226  1  0.28835684  0.49874644  0.84841965  1
  O2-  O227  1  0.48500994  -0.14390488  0.11330010  1
  O2-  O228  1  0.59652510  -0.11243440  0.24499525  1
  O2-  O229  1  0.50582787  -0.13056686  0.59661505  1
  O2-  O230  1  0.45998945  0.15507775  0.64689727  1
  O2-  O231  1  0.51498324  0.66053263  -0.12199942  1
  O2-  O232  1  0.51327952  0.61714647  0.29011366  1
  O2-  O233  1  0.51020738  0.61359640  0.44756476  1
  O2-  O234  1  0.49131302  0.34188438  0.66064985  1
  O2-  O235  1  0.76234834  -0.09787513  -0.05194452  1
  O2-  O236  1  0.73792285  -0.12594165  0.13568171  1
  O2-  O237  1  0.75403608  -0.08980768  0.63149466  1
  O2-  O238  1  0.75125959  -0.11232361  0.79480817  1
  O2-  O239  1  0.74735020  0.62254152  -0.04581315  1
  O2-  O240  1  0.75749187  0.53656581  0.11423387  1
  O2-  O241  1  0.75457299  0.62885071  0.62951295  1
  O2-  O242  1  0.74694634  0.61110762  0.80417580  1
