# generated using pymatgen
data_Gd19Ta56(WO20)8
_symmetry_space_group_name_H-M   'P 1'
_cell_length_a   15.56181823
_cell_length_b   15.46181805
_cell_length_c   15.19783168
_cell_angle_alpha   90.10438836
_cell_angle_beta   89.70748501
_cell_angle_gamma   89.87016478
_symmetry_Int_Tables_number   1
_chemical_formula_structural   Gd19Ta56(WO20)8
_chemical_formula_sum   'Gd19 Ta56 W8 O160'
_cell_volume   3656.74790903
_cell_formula_units_Z   1
loop_
 _symmetry_equiv_pos_site_id
 _symmetry_equiv_pos_as_xyz
  1  'x, y, z'
loop_
 _atom_type_symbol
 _atom_type_oxidation_number
  Gd3+  3.0
  Ta5+  5.0
  W6+  6.0
  O2-  -2.0
loop_
 _atom_site_type_symbol
 _atom_site_label
 _atom_site_symmetry_multiplicity
 _atom_site_fract_x
 _atom_site_fract_y
 _atom_site_fract_z
 _atom_site_occupancy
  Gd3+  Gd0  1  0.49569690  0.24828166  0.26149289  1
  Gd3+  Gd1  1  0.21923178  0.75192432  -0.01105814  1
  Gd3+  Gd2  1  0.77335170  0.22936269  0.73386387  1
  Gd3+  Gd3  1  0.46228372  0.28175009  0.73174864  1
  Gd3+  Gd4  1  0.48148762  0.76276888  0.02371344  1
  Gd3+  Gd5  1  0.49514768  0.74953670  0.74553562  1
  Gd3+  Gd6  1  0.23795586  0.25661004  -0.01876633  1
  Gd3+  Gd7  1  0.53094294  0.27211432  0.49660050  1
  Gd3+  Gd8  1  0.79128963  0.73850733  0.75138016  1
  Gd3+  Gd9  1  0.76759522  0.23236833  -0.01183820  1
  Gd3+  Gd10  1  0.19578512  0.79589958  0.72348200  1
  Gd3+  Gd11  1  0.73571307  0.74045113  -0.01557723  1
  Gd3+  Gd12  1  0.24661605  0.22970133  0.51257140  1
  Gd3+  Gd13  1  0.47769614  0.26992128  0.00840427  1
  Gd3+  Gd14  1  0.01587645  0.25377164  0.51236553  1
  Gd3+  Gd15  1  0.23467641  0.27431482  0.74307870  1
  Gd3+  Gd16  1  0.51340813  0.76653959  0.48377460  1
  Gd3+  Gd17  1  0.75270529  0.24920273  0.26411404  1
  Gd3+  Gd18  1  -0.00710452  0.73709093  0.26487604  1
  Ta5+  Ta19  1  0.84996721  0.07415550  0.37375662  1
  Ta5+  Ta20  1  0.08421947  0.38752568  0.87354963  1
  Ta5+  Ta21  1  0.84540933  0.61745700  0.37737944  1
  Ta5+  Ta22  1  0.12378384  0.87000848  0.38587882  1
  Ta5+  Ta23  1  0.92512337  0.62585171  0.87840129  1
  Ta5+  Ta24  1  0.36093139  0.12605772  0.12826657  1
  Ta5+  Ta25  1  0.38063512  0.42889572  0.87884372  1
  Ta5+  Ta26  1  0.37473537  0.39228089  0.14065135  1
  Ta5+  Ta27  1  0.13596971  0.07502009  0.86351132  1
  Ta5+  Ta28  1  0.62330642  0.37052913  0.87030445  1
  Ta5+  Ta29  1  0.91670486  0.63656075  0.61524020  1
  Ta5+  Ta30  1  0.55600262  0.60217131  0.87700699  1
  Ta5+  Ta31  1  0.36079046  0.41589789  0.58229229  1
  Ta5+  Ta32  1  0.11285965  0.37016388  0.12333711  1
  Ta5+  Ta33  1  0.89717570  0.09865862  0.61654909  1
  Ta5+  Ta34  1  0.63646050  0.87707995  0.61954536  1
  Ta5+  Ta35  1  0.38983890  0.62796568  0.89065088  1
  Ta5+  Ta36  1  0.63969927  0.62559419  0.62398625  1
  Ta5+  Ta37  1  0.64104691  0.86991948  0.13192260  1
  Ta5+  Ta38  1  0.86461156  0.87827563  0.11486695  1
  Ta5+  Ta39  1  0.36204793  0.42791862  0.37778791  1
  Ta5+  Ta40  1  0.09024542  0.63698052  0.85716434  1
  Ta5+  Ta41  1  0.85344339  0.62368183  0.11463719  1
  Ta5+  Ta42  1  0.10896327  0.87366388  0.13060216  1
  Ta5+  Ta43  1  0.39041317  0.08468843  0.63441029  1
  Ta5+  Ta44  1  0.38813556  0.10092445  0.38274827  1
  Ta5+  Ta45  1  0.60937880  0.43689414  0.62817331  1
  Ta5+  Ta46  1  0.84899364  0.85962817  0.37014993  1
  Ta5+  Ta47  1  0.34627499  0.89290039  0.13695154  1
  Ta5+  Ta48  1  0.39086124  0.89171380  0.63698370  1
  Ta5+  Ta49  1  0.12228185  0.07484333  0.65829893  1
  Ta5+  Ta50  1  0.62706100  0.38339969  0.12547333  1
  Ta5+  Ta51  1  0.12386469  0.40834981  0.62428983  1
  Ta5+  Ta52  1  0.87643768  0.37587240  0.12593929  1
  Ta5+  Ta53  1  0.88599988  0.39832686  0.63200877  1
  Ta5+  Ta54  1  0.08402984  0.64993661  0.60594972  1
  Ta5+  Ta55  1  0.34258533  0.66309784  0.38410585  1
  Ta5+  Ta56  1  0.89847833  0.12472359  0.12535403  1
  Ta5+  Ta57  1  0.04237820  0.88754977  0.61487141  1
  Ta5+  Ta58  1  0.60601323  0.87506822  0.86903885  1
  Ta5+  Ta59  1  0.86968639  0.40084374  0.38540806  1
  Ta5+  Ta60  1  0.61610090  0.11618355  0.62691947  1
  Ta5+  Ta61  1  0.87224427  0.88151923  0.61801787  1
  Ta5+  Ta62  1  0.68248224  0.85408472  0.36755354  1
  Ta5+  Ta63  1  0.61154058  0.11603377  0.13027535  1
  Ta5+  Ta64  1  0.40427714  0.12653423  0.87418977  1
  Ta5+  Ta65  1  0.14859186  0.37465534  0.36805005  1
  Ta5+  Ta66  1  0.65571954  0.41460931  0.37626462  1
  Ta5+  Ta67  1  0.34144566  0.63667099  0.14258759  1
  Ta5+  Ta68  1  0.63816838  0.06470774  0.37588948  1
  Ta5+  Ta69  1  0.61071521  0.12201280  0.87428336  1
  Ta5+  Ta70  1  0.35550186  0.64447168  0.63157195  1
  Ta5+  Ta71  1  0.14137845  0.62120242  0.36982731  1
  Ta5+  Ta72  1  0.88668638  0.38688678  0.87833035  1
  Ta5+  Ta73  1  0.67577606  0.62045896  0.36972139  1
  Ta5+  Ta74  1  0.90768146  0.87153983  0.88143227  1
  W6+  W75  1  0.15562275  0.10959548  0.37512948  1
  W6+  W76  1  0.93099185  0.07388531  0.85198735  1
  W6+  W77  1  0.09700701  0.61948495  0.11816118  1
  W6+  W78  1  0.61160652  0.62638990  0.12413566  1
  W6+  W79  1  0.36422386  0.90946505  0.38889941  1
  W6+  W80  1  0.38364285  0.87859447  0.88242360  1
  W6+  W81  1  0.07315569  0.88202586  0.87601310  1
  W6+  W82  1  0.14520783  0.12076622  0.12599004  1
  O2-  O83  1  0.09836089  -0.00783887  0.12971951  1
  O2-  O84  1  0.11575075  -0.00831581  0.37428648  1
  O2-  O85  1  0.15243081  -0.03987297  0.64704794  1
  O2-  O86  1  0.18755860  -0.03163983  0.85027249  1
  O2-  O87  1  0.12988562  0.48785926  0.12952351  1
  O2-  O88  1  0.16747517  0.49359931  0.35406255  1
  O2-  O89  1  0.08256735  0.52015347  0.63065661  1
  O2-  O90  1  0.09531492  0.50982201  0.86221726  1
  O2-  O91  1  0.30751055  0.01680579  0.12768729  1
  O2-  O92  1  0.46578115  0.01427501  0.39097870  1
  O2-  O93  1  0.47436977  0.00036619  0.66089050  1
  O2-  O94  1  0.38542065  0.01207379  0.85492352  1
  O2-  O95  1  0.34039407  0.50625386  0.15525282  1
  O2-  O96  1  0.38461336  0.54374357  0.35550740  1
  O2-  O97  1  0.38180675  0.52482846  0.63587399  1
  O2-  O98  1  0.30484573  0.51997479  0.89206749  1
  O2-  O99  1  0.60746248  -0.00682690  0.13362635  1
  O2-  O100  1  0.60765472  -0.04448898  0.33318839  1
  O2-  O101  1  0.64757191  0.00067587  0.60552863  1
  O2-  O102  1  0.60834783  0.00037680  0.88190547  1
  O2-  O103  1  0.62041264  0.49514409  0.09022596  1
  O2-  O104  1  0.58960650  0.51508916  0.38177847  1
  O2-  O105  1  0.54557793  0.53897828  0.60994243  1
  O2-  O106  1  0.63568963  0.48757001  0.88608085  1
  O2-  O107  1  0.88339988  0.00363081  0.13749787  1
  O2-  O108  1  0.91049474  -0.02437523  0.34344722  1
  O2-  O109  1  0.82278586  0.00606273  0.60572053  1
  O2-  O110  1  0.85113758  -0.02150272  0.89330656  1
  O2-  O111  1  0.86876948  0.49462203  0.13137298  1
  O2-  O112  1  0.91985000  0.50796812  0.35965673  1
  O2-  O113  1  0.90149880  0.51247192  0.65300592  1
  O2-  O114  1  0.87315642  0.50811783  0.86345980  1
  O2-  O115  1  0.17393223  0.25931459  0.11488850  1
  O2-  O116  1  0.13023628  0.23677988  0.41354506  1
  O2-  O117  1  0.15340852  0.27102270  0.61682176  1
  O2-  O118  1  0.15257807  0.27530692  0.86376619  1
  O2-  O119  1  0.05688794  0.75349604  0.12931210  1
  O2-  O120  1  0.09630015  0.74072676  0.37731324  1
  O2-  O121  1  0.11399560  0.77354392  0.60039677  1
  O2-  O122  1  0.15007081  0.76212229  0.85953044  1
  O2-  O123  1  0.36056228  0.26034037  0.12339553  1
  O2-  O124  1  0.43894085  0.21764491  0.39716710  1
  O2-  O125  1  0.34708695  0.28972909  0.60522195  1
  O2-  O126  1  0.35356111  0.24652547  0.87809149  1
  O2-  O127  1  0.37641395  0.76161632  0.13210754  1
  O2-  O128  1  0.40301739  0.76991367  0.38589173  1
  O2-  O129  1  0.41713053  0.75722159  0.61374903  1
  O2-  O130  1  0.35372445  0.74739567  0.91949470  1
  O2-  O131  1  0.64184210  0.24451159  0.15923459  1
  O2-  O132  1  0.58660409  0.30899043  0.36244917  1
  O2-  O133  1  0.68591364  0.21023868  0.60219186  1
  O2-  O134  1  0.66631559  0.24147605  0.86374197  1
  O2-  O135  1  0.57674394  0.76399087  0.14113206  1
  O2-  O136  1  0.63397479  0.74082511  0.37414924  1
  O2-  O137  1  0.59334733  0.74759923  0.62232606  1
  O2-  O138  1  0.69410247  0.79039367  0.85079218  1
  O2-  O139  1  0.83150598  0.24329893  0.12992290  1
  O2-  O140  1  0.95898982  0.32180986  0.40090753  1
  O2-  O141  1  0.88361787  0.22686770  0.61338790  1
  O2-  O142  1  0.83629573  0.27089218  0.86589654  1
  O2-  O143  1  0.84137993  0.75086111  0.09430943  1
  O2-  O144  1  0.88206376  0.73816284  0.37494322  1
  O2-  O145  1  0.87471141  0.75258229  0.61794634  1
  O2-  O146  1  0.86880989  0.74748058  0.90101161  1
  O2-  O147  1  0.16555552  0.12742010  -0.02680409  1
  O2-  O148  1  0.17719710  0.13296325  0.25307888  1
  O2-  O149  1  0.15785677  0.11312349  0.54510809  1
  O2-  O150  1  0.19829014  0.12394588  0.75128644  1
  O2-  O151  1  0.11557905  0.64644917  -0.01732095  1
  O2-  O152  1  0.07758244  0.61493019  0.25739931  1
  O2-  O153  1  0.13035169  0.61344285  0.49144920  1
  O2-  O154  1  0.12139252  0.66010141  0.73287563  1
  O2-  O155  1  0.35182720  0.13510084  -0.00079463  1
  O2-  O156  1  0.39166370  0.13146155  0.25702933  1
  O2-  O157  1  0.35827254  0.12324286  0.51793377  1
  O2-  O158  1  0.36432767  0.15607938  0.73436690  1
  O2-  O159  1  0.39905933  0.62015016  0.02808142  1
  O2-  O160  1  0.30070038  0.66421454  0.26313301  1
  O2-  O161  1  0.31949264  0.65142114  0.50650372  1
  O2-  O162  1  0.37193979  0.65405843  0.75994208  1
  O2-  O163  1  0.66087387  0.12704108  0.01213353  1
  O2-  O164  1  0.59779800  0.12387811  0.27041184  1
  O2-  O165  1  0.59261993  0.11451600  0.48076894  1
  O2-  O166  1  0.65904369  0.11558511  0.74653581  1
  O2-  O167  1  0.59590132  0.65988280  -0.01482971  1
  O2-  O168  1  0.65993697  0.61670548  0.24723615  1
  O2-  O169  1  0.66477816  0.62836618  0.50457378  1
  O2-  O170  1  0.58924379  0.63071471  0.75963094  1
  O2-  O171  1  0.87189724  0.13046093  0.00301287  1
  O2-  O172  1  0.86776304  0.13820336  0.26409559  1
  O2-  O173  1  0.90443718  0.11750751  0.47608925  1
  O2-  O174  1  0.86137134  0.11357455  0.73957164  1
  O2-  O175  1  0.92459245  0.61514746  0.01299338  1
  O2-  O176  1  0.87540236  0.63828826  0.23805119  1
  O2-  O177  1  0.86489336  0.61324357  0.50002648  1
  O2-  O178  1  0.91470380  0.65375387  0.75396118  1
  O2-  O179  1  0.14389765  0.37569870  -0.00657077  1
  O2-  O180  1  0.10331024  0.35363803  0.25570492  1
  O2-  O181  1  0.11120619  0.38552650  0.49083899  1
  O2-  O182  1  0.13471878  0.38686210  0.74945912  1
  O2-  O183  1  0.12469444  0.86141653  0.00572771  1
  O2-  O184  1  0.08700406  0.86057259  0.26133225  1
  O2-  O185  1  0.05212836  0.88107320  0.48722193  1
  O2-  O186  1  0.06199912  0.85830338  0.74037265  1
  O2-  O187  1  0.37335360  0.38557852  0.00339838  1
  O2-  O188  1  0.40400958  0.37064637  0.26830481  1
  O2-  O189  1  0.44002782  0.38770345  0.46389847  1
  O2-  O190  1  0.35188703  0.37687297  0.76806557  1
  O2-  O191  1  0.41045403  0.89742885  0.02844504  1
  O2-  O192  1  0.38331882  0.91053109  0.24917844  1
  O2-  O193  1  0.42091472  0.88811068  0.51354916  1
  O2-  O194  1  0.34907894  0.84594671  0.75025285  1
  O2-  O195  1  0.62114455  0.33062433  0.00158734  1
  O2-  O196  1  0.66951234  0.39937012  0.24358736  1
  O2-  O197  1  0.63513643  0.39154263  0.51280181  1
  O2-  O198  1  0.61244377  0.36477043  0.73804194  1
  O2-  O199  1  0.60413162  0.85231139  -0.00272471  1
  O2-  O200  1  0.70276461  0.84952802  0.23497998  1
  O2-  O201  1  0.62540243  0.86402721  0.49284177  1
  O2-  O202  1  0.58499539  0.87895438  0.74083039  1
  O2-  O203  1  0.82155498  0.37053924  0.00882342  1
  O2-  O204  1  0.85633781  0.36148809  0.25232875  1
  O2-  O205  1  0.84646490  0.40104488  0.51546929  1
  O2-  O206  1  0.81370139  0.36951872  0.72795868  1
  O2-  O207  1  0.93780241  0.87550024  0.01667158  1
  O2-  O208  1  0.89268490  0.84623019  0.23240478  1
  O2-  O209  1  0.85567839  0.87560546  0.49242142  1
  O2-  O210  1  0.87886362  0.85994875  0.75821437  1
  O2-  O211  1  0.03581519  0.01651153  -0.08374312  1
  O2-  O212  1  0.01101473  0.15160232  0.12611442  1
  O2-  O213  1  0.00406516  0.03210089  0.61867836  1
  O2-  O214  1  0.04407704  0.10979513  0.77335895  1
  O2-  O215  1  -0.01775511  0.39211260  -0.04370232  1
  O2-  O216  1  -0.00729860  0.34803401  0.11802331  1
  O2-  O217  1  0.00115068  0.35640030  0.61818989  1
  O2-  O218  1  -0.02068046  0.36264371  0.79874087  1
  O2-  O219  1  0.23027342  -0.15093192  0.14095871  1
  O2-  O220  1  0.23991496  -0.14675301  0.40099289  1
  O2-  O221  1  0.28444935  0.03725071  0.37991957  1
  O2-  O222  1  0.31194554  -0.00751585  0.63946672  1
  O2-  O223  1  0.23050475  0.65198919  0.10093822  1
  O2-  O224  1  0.26554349  0.33706186  0.36799495  1
  O2-  O225  1  0.29571261  0.45725053  0.48316558  1
  O2-  O226  1  0.24610796  0.42059859  0.63376274  1
  O2-  O227  1  0.50748738  0.13510508  -0.04688298  1
  O2-  O228  1  0.49396816  0.15564440  0.12405677  1
  O2-  O229  1  0.50248813  0.17276632  0.61946454  1
  O2-  O230  1  0.51080945  0.15771045  0.80034777  1
  O2-  O231  1  0.49890447  0.34262394  -0.12652493  1
  O2-  O232  1  0.50285296  0.35513753  0.13510599  1
  O2-  O233  1  0.48922817  0.37303818  0.61937670  1
  O2-  O234  1  0.46558221  0.51045828  0.84292396  1
  O2-  O235  1  0.74980291  -0.10729452  0.06731726  1
  O2-  O236  1  0.74982857  -0.00653353  0.40115286  1
  O2-  O237  1  0.73737922  0.14713357  0.37023043  1
  O2-  O238  1  0.74398566  -0.15390069  0.65812233  1
  O2-  O239  1  0.74037456  0.61740238  0.07040541  1
  O2-  O240  1  0.75664480  0.50308436  0.37672422  1
  O2-  O241  1  0.75910026  0.33423123  0.38633291  1
  O2-  O242  1  0.70121729  0.51210013  0.65658649  1
