# generated using pymatgen
data_Gd19Ta56(WO20)8
_symmetry_space_group_name_H-M   'P 1'
_cell_length_a   15.56145401
_cell_length_b   15.50525776
_cell_length_c   15.28494236
_cell_angle_alpha   89.96474247
_cell_angle_beta   90.00208334
_cell_angle_gamma   89.93512522
_symmetry_Int_Tables_number   1
_chemical_formula_structural   Gd19Ta56(WO20)8
_chemical_formula_sum   'Gd19 Ta56 W8 O160'
_cell_volume   3688.01440247
_cell_formula_units_Z   1
loop_
 _symmetry_equiv_pos_site_id
 _symmetry_equiv_pos_as_xyz
  1  'x, y, z'
loop_
 _atom_type_symbol
 _atom_type_oxidation_number
  Gd3+  3.0
  Ta5+  5.0
  W6+  6.0
  O2-  -2.0
loop_
 _atom_site_type_symbol
 _atom_site_label
 _atom_site_symmetry_multiplicity
 _atom_site_fract_x
 _atom_site_fract_y
 _atom_site_fract_z
 _atom_site_occupancy
  Gd3+  Gd0  1  0.23353016  0.28838954  0.26092618  1
  Gd3+  Gd1  1  0.50099069  0.75793935  0.50494391  1
  Gd3+  Gd2  1  0.51575954  0.76344032  0.74996840  1
  Gd3+  Gd3  1  0.24304730  0.75443752  -0.00069638  1
  Gd3+  Gd4  1  0.01858779  0.22687602  0.48908719  1
  Gd3+  Gd5  1  0.50326358  0.74263248  -0.00297702  1
  Gd3+  Gd6  1  0.75555538  0.74918227  -0.01292456  1
  Gd3+  Gd7  1  0.53565085  0.25089844  0.24656003  1
  Gd3+  Gd8  1  0.71091952  0.26150594  0.73126901  1
  Gd3+  Gd9  1  0.77353014  0.74544206  0.23849950  1
  Gd3+  Gd10  1  0.01312908  0.24863963  0.75137215  1
  Gd3+  Gd11  1  -0.01779140  0.72902048  0.72399555  1
  Gd3+  Gd12  1  0.45549603  0.26285189  0.73716503  1
  Gd3+  Gd13  1  0.03360225  0.76470436  0.50061671  1
  Gd3+  Gd14  1  0.24242299  0.75768567  0.25056581  1
  Gd3+  Gd15  1  0.22741572  0.74249509  0.73860746  1
  Gd3+  Gd16  1  -0.02470025  0.24195552  0.00913705  1
  Gd3+  Gd17  1  0.51967867  0.75520820  0.25575187  1
  Gd3+  Gd18  1  0.25875335  0.26354209  0.01618476  1
  Ta5+  Ta19  1  0.91638679  0.89559955  0.11714130  1
  Ta5+  Ta20  1  0.11225484  0.38228081  0.88425115  1
  Ta5+  Ta21  1  0.12077815  0.12382519  0.88598936  1
  Ta5+  Ta22  1  0.87092781  0.12991795  0.61750042  1
  Ta5+  Ta23  1  0.36534940  0.62430718  0.87575613  1
  Ta5+  Ta24  1  0.58292902  0.11112059  0.62495021  1
  Ta5+  Ta25  1  0.13908574  0.89107519  0.36537522  1
  Ta5+  Ta26  1  0.62655533  0.88754908  0.37639212  1
  Ta5+  Ta27  1  0.11016073  0.62213700  0.12041081  1
  Ta5+  Ta28  1  0.39117578  0.38008598  0.14029927  1
  Ta5+  Ta29  1  0.12719769  0.62242260  0.37547004  1
  Ta5+  Ta30  1  0.15282675  0.12480012  0.62989144  1
  Ta5+  Ta31  1  0.88663099  0.35421535  0.35523858  1
  Ta5+  Ta32  1  0.42348146  0.89068650  0.11684371  1
  Ta5+  Ta33  1  0.88053921  0.11660903  0.35721390  1
  Ta5+  Ta34  1  0.86099945  0.36744924  0.86464680  1
  Ta5+  Ta35  1  0.35978377  0.92804740  0.61999574  1
  Ta5+  Ta36  1  0.89132736  0.87094600  0.36562675  1
  Ta5+  Ta37  1  0.85355366  0.59801200  0.59604801  1
  Ta5+  Ta38  1  0.62210555  0.61317711  0.87589125  1
  Ta5+  Ta39  1  0.35461532  0.13138328  0.88411712  1
  Ta5+  Ta40  1  0.15019465  0.90819173  0.62449507  1
  Ta5+  Ta41  1  0.09606616  0.38088415  0.13475541  1
  Ta5+  Ta42  1  0.17955723  0.13144157  0.38248572  1
  Ta5+  Ta43  1  0.36583945  0.88540328  0.86990483  1
  Ta5+  Ta44  1  0.31830210  0.13621608  0.62789042  1
  Ta5+  Ta45  1  0.83262116  0.11729505  0.10992167  1
  Ta5+  Ta46  1  0.10995341  0.37854337  0.38834884  1
  Ta5+  Ta47  1  0.88417129  0.86885043  0.86221623  1
  Ta5+  Ta48  1  0.14085319  0.36898336  0.62893732  1
  Ta5+  Ta49  1  0.37780534  0.89378588  0.36664936  1
  Ta5+  Ta50  1  0.84391362  0.37232062  0.11762680  1
  Ta5+  Ta51  1  0.87739937  0.35102170  0.60803869  1
  Ta5+  Ta52  1  0.40308023  0.61823861  0.13079399  1
  Ta5+  Ta53  1  0.62063271  0.12787892  0.88858770  1
  Ta5+  Ta54  1  0.65152996  0.13380204  0.38520702  1
  Ta5+  Ta55  1  0.36084241  0.38069356  0.88249685  1
  Ta5+  Ta56  1  0.62425723  0.37539018  0.88443058  1
  Ta5+  Ta57  1  0.61883021  0.60994772  0.62417370  1
  Ta5+  Ta58  1  0.86221088  0.61005955  0.85381587  1
  Ta5+  Ta59  1  0.60493902  0.89191990  0.89052418  1
  Ta5+  Ta60  1  0.65495547  0.88229707  0.62577024  1
  Ta5+  Ta61  1  0.13304404  0.57252039  0.62659732  1
  Ta5+  Ta62  1  0.85845810  0.11508271  0.86252668  1
  Ta5+  Ta63  1  0.36933392  0.62244285  0.37411572  1
  Ta5+  Ta64  1  0.67421218  0.37184067  0.13578365  1
  Ta5+  Ta65  1  0.12137183  0.88478247  0.87868227  1
  Ta5+  Ta66  1  0.31095068  0.38427426  0.62370228  1
  Ta5+  Ta67  1  0.66756738  0.13376993  0.12433702  1
  Ta5+  Ta68  1  0.13743296  0.12810423  0.13762223  1
  Ta5+  Ta69  1  0.88798280  0.60165538  0.35997927  1
  Ta5+  Ta70  1  0.90833537  0.61842787  0.09923373  1
  Ta5+  Ta71  1  0.36196663  0.61167800  0.62137506  1
  Ta5+  Ta72  1  0.85112326  0.89650859  0.61260790  1
  Ta5+  Ta73  1  0.61346446  0.60993597  0.12816899  1
  Ta5+  Ta74  1  0.34791681  0.14348492  0.37879317  1
  W6+  W75  1  0.63296587  0.61657185  0.37837143  1
  W6+  W76  1  0.09477959  0.62029294  0.90065459  1
  W6+  W77  1  0.64382488  0.37185506  0.40093855  1
  W6+  W78  1  0.36641194  0.13180676  0.14653406  1
  W6+  W79  1  0.10759267  0.93349517  0.10910491  1
  W6+  W80  1  0.40780391  0.37956337  0.39605253  1
  W6+  W81  1  0.63502676  0.88615148  0.11658537  1
  W6+  W82  1  0.56733118  0.36445568  0.60053648  1
  O2-  O83  1  0.20273326  0.02883279  0.13740629  1
  O2-  O84  1  0.15525668  0.00857689  0.35987184  1
  O2-  O85  1  0.08731012  0.00775220  0.64669483  1
  O2-  O86  1  0.09048681  0.00438642  0.88156018  1
  O2-  O87  1  0.11750395  0.50107374  0.14406008  1
  O2-  O88  1  0.11260751  0.50141030  0.37590079  1
  O2-  O89  1  0.05680458  0.48250364  0.64094411  1
  O2-  O90  1  0.07157033  0.49253521  0.87021515  1
  O2-  O91  1  0.39629882  0.00376979  0.12380214  1
  O2-  O92  1  0.36337095  0.01032041  0.37017018  1
  O2-  O93  1  0.41491405  0.03571635  0.62027310  1
  O2-  O94  1  0.35470858  0.00484117  0.88243812  1
  O2-  O95  1  0.36670895  0.50226586  0.13687555  1
  O2-  O96  1  0.41790307  0.51600794  0.36526642  1
  O2-  O97  1  0.39352236  0.49702249  0.63012242  1
  O2-  O98  1  0.37021077  0.50554353  0.89310047  1
  O2-  O99  1  0.65816289  0.01479800  0.12754725  1
  O2-  O100  1  0.64389803  0.00649995  0.37658271  1
  O2-  O101  1  0.58785104  -0.01326691  0.64378288  1
  O2-  O102  1  0.57582507  0.00783121  0.87624671  1
  O2-  O103  1  0.66076738  0.50118889  0.13698497  1
  O2-  O104  1  0.66492863  0.49859660  0.39070897  1
  O2-  O105  1  0.60623052  0.49493752  0.62508395  1
  O2-  O106  1  0.58555090  0.49751533  0.87149729  1
  O2-  O107  1  0.84221994  -0.00989513  0.09390447  1
  O2-  O108  1  0.85986194  -0.01185789  0.37397295  1
  O2-  O109  1  0.88696042  0.01044837  0.63944369  1
  O2-  O110  1  0.86486471  -0.01185682  0.84249341  1
  O2-  O111  1  0.87299650  0.50477431  0.11245548  1
  O2-  O112  1  0.90457539  0.48254647  0.36099688  1
  O2-  O113  1  0.86365323  0.47923393  0.60001217  1
  O2-  O114  1  0.88289316  0.49287631  0.85674805  1
  O2-  O115  1  0.15087462  0.26141957  0.12163134  1
  O2-  O116  1  0.15435911  0.25953835  0.40019947  1
  O2-  O117  1  0.11209694  0.24461231  0.61854871  1
  O2-  O118  1  0.07588997  0.25213125  0.89249806  1
  O2-  O119  1  0.18004215  0.72963968  0.12567859  1
  O2-  O120  1  0.13190095  0.75205225  0.38714835  1
  O2-  O121  1  0.08305969  0.80120315  0.63922476  1
  O2-  O122  1  0.14999369  0.75336736  0.88030122  1
  O2-  O123  1  0.33290982  0.26617573  0.15318830  1
  O2-  O124  1  0.34013782  0.27295853  0.36605756  1
  O2-  O125  1  0.33716185  0.25938596  0.63708353  1
  O2-  O126  1  0.39752342  0.25729900  0.87997489  1
  O2-  O127  1  0.42539718  0.75152446  0.12891381  1
  O2-  O128  1  0.41610863  0.74499174  0.36755142  1
  O2-  O129  1  0.43580436  0.70817102  0.64330787  1
  O2-  O130  1  0.32884381  0.75849597  0.85537054  1
  O2-  O131  1  0.62422542  0.25791856  0.12367631  1
  O2-  O132  1  0.58934759  0.24076835  0.38707044  1
  O2-  O133  1  0.52941427  0.22496942  0.61355797  1
  O2-  O134  1  0.64668024  0.25034914  0.87288402  1
  O2-  O135  1  0.61336037  0.74439015  0.10613108  1
  O2-  O136  1  0.60086420  0.74915990  0.38229019  1
  O2-  O137  1  0.59670274  0.76529178  0.62657407  1
  O2-  O138  1  0.62144559  0.74832750  0.89465466  1
  O2-  O139  1  0.85046144  0.24347157  0.10301147  1
  O2-  O140  1  0.93867069  0.23021591  0.35417619  1
  O2-  O141  1  0.93930824  0.23724644  0.61933148  1
  O2-  O142  1  0.89605745  0.24195696  0.86687212  1
  O2-  O143  1  0.84188963  0.73186397  0.10999819  1
  O2-  O144  1  0.84985537  0.75183299  0.36785670  1
  O2-  O145  1  0.94634857  0.68028981  0.58433189  1
  O2-  O146  1  0.82424077  0.75933868  0.85155235  1
  O2-  O147  1  0.09184244  0.13393132  0.01452786  1
  O2-  O148  1  0.14209380  0.16193459  0.26021495  1
  O2-  O149  1  0.13629530  0.11538056  0.50160998  1
  O2-  O150  1  0.12205050  0.14079721  0.75947595  1
  O2-  O151  1  0.17655432  0.61543289  0.00703949  1
  O2-  O152  1  0.15072862  0.63307513  0.25429180  1
  O2-  O153  1  0.10561238  0.62427854  0.51614403  1
  O2-  O154  1  0.11252475  0.64190769  0.72997340  1
  O2-  O155  1  0.34914431  0.14646690  0.01272863  1
  O2-  O156  1  0.42050096  0.15041407  0.26801909  1
  O2-  O157  1  0.33934899  0.14033966  0.50161879  1
  O2-  O158  1  0.36318809  0.13603080  0.75589194  1
  O2-  O159  1  0.35664136  0.65435357  0.00483456  1
  O2-  O160  1  0.34174614  0.64498809  0.24418743  1
  O2-  O161  1  0.39262699  0.63839992  0.49963786  1
  O2-  O162  1  0.33090405  0.62232623  0.75500635  1
  O2-  O163  1  0.60447590  0.13600069  0.00744678  1
  O2-  O164  1  0.64202913  0.14183406  0.25646970  1
  O2-  O165  1  0.63611800  0.11657149  0.51560751  1
  O2-  O166  1  0.62711460  0.13775246  0.74134935  1
  O2-  O167  1  0.66021051  0.62011195  -0.00171715  1
  O2-  O168  1  0.66212523  0.64915836  0.24298584  1
  O2-  O169  1  0.57597496  0.63203489  0.50965738  1
  O2-  O170  1  0.59136425  0.63772940  0.74574857  1
  O2-  O171  1  0.89466689  0.11700615  -0.01415812  1
  O2-  O172  1  0.86220582  0.11368812  0.23526926  1
  O2-  O173  1  0.90839916  0.12293284  0.49239666  1
  O2-  O174  1  0.82324331  0.15049481  0.73585536  1
  O2-  O175  1  0.85114876  0.63178504  -0.02042194  1
  O2-  O176  1  0.85058043  0.61962778  0.24349294  1
  O2-  O177  1  0.82887147  0.60765427  0.46975107  1
  O2-  O178  1  0.87372539  0.62428739  0.72310036  1
  O2-  O179  1  0.07383548  0.37591274  0.01004657  1
  O2-  O180  1  0.09205041  0.35340942  0.26043034  1
  O2-  O181  1  0.08831526  0.37612983  0.51130418  1
  O2-  O182  1  0.12757653  0.35264936  0.75835574  1
  O2-  O183  1  0.17893016  0.88955031  -0.01147460  1
  O2-  O184  1  0.14663496  0.86880700  0.24359339  1
  O2-  O185  1  0.12609487  0.89151160  0.50188586  1
  O2-  O186  1  0.17134589  0.88721777  0.76400883  1
  O2-  O187  1  0.37687546  0.36719379  0.01496033  1
  O2-  O188  1  0.44357244  0.36822783  0.25486979  1
  O2-  O189  1  0.32697058  0.38853546  0.50383303  1
  O2-  O190  1  0.35710461  0.37957269  0.75560750  1
  O2-  O191  1  0.36282264  0.85647611  0.00074522  1
  O2-  O192  1  0.36063181  0.86644448  0.24119469  1
  O2-  O193  1  0.39912123  0.87924930  0.50951297  1
  O2-  O194  1  0.39499449  0.88538862  0.73420458  1
  O2-  O195  1  0.64946275  0.38188070  0.00183886  1
  O2-  O196  1  0.63556530  0.36347482  0.25940141  1
  O2-  O197  1  0.67303604  0.34279885  0.52470387  1
  O2-  O198  1  0.58447301  0.34464763  0.74356861  1
  O2-  O199  1  0.68988132  0.88493147  -0.01981987  1
  O2-  O200  1  0.67889230  0.85977134  0.26472565  1
  O2-  O201  1  0.61176083  0.87064906  0.50270407  1
  O2-  O202  1  0.62731241  0.87081541  0.76688660  1
  O2-  O203  1  0.88301656  0.36730077  -0.01095528  1
  O2-  O204  1  0.89510678  0.35856469  0.23039494  1
  O2-  O205  1  0.91273125  0.34078500  0.48454593  1
  O2-  O206  1  0.87858984  0.35181510  0.73378755  1
  O2-  O207  1  0.87017855  0.86255702  -0.01534818  1
  O2-  O208  1  0.87843039  0.85977583  0.23671132  1
  O2-  O209  1  0.90605626  0.85712370  0.50642298  1
  O2-  O210  1  0.90964487  0.85620788  0.72081309  1
  O2-  O211  1  0.01542450  -0.15939911  0.06972797  1
  O2-  O212  1  -0.00493550  -0.02943298  0.17195704  1
  O2-  O213  1  0.01104725  -0.12785081  0.36890160  1
  O2-  O214  1  0.00495452  -0.15296007  0.86083621  1
  O2-  O215  1  0.01516861  0.60792672  0.02650574  1
  O2-  O216  1  0.00234479  0.65778903  0.17552881  1
  O2-  O217  1  -0.00197226  0.64761081  0.38054157  1
  O2-  O218  1  -0.02439006  0.66168581  0.85306877  1
  O2-  O219  1  0.23595746  0.17543907  -0.11010285  1
  O2-  O220  1  0.26161962  -0.14501722  0.38490761  1
  O2-  O221  1  0.26178155  -0.16092010  0.62676050  1
  O2-  O222  1  0.25392954  0.00201522  0.62160358  1
  O2-  O223  1  0.23691091  0.36506393  -0.09879976  1
  O2-  O224  1  0.25123748  0.62016680  0.39870578  1
  O2-  O225  1  0.24588854  0.65148120  0.61339616  1
  O2-  O226  1  0.22150336  0.48453832  0.64196563  1
  O2-  O227  1  0.52655099  -0.11054058  0.02639182  1
  O2-  O228  1  0.52323603  -0.11296849  0.19290870  1
  O2-  O229  1  0.50513784  -0.10850611  0.36237339  1
  O2-  O230  1  0.48618709  -0.15571040  0.87432751  1
  O2-  O231  1  0.50604993  0.60074268  0.05211667  1
  O2-  O232  1  0.50627953  0.61355306  0.21070566  1
  O2-  O233  1  0.51997911  0.38927065  0.46376803  1
  O2-  O234  1  0.48511581  0.65452674  0.87114154  1
  O2-  O235  1  0.74033227  0.10274942  -0.11589883  1
  O2-  O236  1  0.76846244  0.15380269  0.38995692  1
  O2-  O237  1  0.74614845  -0.05143591  0.56600266  1
  O2-  O238  1  0.76066109  -0.17833089  0.65962226  1
  O2-  O239  1  0.74055717  0.38616454  -0.16878844  1
  O2-  O240  1  0.77208093  0.34329430  0.36731344  1
  O2-  O241  1  0.73732445  0.63108397  0.61898957  1
  O2-  O242  1  0.73586875  0.60441967  0.83778249  1
