# generated using pymatgen
data_Gd19Ta56(WO20)8
_symmetry_space_group_name_H-M   'P 1'
_cell_length_a   15.53068441
_cell_length_b   15.52017799
_cell_length_c   15.32425734
_cell_angle_alpha   90.01709825
_cell_angle_beta   89.84131502
_cell_angle_gamma   89.79531911
_symmetry_Int_Tables_number   1
_chemical_formula_structural   Gd19Ta56(WO20)8
_chemical_formula_sum   'Gd19 Ta56 W8 O160'
_cell_volume   3693.70554343
_cell_formula_units_Z   1
loop_
 _symmetry_equiv_pos_site_id
 _symmetry_equiv_pos_as_xyz
  1  'x, y, z'
loop_
 _atom_type_symbol
 _atom_type_oxidation_number
  Gd3+  3.0
  Ta5+  5.0
  W6+  6.0
  O2-  -2.0
loop_
 _atom_site_type_symbol
 _atom_site_label
 _atom_site_symmetry_multiplicity
 _atom_site_fract_x
 _atom_site_fract_y
 _atom_site_fract_z
 _atom_site_occupancy
  Gd3+  Gd0  1  0.50718762  0.73610223  0.00710789  1
  Gd3+  Gd1  1  0.00314084  0.24827739  0.50553350  1
  Gd3+  Gd2  1  0.74798407  0.25777170  0.49163424  1
  Gd3+  Gd3  1  0.74201392  0.24708158  0.75694933  1
  Gd3+  Gd4  1  0.22114751  0.25445048  0.24161159  1
  Gd3+  Gd5  1  0.73378719  0.76272162  0.47560231  1
  Gd3+  Gd6  1  0.75840551  0.76532489  -0.00822643  1
  Gd3+  Gd7  1  0.25419495  0.76699819  0.72073628  1
  Gd3+  Gd8  1  0.24083761  0.24778359  -0.00920975  1
  Gd3+  Gd9  1  0.47227691  0.25484017  0.74804668  1
  Gd3+  Gd10  1  0.50051248  0.24658842  0.24754863  1
  Gd3+  Gd11  1  0.76095849  0.24107674  0.01240918  1
  Gd3+  Gd12  1  0.01253425  0.76218863  0.24009292  1
  Gd3+  Gd13  1  0.25565751  0.74267815  0.29123512  1
  Gd3+  Gd14  1  0.22907826  0.25788117  0.73754259  1
  Gd3+  Gd15  1  0.50921063  0.24676091  -0.00143875  1
  Gd3+  Gd16  1  -0.01072818  0.25195619  0.24946708  1
  Gd3+  Gd17  1  0.49543737  0.73689571  0.74974504  1
  Gd3+  Gd18  1  0.02570184  0.73174378  -0.02082850  1
  Ta5+  Ta19  1  0.88948249  0.39247998  0.38815670  1
  Ta5+  Ta20  1  0.41124188  0.87732531  0.37395918  1
  Ta5+  Ta21  1  0.64149056  0.63019632  0.62043422  1
  Ta5+  Ta22  1  0.63589734  0.62153417  0.36121950  1
  Ta5+  Ta23  1  0.60747696  0.38930166  0.65080373  1
  Ta5+  Ta24  1  0.13691177  0.61710581  0.12454473  1
  Ta5+  Ta25  1  0.34951153  0.62347672  0.87782392  1
  Ta5+  Ta26  1  0.37861303  0.86691325  0.88572471  1
  Ta5+  Ta27  1  0.57776873  0.87567952  0.61078969  1
  Ta5+  Ta28  1  0.88247293  0.87750543  0.86085231  1
  Ta5+  Ta29  1  0.87835949  0.88399185  0.12038453  1
  Ta5+  Ta30  1  0.87651431  0.40917917  0.63913477  1
  Ta5+  Ta31  1  0.37368129  0.61629972  0.13118980  1
  Ta5+  Ta32  1  0.65641690  0.62818748  0.12917698  1
  Ta5+  Ta33  1  0.35471772  0.38742689  0.11386929  1
  Ta5+  Ta34  1  0.60460029  0.11268645  0.86733151  1
  Ta5+  Ta35  1  0.87506695  0.11809874  0.37714453  1
  Ta5+  Ta36  1  0.87288675  0.11529786  0.63439113  1
  Ta5+  Ta37  1  0.90088975  0.12314654  0.87390242  1
  Ta5+  Ta38  1  0.13079427  0.88378646  0.38172910  1
  Ta5+  Ta39  1  0.10893835  0.39466339  0.62936222  1
  Ta5+  Ta40  1  0.88411040  0.87084758  0.37380040  1
  Ta5+  Ta41  1  0.10743418  0.12315993  0.86141716  1
  Ta5+  Ta42  1  0.89839499  0.37626239  0.88698241  1
  Ta5+  Ta43  1  0.89332024  0.62424518  0.12245310  1
  Ta5+  Ta44  1  0.07327155  0.63542580  0.38783873  1
  Ta5+  Ta45  1  0.60254707  0.12268017  0.63242751  1
  Ta5+  Ta46  1  0.64488038  0.62677372  0.86279873  1
  Ta5+  Ta47  1  0.13396022  0.87687351  0.86390521  1
  Ta5+  Ta48  1  0.35791103  0.36997299  0.37205997  1
  Ta5+  Ta49  1  0.66552189  0.38002764  0.30708810  1
  Ta5+  Ta50  1  0.39438140  0.11083853  0.87338855  1
  Ta5+  Ta51  1  0.60635769  0.38994370  0.87226995  1
  Ta5+  Ta52  1  0.09583221  0.39254944  0.87073265  1
  Ta5+  Ta53  1  0.36434758  0.12522672  0.37512387  1
  Ta5+  Ta54  1  0.09831098  0.87499562  0.61461763  1
  Ta5+  Ta55  1  0.62801196  0.11459721  0.12543253  1
  Ta5+  Ta56  1  0.80969452  0.64147070  0.62355534  1
  Ta5+  Ta57  1  0.15276209  0.86966377  0.11329515  1
  Ta5+  Ta58  1  0.10747350  0.39048515  0.37253480  1
  Ta5+  Ta59  1  0.10217578  0.38244057  0.10486358  1
  Ta5+  Ta60  1  0.41051256  0.61709679  0.36922986  1
  Ta5+  Ta61  1  0.85851601  0.38018548  0.13809504  1
  Ta5+  Ta62  1  0.37291702  0.11412598  0.11959538  1
  Ta5+  Ta63  1  0.57945463  0.87759080  0.37463792  1
  Ta5+  Ta64  1  0.62874972  0.87383937  0.13207244  1
  Ta5+  Ta65  1  0.62520683  0.12191176  0.37968075  1
  Ta5+  Ta66  1  0.88277484  0.61998702  0.86078450  1
  Ta5+  Ta67  1  0.39221650  0.42700678  0.87007425  1
  Ta5+  Ta68  1  0.36967782  0.38322280  0.61850830  1
  Ta5+  Ta69  1  0.63278272  0.87330359  0.85988429  1
  Ta5+  Ta70  1  0.35964894  0.11762084  0.62517509  1
  Ta5+  Ta71  1  0.86960254  0.87391927  0.61810373  1
  Ta5+  Ta72  1  0.90512850  0.63934460  0.38529549  1
  Ta5+  Ta73  1  0.40922435  0.88024466  0.61614767  1
  Ta5+  Ta74  1  0.07473070  0.11753906  0.64926174  1
  W6+  W75  1  0.18183048  0.62041579  0.86590321  1
  W6+  W76  1  0.14981736  0.62331682  0.60637525  1
  W6+  W77  1  0.12437198  0.11889784  0.10952856  1
  W6+  W78  1  0.39231274  0.86469428  0.13786923  1
  W6+  W79  1  0.61951684  0.38581418  0.11305975  1
  W6+  W80  1  0.37687681  0.62959402  0.61753853  1
  W6+  W81  1  0.11651432  0.12162576  0.38068709  1
  W6+  W82  1  0.87956247  0.11452987  0.12255288  1
  O2-  O83  1  0.14581226  -0.01310106  0.12496655  1
  O2-  O84  1  0.15852255  -0.00391859  0.35339961  1
  O2-  O85  1  0.06595592  -0.00262334  0.64302606  1
  O2-  O86  1  0.10546246  -0.00065434  0.86284959  1
  O2-  O87  1  0.08672483  0.50475896  0.12670772  1
  O2-  O88  1  0.09422640  0.50875714  0.36648262  1
  O2-  O89  1  0.17613282  0.48861357  0.60189468  1
  O2-  O90  1  0.09800807  0.50900472  0.85496451  1
  O2-  O91  1  0.36756917  -0.00132227  0.13043599  1
  O2-  O92  1  0.39437526  0.01057065  0.36257363  1
  O2-  O93  1  0.36715692  0.00005863  0.64600178  1
  O2-  O94  1  0.36775988  -0.00690625  0.87371286  1
  O2-  O95  1  0.41180485  0.49278857  0.13674965  1
  O2-  O96  1  0.40026456  0.48003487  0.35823803  1
  O2-  O97  1  0.36817533  0.49782595  0.64373241  1
  O2-  O98  1  0.44795947  0.53449127  0.86064224  1
  O2-  O99  1  0.60718595  -0.00551376  0.10367312  1
  O2-  O100  1  0.59416797  0.00871105  0.39350903  1
  O2-  O101  1  0.59841452  0.00500579  0.61341173  1
  O2-  O102  1  0.63666782  -0.00389381  0.88222875  1
  O2-  O103  1  0.60971391  0.52080140  0.11741268  1
  O2-  O104  1  0.64566871  0.48734078  0.35821738  1
  O2-  O105  1  0.60203702  0.50571725  0.62691360  1
  O2-  O106  1  0.64088743  0.50419275  0.88781258  1
  O2-  O107  1  0.93089151  -0.01070155  0.11319452  1
  O2-  O108  1  0.88225827  -0.00163707  0.37834446  1
  O2-  O109  1  0.84955621  -0.00328303  0.62572786  1
  O2-  O110  1  0.90761694  0.00003449  0.86830249  1
  O2-  O111  1  0.87190268  0.50347832  0.13161860  1
  O2-  O112  1  0.89579444  0.51144296  0.39342794  1
  O2-  O113  1  0.81485646  0.50783316  0.62700488  1
  O2-  O114  1  0.86772242  0.49250802  0.86123566  1
  O2-  O115  1  0.12971652  0.25719547  0.09619268  1
  O2-  O116  1  0.07832767  0.25732644  0.37987485  1
  O2-  O117  1  0.10761873  0.26174294  0.63966401  1
  O2-  O118  1  0.15544786  0.25539282  0.86707946  1
  O2-  O119  1  0.09542837  0.74588338  0.11634321  1
  O2-  O120  1  0.14579569  0.75177165  0.39193722  1
  O2-  O121  1  0.14959281  0.76028381  0.61323442  1
  O2-  O122  1  0.11302127  0.75079136  0.86012222  1
  O2-  O123  1  0.39560324  0.27020125  0.09321458  1
  O2-  O124  1  0.41932710  0.25653697  0.38119073  1
  O2-  O125  1  0.34295731  0.25553957  0.63655231  1
  O2-  O126  1  0.40847044  0.24376562  0.88467113  1
  O2-  O127  1  0.42358579  0.72773801  0.13736449  1
  O2-  O128  1  0.39790428  0.74182822  0.37276868  1
  O2-  O129  1  0.35854306  0.76356136  0.61169326  1
  O2-  O130  1  0.41829643  0.74097042  0.88605240  1
  O2-  O131  1  0.62148817  0.24691738  0.12573366  1
  O2-  O132  1  0.62447209  0.26632265  0.35639199  1
  O2-  O133  1  0.60667017  0.25103330  0.67359052  1
  O2-  O134  1  0.59665601  0.24737839  0.85544722  1
  O2-  O135  1  0.60545335  0.74517047  0.13915866  1
  O2-  O136  1  0.62464098  0.74862815  0.36755969  1
  O2-  O137  1  0.59756243  0.74767385  0.62081658  1
  O2-  O138  1  0.59562349  0.74824210  0.86190967  1
  O2-  O139  1  0.84470860  0.25193261  0.13656353  1
  O2-  O140  1  0.90241083  0.24987022  0.38525499  1
  O2-  O141  1  0.79916038  0.22035841  0.62428200  1
  O2-  O142  1  0.84155351  0.25629712  0.88173507  1
  O2-  O143  1  0.92379650  0.75873597  0.10997971  1
  O2-  O144  1  0.83775035  0.75335159  0.36387289  1
  O2-  O145  1  0.79979914  0.77370800  0.62951465  1
  O2-  O146  1  0.90980527  0.75013365  0.87926384  1
  O2-  O147  1  0.16634514  0.12219098  -0.02701118  1
  O2-  O148  1  0.10794145  0.15629340  0.24265747  1
  O2-  O149  1  0.08625273  0.12830744  0.52271863  1
  O2-  O150  1  0.16769513  0.12490819  0.74458416  1
  O2-  O151  1  0.12940305  0.62846104  -0.00026981  1
  O2-  O152  1  0.12592235  0.64958971  0.25235610  1
  O2-  O153  1  0.06740881  0.62906463  0.50958685  1
  O2-  O154  1  0.19388568  0.63600185  0.72816464  1
  O2-  O155  1  0.34381162  0.13019585  -0.00820464  1
  O2-  O156  1  0.38586418  0.15022544  0.24572943  1
  O2-  O157  1  0.34482652  0.12253969  0.50330626  1
  O2-  O158  1  0.34228561  0.14432457  0.75860113  1
  O2-  O159  1  0.38190233  0.62212441  0.00391958  1
  O2-  O160  1  0.33747215  0.62094451  0.26273955  1
  O2-  O161  1  0.39957914  0.60479693  0.48769755  1
  O2-  O162  1  0.36737371  0.65771733  0.75353374  1
  O2-  O163  1  0.64695172  0.14496198  -0.00958259  1
  O2-  O164  1  0.59920171  0.12376400  0.25366955  1
  O2-  O165  1  0.63838284  0.15325317  0.51363131  1
  O2-  O166  1  0.66392085  0.11399026  0.74753648  1
  O2-  O167  1  0.63356262  0.65397619  -0.00193515  1
  O2-  O168  1  0.69544204  0.62421363  0.24983180  1
  O2-  O169  1  0.64863682  0.62434124  0.48724592  1
  O2-  O170  1  0.59461768  0.62086861  0.74976801  1
  O2-  O171  1  0.84067881  0.11764063  -0.01727060  1
  O2-  O172  1  0.91203707  0.12700024  0.25743032  1
  O2-  O173  1  0.89235548  0.13125650  0.50666329  1
  O2-  O174  1  0.84109196  0.13106690  0.76286770  1
  O2-  O175  1  0.92509013  0.61808718  -0.00680372  1
  O2-  O176  1  0.91529114  0.64129106  0.24567281  1
  O2-  O177  1  0.85216784  0.65059700  0.50589190  1
  O2-  O178  1  0.86715420  0.63646985  0.74182885  1
  O2-  O179  1  0.15501997  0.38266597  -0.01370380  1
  O2-  O180  1  0.10568752  0.35951822  0.24177431  1
  O2-  O181  1  0.08677163  0.37610305  0.50116395  1
  O2-  O182  1  0.15553773  0.38569989  0.74914967  1
  O2-  O183  1  0.10239832  0.86705433  -0.00644326  1
  O2-  O184  1  0.14260448  0.84580003  0.24560279  1
  O2-  O185  1  0.14839867  0.90356471  0.50694782  1
  O2-  O186  1  0.15024066  0.87828064  0.73480186  1
  O2-  O187  1  0.33903769  0.39280320  -0.01515565  1
  O2-  O188  1  0.36604391  0.34254063  0.24205039  1
  O2-  O189  1  0.34258620  0.37866235  0.50009998  1
  O2-  O190  1  0.34934097  0.36579719  0.76566052  1
  O2-  O191  1  0.43317079  0.86782806  0.00038678  1
  O2-  O192  1  0.34171298  0.85808157  0.26281863  1
  O2-  O193  1  0.38942478  0.89231760  0.49418170  1
  O2-  O194  1  0.39309735  0.85425094  0.75602627  1
  O2-  O195  1  0.65947904  0.34809766  -0.02053502  1
  O2-  O196  1  0.55863358  0.37999915  0.24037984  1
  O2-  O197  1  0.68255177  0.36165104  0.56140002  1
  O2-  O198  1  0.67563646  0.38364626  0.76034647  1
  O2-  O199  1  0.63232570  0.84619871  -0.00451963  1
  O2-  O200  1  0.59771798  0.88820019  0.24968831  1
  O2-  O201  1  0.62950887  0.86661525  0.49524098  1
  O2-  O202  1  0.58999060  0.87751203  0.74440403  1
  O2-  O203  1  0.83803960  0.37227905  0.00956141  1
  O2-  O204  1  0.90131524  0.37870364  0.26366192  1
  O2-  O205  1  0.87956755  0.35676471  0.52316443  1
  O2-  O206  1  0.84548989  0.35889468  0.74513563  1
  O2-  O207  1  0.86286897  0.87242374  -0.00754268  1
  O2-  O208  1  0.89974930  0.86567038  0.24504050  1
  O2-  O209  1  0.83117691  0.87392966  0.49179339  1
  O2-  O210  1  0.90618284  0.86933013  0.74050827  1
  O2-  O211  1  0.00464721  0.16374710  -0.07362895  1
  O2-  O212  1  0.00826945  -0.13363892  0.37975478  1
  O2-  O213  1  -0.01474198  -0.15964590  0.58419506  1
  O2-  O214  1  0.00891433  0.13487423  0.76721962  1
  O2-  O215  1  -0.00447701  0.40394013  -0.04269477  1
  O2-  O216  1  -0.01633007  0.35375426  0.12061083  1
  O2-  O217  1  -0.00533298  0.43708094  0.65004504  1
  O2-  O218  1  -0.00410526  0.34019190  0.81299430  1
  O2-  O219  1  0.26480857  -0.16129173  0.09436856  1
  O2-  O220  1  0.25735072  0.16186182  0.13248418  1
  O2-  O221  1  0.24998699  0.16730555  0.35657211  1
  O2-  O222  1  0.25614120  -0.14359374  0.87802587  1
  O2-  O223  1  0.25333378  0.58950154  0.12256067  1
  O2-  O224  1  0.23634756  0.38768779  0.13775429  1
  O2-  O225  1  0.23538954  0.36671966  0.36072113  1
  O2-  O226  1  0.28924987  0.50878122  0.86688089  1
  O2-  O227  1  0.50089268  0.10460717  -0.05548702  1
  O2-  O228  1  0.49606930  0.14039298  0.11395787  1
  O2-  O229  1  0.48193477  0.14634242  0.62053330  1
  O2-  O230  1  0.50229604  0.11095505  0.78732195  1
  O2-  O231  1  0.49733498  0.38841928  -0.05629957  1
  O2-  O232  1  0.52111610  0.61021719  0.31852012  1
  O2-  O233  1  0.48920853  0.35882099  0.61089092  1
  O2-  O234  1  0.51333141  0.39268050  0.78056710  1
  O2-  O235  1  0.75287478  -0.14182001  0.12981978  1
  O2-  O236  1  0.74580597  0.10742469  0.14107703  1
  O2-  O237  1  0.75201312  0.13727584  0.37649806  1
  O2-  O238  1  0.75755417  -0.14577010  0.85477595  1
  O2-  O239  1  0.77629397  0.66153305  0.09706266  1
  O2-  O240  1  0.73760260  0.38641755  0.20286776  1
  O2-  O241  1  0.76653447  0.35975425  0.38392937  1
  O2-  O242  1  0.76566542  0.64971398  0.89488224  1
