# generated using pymatgen
data_Gd19Ta56(WO20)8
_symmetry_space_group_name_H-M   'P 1'
_cell_length_a   15.52784913
_cell_length_b   15.43618348
_cell_length_c   15.30831283
_cell_angle_alpha   90.31197685
_cell_angle_beta   90.17553828
_cell_angle_gamma   90.13303142
_symmetry_Int_Tables_number   1
_chemical_formula_structural   Gd19Ta56(WO20)8
_chemical_formula_sum   'Gd19 Ta56 W8 O160'
_cell_volume   3669.17900139
_cell_formula_units_Z   1
loop_
 _symmetry_equiv_pos_site_id
 _symmetry_equiv_pos_as_xyz
  1  'x, y, z'
loop_
 _atom_type_symbol
 _atom_type_oxidation_number
  Gd3+  3.0
  Ta5+  5.0
  W6+  6.0
  O2-  -2.0
loop_
 _atom_site_type_symbol
 _atom_site_label
 _atom_site_symmetry_multiplicity
 _atom_site_fract_x
 _atom_site_fract_y
 _atom_site_fract_z
 _atom_site_occupancy
  Gd3+  Gd0  1  0.72246582  0.73836621  0.47858289  1
  Gd3+  Gd1  1  0.22957140  0.74843979  -0.00192905  1
  Gd3+  Gd2  1  0.49595824  0.74084464  0.46826193  1
  Gd3+  Gd3  1  -0.00952313  0.77413245  0.76262360  1
  Gd3+  Gd4  1  0.29161909  0.25867120  0.50340243  1
  Gd3+  Gd5  1  -0.01124530  0.27448341  0.72475781  1
  Gd3+  Gd6  1  0.76600620  0.75195727  -0.00129514  1
  Gd3+  Gd7  1  0.74237491  0.74090321  0.23985866  1
  Gd3+  Gd8  1  -0.00295180  0.76887696  0.01696923  1
  Gd3+  Gd9  1  0.71919339  0.26491196  0.26730637  1
  Gd3+  Gd10  1  0.01029598  0.75327958  0.27108886  1
  Gd3+  Gd11  1  0.25824370  0.74301666  0.24870214  1
  Gd3+  Gd12  1  0.29634769  0.23599027  -0.02567649  1
  Gd3+  Gd13  1  0.73567666  0.22970667  -0.01527963  1
  Gd3+  Gd14  1  0.51135498  0.25595084  0.00036332  1
  Gd3+  Gd15  1  0.71320998  0.76151917  0.77518828  1
  Gd3+  Gd16  1  0.48561306  0.76310143  -0.05362534  1
  Gd3+  Gd17  1  0.02370386  0.76330098  0.53478000  1
  Gd3+  Gd18  1  0.74263280  0.21466184  0.74324551  1
  Ta5+  Ta19  1  0.88090088  0.61406280  0.63110005  1
  Ta5+  Ta20  1  0.60181893  0.36437269  0.85319533  1
  Ta5+  Ta21  1  0.59211205  0.91975352  0.11395500  1
  Ta5+  Ta22  1  0.42591946  0.12700953  0.61536840  1
  Ta5+  Ta23  1  0.66201210  0.89284918  0.59795198  1
  Ta5+  Ta24  1  0.85179809  0.37603363  0.87053566  1
  Ta5+  Ta25  1  0.12303328  0.13403918  0.62679100  1
  Ta5+  Ta26  1  0.59477768  0.12756309  0.60616016  1
  Ta5+  Ta27  1  0.63955287  0.38469816  0.11708923  1
  Ta5+  Ta28  1  0.57717881  0.12949156  0.35869167  1
  Ta5+  Ta29  1  0.66871715  0.60728029  0.62754453  1
  Ta5+  Ta30  1  0.42122712  0.11739814  0.85017202  1
  Ta5+  Ta31  1  0.61610164  0.56840397  0.86032281  1
  Ta5+  Ta32  1  0.45720021  0.37886990  0.60700032  1
  Ta5+  Ta33  1  0.40140817  0.62058826  0.62422367  1
  Ta5+  Ta34  1  0.43352083  0.37598410  0.84983901  1
  Ta5+  Ta35  1  0.87798556  0.36630356  0.37510181  1
  Ta5+  Ta36  1  0.56483209  0.37806994  0.37081296  1
  Ta5+  Ta37  1  0.89861745  0.90979650  0.16671701  1
  Ta5+  Ta38  1  0.83545714  0.37247267  0.60896354  1
  Ta5+  Ta39  1  0.12189489  0.91960997  0.85474970  1
  Ta5+  Ta40  1  0.14771414  0.37832021  0.63598194  1
  Ta5+  Ta41  1  0.36891971  0.87705388  0.37119680  1
  Ta5+  Ta42  1  0.62561369  0.36063869  0.61545501  1
  Ta5+  Ta43  1  0.85613265  0.87705310  0.40567410  1
  Ta5+  Ta44  1  0.87368916  0.61197445  0.40866952  1
  Ta5+  Ta45  1  0.60515306  0.61644722  0.09805428  1
  Ta5+  Ta46  1  0.91616257  0.57885094  0.16716903  1
  Ta5+  Ta47  1  0.16763914  0.89250231  0.64611810  1
  Ta5+  Ta48  1  0.86612964  0.13713863  0.12824890  1
  Ta5+  Ta49  1  0.42351496  0.11439718  0.12250600  1
  Ta5+  Ta50  1  0.13393016  0.62204542  0.40923549  1
  Ta5+  Ta51  1  0.14288956  0.35392320  0.13125867  1
  Ta5+  Ta52  1  0.13664799  0.15241667  0.12525222  1
  Ta5+  Ta53  1  0.61844813  0.59745833  0.34518171  1
  Ta5+  Ta54  1  0.37157341  0.60647168  0.36574798  1
  Ta5+  Ta55  1  0.56643818  0.91956062  0.78281678  1
  Ta5+  Ta56  1  0.34424265  0.60717080  0.85942829  1
  Ta5+  Ta57  1  0.59169631  0.11037188  0.85870297  1
  Ta5+  Ta58  1  0.40944069  0.87489078  0.62531444  1
  Ta5+  Ta59  1  0.13675544  0.59773380  0.87359787  1
  Ta5+  Ta60  1  0.32868631  0.88934329  0.85986809  1
  Ta5+  Ta61  1  0.11663199  0.57816593  0.16121279  1
  Ta5+  Ta62  1  0.78800867  0.96283724  0.84064689  1
  Ta5+  Ta63  1  0.59784214  0.12107696  0.12848993  1
  Ta5+  Ta64  1  0.39392805  0.38228216  0.11501964  1
  Ta5+  Ta65  1  0.07592892  0.15712892  0.88558310  1
  Ta5+  Ta66  1  0.12210732  0.37185971  0.38469033  1
  Ta5+  Ta67  1  0.09893196  0.35055574  0.89095014  1
  Ta5+  Ta68  1  0.61502298  0.88428445  0.34946441  1
  Ta5+  Ta69  1  0.88813464  0.12381579  0.60085621  1
  Ta5+  Ta70  1  0.90132575  0.12954402  0.87284541  1
  Ta5+  Ta71  1  0.41111421  0.12376812  0.37238976  1
  Ta5+  Ta72  1  0.10143924  0.91502806  0.15744212  1
  Ta5+  Ta73  1  0.37234377  0.89031258  0.11793170  1
  Ta5+  Ta74  1  0.85409062  0.62319733  0.84800619  1
  W6+  W75  1  0.35581821  0.62389498  0.10505070  1
  W6+  W76  1  0.87054320  0.11786591  0.35578868  1
  W6+  W77  1  0.81215420  0.38242675  0.12537152  1
  W6+  W78  1  0.15385267  0.13956283  0.37470472  1
  W6+  W79  1  0.12610870  0.88992261  0.39242103  1
  W6+  W80  1  0.87400328  0.89346534  0.62409108  1
  W6+  W81  1  0.16138170  0.63052187  0.66530161  1
  W6+  W82  1  0.40174681  0.37472102  0.36734834  1
  O2-  O83  1  0.14898979  0.02235341  0.13152426  1
  O2-  O84  1  0.14393282  0.01971951  0.37388447  1
  O2-  O85  1  0.16944093  0.01908446  0.64752888  1
  O2-  O86  1  0.08626407  0.02859030  0.88379302  1
  O2-  O87  1  0.16909466  0.47682534  0.12076242  1
  O2-  O88  1  0.11801372  0.50132200  0.39332697  1
  O2-  O89  1  0.15151224  0.49568854  0.65150131  1
  O2-  O90  1  0.10113056  0.48442698  0.89064378  1
  O2-  O91  1  0.34161161  0.00628020  0.11151411  1
  O2-  O92  1  0.38493953  -0.00256078  0.37596242  1
  O2-  O93  1  0.41893774  -0.00548173  0.61612805  1
  O2-  O94  1  0.34532274  0.00891856  0.87165882  1
  O2-  O95  1  0.34881333  0.49057765  0.09587825  1
  O2-  O96  1  0.34080009  0.49059205  0.37313386  1
  O2-  O97  1  0.45647552  0.51131983  0.61643245  1
  O2-  O98  1  0.36058092  0.48909483  0.85942344  1
  O2-  O99  1  0.67206712  0.01200712  0.11171297  1
  O2-  O100  1  0.61249532  0.00194958  0.35762875  1
  O2-  O101  1  0.64041467  0.00942479  0.58243024  1
  O2-  O102  1  0.64501639  -0.01519328  0.86271176  1
  O2-  O103  1  0.65045495  0.50553454  0.07497532  1
  O2-  O104  1  0.63329914  0.48901623  0.39705566  1
  O2-  O105  1  0.65217244  0.48992500  0.62129385  1
  O2-  O106  1  0.68831942  0.47441813  0.85273991  1
  O2-  O107  1  0.84276240  0.01180460  0.14105362  1
  O2-  O108  1  0.86505758  -0.01657783  0.35160428  1
  O2-  O109  1  0.83207142  0.02209869  0.62900206  1
  O2-  O110  1  0.77206958  0.08809132  0.82419046  1
  O2-  O111  1  0.86563815  0.50453324  0.09117595  1
  O2-  O112  1  0.89147072  0.49332894  0.39778477  1
  O2-  O113  1  0.87327885  0.48941387  0.62005848  1
  O2-  O114  1  0.85854013  0.50106314  0.86822622  1
  O2-  O115  1  0.21585557  0.25257631  0.10639847  1
  O2-  O116  1  0.19092664  0.26510160  0.38633203  1
  O2-  O117  1  0.08444373  0.26437320  0.61293138  1
  O2-  O118  1  0.17703157  0.25443049  0.89321200  1
  O2-  O119  1  0.21287255  0.65271670  0.12135815  1
  O2-  O120  1  0.07855935  0.74683711  0.39964696  1
  O2-  O121  1  0.12143172  0.76945147  0.65542862  1
  O2-  O122  1  0.03385142  0.84169773  0.89338815  1
  O2-  O123  1  0.40144587  0.24391887  0.10669249  1
  O2-  O124  1  0.37739415  0.24507019  0.37725327  1
  O2-  O125  1  0.43159700  0.25232186  0.60082903  1
  O2-  O126  1  0.40500195  0.24831183  0.85835234  1
  O2-  O127  1  0.32931149  0.76776400  0.11035955  1
  O2-  O128  1  0.38315386  0.74214027  0.36062285  1
  O2-  O129  1  0.44623096  0.74067003  0.61505859  1
  O2-  O130  1  0.32917258  0.75910552  0.87606394  1
  O2-  O131  1  0.61264384  0.25060039  0.12139723  1
  O2-  O132  1  0.59441987  0.25942860  0.35427816  1
  O2-  O133  1  0.65470539  0.23868156  0.60150671  1
  O2-  O134  1  0.64477833  0.23254287  0.85896548  1
  O2-  O135  1  0.67417394  0.71992425  0.10546982  1
  O2-  O136  1  0.61751250  0.72592654  0.36321328  1
  O2-  O137  1  0.68684465  0.75906943  0.62848332  1
  O2-  O138  1  0.57048886  0.80589348  0.83258539  1
  O2-  O139  1  0.79687194  0.23996329  0.14021397  1
  O2-  O140  1  0.83793433  0.24801155  0.35538463  1
  O2-  O141  1  0.89350784  0.25830425  0.60604772  1
  O2-  O142  1  0.82848158  0.24272716  0.86670051  1
  O2-  O143  1  0.83371404  0.66928517  0.15805756  1
  O2-  O144  1  0.86963437  0.74628585  0.42595089  1
  O2-  O145  1  0.90981026  0.74835635  0.63254255  1
  O2-  O146  1  0.85460019  0.74445571  0.80894530  1
  O2-  O147  1  0.07933010  0.15728574  0.01694909  1
  O2-  O148  1  0.12254094  0.16593255  0.24722256  1
  O2-  O149  1  0.18239167  0.14963173  0.51664533  1
  O2-  O150  1  0.09487838  0.15925491  0.74970441  1
  O2-  O151  1  0.09522561  0.68122510  -0.04276026  1
  O2-  O152  1  0.12688555  0.64839333  0.27424155  1
  O2-  O153  1  0.11618871  0.63943342  0.52912931  1
  O2-  O154  1  0.07988807  0.66004152  0.78090853  1
  O2-  O155  1  0.40677723  0.13123733  -0.01663196  1
  O2-  O156  1  0.40554997  0.11928425  0.24299553  1
  O2-  O157  1  0.37029457  0.12688367  0.49939765  1
  O2-  O158  1  0.38224004  0.13122741  0.73092665  1
  O2-  O159  1  0.40475341  0.64032960  -0.03229445  1
  O2-  O160  1  0.33954060  0.62091870  0.24392693  1
  O2-  O161  1  0.41138127  0.62463787  0.48965689  1
  O2-  O162  1  0.40829108  0.63251142  0.75464074  1
  O2-  O163  1  0.60987005  0.13451527  -0.01062709  1
  O2-  O164  1  0.64946271  0.13429501  0.24424531  1
  O2-  O165  1  0.58134242  0.13909914  0.47949453  1
  O2-  O166  1  0.62664349  0.12087521  0.73153759  1
  O2-  O167  1  0.58650795  0.63774562  -0.03320783  1
  O2-  O168  1  0.64671577  0.60443088  0.22548898  1
  O2-  O169  1  0.60727809  0.64331917  0.52335610  1
  O2-  O170  1  0.61014725  0.62439765  0.74615972  1
  O2-  O171  1  0.87818780  0.15107026  0.00522716  1
  O2-  O172  1  0.92458206  0.14186420  0.23582732  1
  O2-  O173  1  0.84891746  0.12726142  0.48582404  1
  O2-  O174  1  0.90509102  0.15071887  0.73789528  1
  O2-  O175  1  0.89211152  0.67148618  -0.04192832  1
  O2-  O176  1  0.93147180  0.63377425  0.30162475  1
  O2-  O177  1  0.94388640  0.62256120  0.51654077  1
  O2-  O178  1  0.93232726  0.60663815  0.74652242  1
  O2-  O179  1  0.08685558  0.34943850  0.02235799  1
  O2-  O180  1  0.13075312  0.36747792  0.26067212  1
  O2-  O181  1  0.17228633  0.37662474  0.50707252  1
  O2-  O182  1  0.11734475  0.35651188  0.76037435  1
  O2-  O183  1  0.12855011  0.82018543  0.08233878  1
  O2-  O184  1  0.14469390  0.84345520  0.25471545  1
  O2-  O185  1  0.11854618  0.88769248  0.53305255  1
  O2-  O186  1  0.06887892  0.90463175  0.73666599  1
  O2-  O187  1  0.38749592  0.35630062  -0.02073733  1
  O2-  O188  1  0.38903973  0.37545044  0.23531369  1
  O2-  O189  1  0.38235089  0.37969551  0.50216549  1
  O2-  O190  1  0.42393408  0.37535971  0.72673033  1
  O2-  O191  1  0.39096038  0.87488036  -0.01331396  1
  O2-  O192  1  0.33329383  0.87471335  0.24395063  1
  O2-  O193  1  0.41525669  0.86070540  0.49752515  1
  O2-  O194  1  0.41264473  0.87642452  0.76325530  1
  O2-  O195  1  0.63362108  0.34589259  -0.01713011  1
  O2-  O196  1  0.61723400  0.38647071  0.24281078  1
  O2-  O197  1  0.55760608  0.36389428  0.50013775  1
  O2-  O198  1  0.65063692  0.34136424  0.73797755  1
  O2-  O199  1  0.59149510  0.84769038  0.01744740  1
  O2-  O200  1  0.64428481  0.86526518  0.22257713  1
  O2-  O201  1  0.61081005  0.85123560  0.48431736  1
  O2-  O202  1  0.54561392  0.88109144  0.65769426  1
  O2-  O203  1  0.81262826  0.36114712  -0.01374291  1
  O2-  O204  1  0.82323758  0.38994286  0.26749610  1
  O2-  O205  1  0.81652696  0.36774877  0.48302181  1
  O2-  O206  1  0.83712981  0.35673695  0.74064727  1
  O2-  O207  1  0.85541671  0.82915026  0.08103233  1
  O2-  O208  1  0.87037861  0.82711890  0.26499939  1
  O2-  O209  1  0.93980264  0.88690851  0.49861607  1
  O2-  O210  1  0.86228785  0.91026862  0.75897326  1
  O2-  O211  1  -0.00497234  -0.08325234  0.08104985  1
  O2-  O212  1  0.00360810  -0.07904840  0.24165824  1
  O2-  O213  1  0.00943146  0.09966821  0.59069004  1
  O2-  O214  1  -0.11608719  0.00260638  0.90625785  1
  O2-  O215  1  0.01380317  0.66973831  0.13738152  1
  O2-  O216  1  0.01828693  0.51393510  0.20800138  1
  O2-  O217  1  0.00213771  0.34676358  0.39343547  1
  O2-  O218  1  -0.02797153  0.35817026  0.87109229  1
  O2-  O219  1  0.21390553  -0.11274856  -0.06262739  1
  O2-  O220  1  0.25492486  -0.14649961  0.40384492  1
  O2-  O221  1  0.28637073  -0.13650762  0.62253045  1
  O2-  O222  1  0.22704498  -0.10543755  0.77753141  1
  O2-  O223  1  0.24184590  0.60722167  -0.05402805  1
  O2-  O224  1  0.24985188  0.64229184  0.40167970  1
  O2-  O225  1  0.28482570  0.62240614  0.61229975  1
  O2-  O226  1  0.23274781  0.60908398  0.78739922  1
  O2-  O227  1  0.51164781  0.01982965  0.08778274  1
  O2-  O228  1  0.48286261  -0.12804016  0.15928831  1
  O2-  O229  1  0.49841694  -0.14311287  0.34436908  1
  O2-  O230  1  0.50102831  0.02037714  0.80516715  1
  O2-  O231  1  0.51283200  0.39403825  0.09582620  1
  O2-  O232  1  0.49277088  0.63058691  0.12736132  1
  O2-  O233  1  0.49770634  0.59713446  0.34047374  1
  O2-  O234  1  0.52654173  0.48220289  0.87509417  1
  O2-  O235  1  0.75385882  -0.14180969  -0.09732378  1
  O2-  O236  1  0.73708702  -0.15785723  0.36382715  1
  O2-  O237  1  0.77608286  -0.11958206  0.52325683  1
  O2-  O238  1  0.69129157  -0.09334286  0.72976394  1
  O2-  O239  1  0.73086335  0.64777512  -0.11738699  1
  O2-  O240  1  0.75497757  0.62853161  0.36570681  1
  O2-  O241  1  0.77687768  0.61520871  0.54567541  1
  O2-  O242  1  0.77322379  0.62361410  0.71016070  1
