# generated using pymatgen
data_Gd19Ta56(WO20)8
_symmetry_space_group_name_H-M   'P 1'
_cell_length_a   15.52203167
_cell_length_b   15.58651333
_cell_length_c   15.02291199
_cell_angle_alpha   90.03632018
_cell_angle_beta   89.89009938
_cell_angle_gamma   90.09626902
_symmetry_Int_Tables_number   1
_chemical_formula_structural   Gd19Ta56(WO20)8
_chemical_formula_sum   'Gd19 Ta56 W8 O160'
_cell_volume   3634.54596300
_cell_formula_units_Z   1
loop_
 _symmetry_equiv_pos_site_id
 _symmetry_equiv_pos_as_xyz
  1  'x, y, z'
loop_
 _atom_type_symbol
 _atom_type_oxidation_number
  Gd3+  3.0
  Ta5+  5.0
  W6+  6.0
  O2-  -2.0
loop_
 _atom_site_type_symbol
 _atom_site_label
 _atom_site_symmetry_multiplicity
 _atom_site_fract_x
 _atom_site_fract_y
 _atom_site_fract_z
 _atom_site_occupancy
  Gd3+  Gd0  1  0.73854840  0.25489463  0.02688595  1
  Gd3+  Gd1  1  0.23354451  0.77341391  0.49911864  1
  Gd3+  Gd2  1  0.25953882  0.24669275  0.48848112  1
  Gd3+  Gd3  1  -0.02046638  0.73164465  0.24638452  1
  Gd3+  Gd4  1  0.06322631  0.25919599  0.25375969  1
  Gd3+  Gd5  1  0.24133786  0.25411390  0.73529808  1
  Gd3+  Gd6  1  0.75443737  0.24263872  0.76656133  1
  Gd3+  Gd7  1  -0.02119046  0.75505751  0.52414422  1
  Gd3+  Gd8  1  0.71719486  0.75667544  0.24722865  1
  Gd3+  Gd9  1  0.03949589  0.23617228  0.02024606  1
  Gd3+  Gd10  1  0.52864245  0.75001984  0.72692900  1
  Gd3+  Gd11  1  0.22823349  0.74018040  0.74409417  1
  Gd3+  Gd12  1  0.75346956  0.23826952  0.48957476  1
  Gd3+  Gd13  1  0.52850831  0.25201811  0.77480289  1
  Gd3+  Gd14  1  -0.01111238  0.74950624  0.76095881  1
  Gd3+  Gd15  1  0.48045662  0.76372944  0.19803445  1
  Gd3+  Gd16  1  0.51639700  0.24372003  0.48604123  1
  Gd3+  Gd17  1  -0.01507759  0.73450395  0.00711385  1
  Gd3+  Gd18  1  0.80323232  0.24981939  0.25365652  1
  Ta5+  Ta19  1  0.08308787  0.12450950  0.60737401  1
  Ta5+  Ta20  1  0.11256724  0.37388706  0.86912626  1
  Ta5+  Ta21  1  0.38331800  0.12043485  0.61583362  1
  Ta5+  Ta22  1  0.87053330  0.12133823  0.90475485  1
  Ta5+  Ta23  1  0.38697322  0.38941635  0.61410547  1
  Ta5+  Ta24  1  0.15031144  0.39123648  0.37923803  1
  Ta5+  Ta25  1  0.15455544  0.87181368  0.89931526  1
  Ta5+  Ta26  1  0.37721462  0.62649303  0.86226766  1
  Ta5+  Ta27  1  0.62454914  0.11744074  0.90450490  1
  Ta5+  Ta28  1  0.18412169  0.37114591  0.12046579  1
  Ta5+  Ta29  1  0.84694875  0.90796921  0.13245803  1
  Ta5+  Ta30  1  0.55903159  0.14222213  0.14142542  1
  Ta5+  Ta31  1  0.37126625  0.87525297  0.85943209  1
  Ta5+  Ta32  1  0.68438332  0.62202323  0.65098400  1
  Ta5+  Ta33  1  0.10492245  0.87755101  0.13426920  1
  Ta5+  Ta34  1  0.08392461  0.36864713  0.61584067  1
  Ta5+  Ta35  1  0.86469465  0.87696739  0.89227014  1
  Ta5+  Ta36  1  0.63846899  0.39018581  0.36959842  1
  Ta5+  Ta37  1  0.66891590  0.88312128  0.63315246  1
  Ta5+  Ta38  1  0.85060989  0.61389278  0.64849989  1
  Ta5+  Ta39  1  0.36142372  0.87973227  0.61279185  1
  Ta5+  Ta40  1  0.35390054  0.88552030  0.06832692  1
  Ta5+  Ta41  1  0.67109577  0.63272459  0.86136628  1
  Ta5+  Ta42  1  0.60328801  0.38838400  0.13494839  1
  Ta5+  Ta43  1  0.61268875  0.88463013  0.38294949  1
  Ta5+  Ta44  1  0.39018064  0.38424305  0.35489805  1
  Ta5+  Ta45  1  0.86323335  0.61351771  0.39018800  1
  Ta5+  Ta46  1  0.63233261  0.12559746  0.33079237  1
  Ta5+  Ta47  1  0.81198841  0.06798048  0.15037348  1
  Ta5+  Ta48  1  0.10843121  0.61076688  0.63370982  1
  Ta5+  Ta49  1  0.36235860  0.88006688  0.33936613  1
  Ta5+  Ta50  1  0.16753221  0.61310705  0.89764532  1
  Ta5+  Ta51  1  0.13559900  0.61078219  0.12787723  1
  Ta5+  Ta52  1  0.12080440  0.11363043  0.38529641  1
  Ta5+  Ta53  1  0.86600165  0.38005350  0.88657638  1
  Ta5+  Ta54  1  0.85655488  0.58738916  0.12144004  1
  Ta5+  Ta55  1  0.11613190  0.87009763  0.35275494  1
  Ta5+  Ta56  1  0.11713301  0.11993983  0.86775763  1
  Ta5+  Ta57  1  0.90943238  0.38183531  0.14048586  1
  Ta5+  Ta58  1  0.91202199  0.37570755  0.40666861  1
  Ta5+  Ta59  1  0.63590765  0.39146202  0.88486480  1
  Ta5+  Ta60  1  0.59964955  0.38410632  0.62788878  1
  Ta5+  Ta61  1  0.64454369  0.92100516  0.12539360  1
  Ta5+  Ta62  1  0.83939897  0.61986921  0.87083625  1
  Ta5+  Ta63  1  0.88005785  0.36922576  0.62784172  1
  Ta5+  Ta64  1  0.65545626  0.59761906  0.10184526  1
  Ta5+  Ta65  1  0.38876949  0.38466289  0.85098022  1
  Ta5+  Ta66  1  0.38511299  0.13343857  0.09563343  1
  Ta5+  Ta67  1  0.85946592  0.87034769  0.38236784  1
  Ta5+  Ta68  1  0.38331902  0.12049739  0.84836905  1
  Ta5+  Ta69  1  0.34972759  0.37122808  0.09904655  1
  Ta5+  Ta70  1  0.62649905  0.87097507  0.88697808  1
  Ta5+  Ta71  1  0.35964899  0.62154693  0.08618110  1
  Ta5+  Ta72  1  0.91213581  0.10682317  0.39311102  1
  Ta5+  Ta73  1  0.11335896  0.61764632  0.37100311  1
  Ta5+  Ta74  1  0.62081686  0.63166299  0.41091793  1
  W6+  W75  1  0.16720591  0.95375949  0.71801870  1
  W6+  W76  1  0.38993797  0.12345398  0.34966424  1
  W6+  W77  1  0.36855585  0.63540394  0.60133114  1
  W6+  W78  1  0.59008511  0.09940448  0.65048812  1
  W6+  W79  1  0.37628674  0.63276221  0.34696676  1
  W6+  W80  1  0.85211885  0.10983744  0.63568580  1
  W6+  W81  1  0.18017305  0.11001540  0.13352631  1
  W6+  W82  1  0.83241065  0.86867734  0.64384153  1
  O2-  O83  1  0.16970896  -0.02382314  0.14129538  1
  O2-  O84  1  0.12031994  -0.00726186  0.37548904  1
  O2-  O85  1  0.08097449  0.00724209  0.62504107  1
  O2-  O86  1  0.13872298  -0.00134288  0.86054303  1
  O2-  O87  1  0.15881223  0.49374008  0.11685140  1
  O2-  O88  1  0.17421456  0.51099362  0.37177532  1
  O2-  O89  1  0.07778187  0.49269786  0.63349003  1
  O2-  O90  1  0.13838100  0.49291367  0.88296655  1
  O2-  O91  1  0.37422143  0.00341277  0.07933270  1
  O2-  O92  1  0.40699178  -0.01080788  0.35257993  1
  O2-  O93  1  0.37280069  0.00000051  0.62372274  1
  O2-  O94  1  0.38402021  -0.00068287  0.84739652  1
  O2-  O95  1  0.35753533  0.50168356  0.09370217  1
  O2-  O96  1  0.36764271  0.50014101  0.35971830  1
  O2-  O97  1  0.37709670  0.50569475  0.61234233  1
  O2-  O98  1  0.40208937  0.50512966  0.84823473  1
  O2-  O99  1  0.57157011  0.01711318  0.14363302  1
  O2-  O100  1  0.62034035  0.00784768  0.35484678  1
  O2-  O101  1  0.67534512  0.00936438  0.62744928  1
  O2-  O102  1  0.63217601  -0.00017700  0.89733403  1
  O2-  O103  1  0.56941979  0.51282938  0.11585028  1
  O2-  O104  1  0.65579277  0.50659156  0.39893928  1
  O2-  O105  1  0.64972372  0.49153869  0.62797211  1
  O2-  O106  1  0.65157997  0.50834066  0.87359219  1
  O2-  O107  1  0.92150029  0.01640741  0.12915974  1
  O2-  O108  1  0.90971912  -0.01841657  0.38118693  1
  O2-  O109  1  0.86386185  -0.01380553  0.63299093  1
  O2-  O110  1  0.86997906  -0.00061598  0.90255643  1
  O2-  O111  1  0.94357710  0.50155989  0.13426517  1
  O2-  O112  1  0.89714257  0.49742002  0.40889107  1
  O2-  O113  1  0.86901948  0.48833107  0.63291497  1
  O2-  O114  1  0.83723289  0.49516063  0.87583412  1
  O2-  O115  1  0.14395943  0.24321723  0.12856093  1
  O2-  O116  1  0.14285932  0.25331949  0.39155279  1
  O2-  O117  1  0.14696552  0.25348555  0.60994746  1
  O2-  O118  1  0.15199078  0.24793315  0.86310724  1
  O2-  O119  1  0.08900490  0.74692679  0.13269636  1
  O2-  O120  1  0.11567682  0.73782100  0.33670930  1
  O2-  O121  1  0.07890689  0.73518285  0.63573463  1
  O2-  O122  1  0.16097038  0.74320227  0.89976954  1
  O2-  O123  1  0.39055778  0.25801886  0.08286630  1
  O2-  O124  1  0.38923513  0.25524475  0.38472762  1
  O2-  O125  1  0.35447835  0.25233697  0.61824833  1
  O2-  O126  1  0.38209601  0.25431227  0.82218283  1
  O2-  O127  1  0.37717282  0.75995340  0.08804153  1
  O2-  O128  1  0.41795524  0.76951349  0.33435602  1
  O2-  O129  1  0.32278958  0.75659860  0.62895417  1
  O2-  O130  1  0.34416778  0.75087912  0.85942193  1
  O2-  O131  1  0.57975498  0.27180581  0.14583170  1
  O2-  O132  1  0.68783946  0.27037605  0.34189539  1
  O2-  O133  1  0.58443845  0.24681756  0.62964244  1
  O2-  O134  1  0.65494986  0.25544300  0.89492529  1
  O2-  O135  1  0.60167746  0.69028107  0.16959391  1
  O2-  O136  1  0.61325926  0.75409860  0.37118053  1
  O2-  O137  1  0.66305033  0.75870752  0.64971097  1
  O2-  O138  1  0.59278542  0.75188760  0.86441423  1
  O2-  O139  1  0.95399712  0.26297331  0.14745187  1
  O2-  O140  1  0.88470344  0.24573473  0.38930687  1
  O2-  O141  1  0.81719160  0.25006899  0.62693671  1
  O2-  O142  1  0.83641609  0.25123105  0.90285618  1
  O2-  O143  1  0.90596213  0.70481775  0.12427609  1
  O2-  O144  1  0.91030257  0.74427799  0.38317343  1
  O2-  O145  1  0.88972425  0.74585092  0.65039169  1
  O2-  O146  1  0.89491590  0.74647379  0.88484845  1
  O2-  O147  1  0.13495951  0.12386089  -0.00494435  1
  O2-  O148  1  0.17726712  0.13035415  0.27328916  1
  O2-  O149  1  0.17158368  0.12229674  0.50636646  1
  O2-  O150  1  0.12445264  0.13571973  0.73505138  1
  O2-  O151  1  0.08713405  0.62085766  0.00672333  1
  O2-  O152  1  0.07743975  0.60287199  0.24004943  1
  O2-  O153  1  0.09013824  0.62737893  0.49835696  1
  O2-  O154  1  0.10585763  0.63585611  0.77008245  1
  O2-  O155  1  0.33922531  0.13554589  -0.03808195  1
  O2-  O156  1  0.36107910  0.13153985  0.21675967  1
  O2-  O157  1  0.34461546  0.12668801  0.49117617  1
  O2-  O158  1  0.30750362  0.12303938  0.73741934  1
  O2-  O159  1  0.43317332  0.63152768  -0.02091803  1
  O2-  O160  1  0.41505212  0.63412185  0.20108936  1
  O2-  O161  1  0.32295900  0.66295784  0.47187148  1
  O2-  O162  1  0.42112597  0.64928108  0.74321802  1
  O2-  O163  1  0.63178351  0.14550465  0.03022497  1
  O2-  O164  1  0.68833959  0.14139451  0.21152240  1
  O2-  O165  1  0.63221532  0.15914935  0.45449520  1
  O2-  O166  1  0.64544374  0.13833359  0.77314704  1
  O2-  O167  1  0.65327703  0.65090436  -0.00825844  1
  O2-  O168  1  0.50712881  0.61241521  0.38528096  1
  O2-  O169  1  0.63479459  0.63939187  0.53110640  1
  O2-  O170  1  0.59791543  0.62148777  0.74967929  1
  O2-  O171  1  0.82091681  0.12672954  0.02697055  1
  O2-  O172  1  0.84312709  0.11110862  0.28054784  1
  O2-  O173  1  0.83213915  0.11249671  0.49089796  1
  O2-  O174  1  0.84618719  0.12786046  0.77817160  1
  O2-  O175  1  0.88533107  0.61440296  -0.00630179  1
  O2-  O176  1  0.89522630  0.60892912  0.26600370  1
  O2-  O177  1  0.87716149  0.63784677  0.51817119  1
  O2-  O178  1  0.91796899  0.61520406  0.76404299  1
  O2-  O179  1  0.13074103  0.35367138  -0.00303561  1
  O2-  O180  1  0.18009734  0.36658904  0.25439541  1
  O2-  O181  1  0.15856840  0.38819782  0.50857410  1
  O2-  O182  1  0.14099076  0.37100054  0.74095334  1
  O2-  O183  1  0.08261341  0.87264823  0.00402958  1
  O2-  O184  1  0.04017560  0.87776365  0.25067925  1
  O2-  O185  1  0.09354393  0.83873150  0.47332454  1
  O2-  O186  1  0.09259172  0.85464925  0.78602678  1
  O2-  O187  1  0.33125571  0.37734996  -0.04206092  1
  O2-  O188  1  0.37250572  0.37014511  0.23343250  1
  O2-  O189  1  0.34007870  0.37483272  0.49119859  1
  O2-  O190  1  0.32091274  0.38353044  0.73554968  1
  O2-  O191  1  0.43587952  0.87314066  -0.03243430  1
  O2-  O192  1  0.36196663  0.87929830  0.20954234  1
  O2-  O193  1  0.36072217  0.86389066  0.48510186  1
  O2-  O194  1  0.41941080  0.86027354  0.73503456  1
  O2-  O195  1  0.64752458  0.38323296  0.01307007  1
  O2-  O196  1  0.66081778  0.41275877  0.24541365  1
  O2-  O197  1  0.64448171  0.34608380  0.49734633  1
  O2-  O198  1  0.64674976  0.35787969  0.75205742  1
  O2-  O199  1  0.60506426  0.87474512  0.01554294  1
  O2-  O200  1  0.60130041  0.86362485  0.23948977  1
  O2-  O201  1  0.62499394  0.88233945  0.50732115  1
  O2-  O202  1  0.61343364  0.88832709  0.75633091  1
  O2-  O203  1  0.86847393  0.37222701  0.02078934  1
  O2-  O204  1  0.87615362  0.37837826  0.27338844  1
  O2-  O205  1  0.82313799  0.36804853  0.50230562  1
  O2-  O206  1  0.83811368  0.36332148  0.75726751  1
  O2-  O207  1  0.89972140  0.86446730  0.01684354  1
  O2-  O208  1  0.85874090  0.83856304  0.25149421  1
  O2-  O209  1  0.86247989  0.85016065  0.50735980  1
  O2-  O210  1  0.89984737  0.87335179  0.77089210  1
  O2-  O211  1  -0.00533498  0.15077131  -0.11042403  1
  O2-  O212  1  0.01263199  0.13744854  0.31235521  1
  O2-  O213  1  0.01400891  0.11424894  0.47444426  1
  O2-  O214  1  -0.02566696  0.16526980  0.63554957  1
  O2-  O215  1  -0.00675247  0.35808150  -0.11899120  1
  O2-  O216  1  0.02923439  0.37759009  0.35306825  1
  O2-  O217  1  -0.01789921  0.36407020  0.52793406  1
  O2-  O218  1  -0.01446540  0.33511650  0.68661514  1
  O2-  O219  1  0.26899707  -0.11590652  -0.02862097  1
  O2-  O220  1  0.24220180  -0.14451755  0.36079802  1
  O2-  O221  1  0.23488582  -0.11128539  0.61095617  1
  O2-  O222  1  0.25332056  -0.12059201  0.80064324  1
  O2-  O223  1  0.26848291  0.61225468  -0.02699976  1
  O2-  O224  1  0.24657491  0.65135504  0.14422168  1
  O2-  O225  1  0.22690830  0.62350594  0.62566849  1
  O2-  O226  1  0.26185060  0.60935527  0.80700717  1
  O2-  O227  1  0.50293281  0.14284312  -0.11136535  1
  O2-  O228  1  0.52369562  0.15451870  0.27981020  1
  O2-  O229  1  0.49447801  0.11630138  0.55518423  1
  O2-  O230  1  0.46937530  0.12943677  0.71806377  1
  O2-  O231  1  0.50910799  0.36434947  -0.11579523  1
  O2-  O232  1  0.51647097  0.37777074  0.36204441  1
  O2-  O233  1  0.49612065  0.38135512  0.54567078  1
  O2-  O234  1  0.48442889  0.38024410  0.70646128  1
  O2-  O235  1  0.74219621  -0.17029864  0.11709347  1
  O2-  O236  1  0.74105893  -0.02871434  0.20302899  1
  O2-  O237  1  0.73961115  -0.12564221  0.37040799  1
  O2-  O238  1  0.74571103  -0.14740620  0.89130526  1
  O2-  O239  1  0.75831981  0.52384790  0.07356984  1
  O2-  O240  1  0.75175907  0.63256792  0.18513337  1
  O2-  O241  1  0.74758027  0.65414344  0.37213886  1
  O2-  O242  1  0.76192272  0.67067158  0.76415264  1
