# generated using pymatgen
data_Gd19Ta56(WO20)8
_symmetry_space_group_name_H-M   'P 1'
_cell_length_a   15.49709032
_cell_length_b   15.50591826
_cell_length_c   15.43302063
_cell_angle_alpha   89.96235775
_cell_angle_beta   89.98371833
_cell_angle_gamma   90.03691786
_symmetry_Int_Tables_number   1
_chemical_formula_structural   Gd19Ta56(WO20)8
_chemical_formula_sum   'Gd19 Ta56 W8 O160'
_cell_volume   3708.50090885
_cell_formula_units_Z   1
loop_
 _symmetry_equiv_pos_site_id
 _symmetry_equiv_pos_as_xyz
  1  'x, y, z'
loop_
 _atom_type_symbol
 _atom_type_oxidation_number
  Gd3+  3.0
  Ta5+  5.0
  W6+  6.0
  O2-  -2.0
loop_
 _atom_site_type_symbol
 _atom_site_label
 _atom_site_symmetry_multiplicity
 _atom_site_fract_x
 _atom_site_fract_y
 _atom_site_fract_z
 _atom_site_occupancy
  Gd3+  Gd0  1  0.73649373  0.72780853  -0.02285235  1
  Gd3+  Gd1  1  0.75222830  0.25713672  -0.00464308  1
  Gd3+  Gd2  1  0.00539041  0.25126227  0.24259560  1
  Gd3+  Gd3  1  0.00884751  0.24826899  0.49787564  1
  Gd3+  Gd4  1  0.51606699  0.72715948  -0.01697207  1
  Gd3+  Gd5  1  0.74792443  0.25043883  0.49988528  1
  Gd3+  Gd6  1  0.27323087  0.26489487  0.51640075  1
  Gd3+  Gd7  1  0.24273005  0.74315490  -0.01711156  1
  Gd3+  Gd8  1  -0.03305165  0.74981947  0.48619278  1
  Gd3+  Gd9  1  0.48452872  0.25729726  0.24909141  1
  Gd3+  Gd10  1  0.21788437  0.77120086  0.52605812  1
  Gd3+  Gd11  1  0.75358000  0.25952015  0.24811833  1
  Gd3+  Gd12  1  0.24591903  0.24710419  0.74229169  1
  Gd3+  Gd13  1  0.51124125  0.25856012  0.48859549  1
  Gd3+  Gd14  1  0.48432876  0.24326318  -0.00555439  1
  Gd3+  Gd15  1  0.50692426  0.25826037  0.72566707  1
  Gd3+  Gd16  1  0.73375284  0.74594756  0.21390126  1
  Gd3+  Gd17  1  0.49442100  0.73335565  0.27694224  1
  Gd3+  Gd18  1  0.23888669  0.25592958  0.00255601  1
  Ta5+  Ta19  1  0.85782784  0.87076086  0.61715206  1
  Ta5+  Ta20  1  0.85798103  0.10821084  0.36419923  1
  Ta5+  Ta21  1  0.83448654  0.63175760  0.61288020  1
  Ta5+  Ta22  1  0.68781602  0.87011817  0.62946309  1
  Ta5+  Ta23  1  0.37343161  0.85776934  0.63886448  1
  Ta5+  Ta24  1  0.11171636  0.12172225  0.86862392  1
  Ta5+  Ta25  1  0.86928564  0.12719627  0.85897457  1
  Ta5+  Ta26  1  0.38464296  0.60601326  0.86875183  1
  Ta5+  Ta27  1  0.63024279  0.12444464  0.12786051  1
  Ta5+  Ta28  1  0.38103429  0.86699483  0.88572458  1
  Ta5+  Ta29  1  0.12546335  0.11385649  0.61493402  1
  Ta5+  Ta30  1  0.64210148  0.39513945  0.36994393  1
  Ta5+  Ta31  1  0.63581911  0.39315308  0.62109403  1
  Ta5+  Ta32  1  0.40929799  0.87937794  0.12680955  1
  Ta5+  Ta33  1  0.14894136  0.11815724  0.36059147  1
  Ta5+  Ta34  1  0.12123698  0.62925083  0.12235137  1
  Ta5+  Ta35  1  0.11477162  0.64488694  0.37205673  1
  Ta5+  Ta36  1  0.83394749  0.64228566  0.36315814  1
  Ta5+  Ta37  1  0.87606188  0.37425816  0.85524982  1
  Ta5+  Ta38  1  0.87977666  0.12070684  0.11406327  1
  Ta5+  Ta39  1  0.61116671  0.38027777  0.86746569  1
  Ta5+  Ta40  1  0.44624828  0.43922936  0.87070531  1
  Ta5+  Ta41  1  0.87686343  0.62259808  0.10946148  1
  Ta5+  Ta42  1  0.38399344  0.62599933  0.12669155  1
  Ta5+  Ta43  1  0.85709558  0.40014883  0.36551156  1
  Ta5+  Ta44  1  0.88185625  0.38577652  0.60624292  1
  Ta5+  Ta45  1  0.11908565  0.11254274  0.11848405  1
  Ta5+  Ta46  1  0.10736428  0.87537325  0.37341991  1
  Ta5+  Ta47  1  0.61680637  0.12557056  0.86537836  1
  Ta5+  Ta48  1  0.84131951  0.87594207  0.85631076  1
  Ta5+  Ta49  1  0.88730730  0.38376444  0.11293208  1
  Ta5+  Ta50  1  0.88013283  0.87503255  0.10544385  1
  Ta5+  Ta51  1  0.12167597  0.87153082  0.86599487  1
  Ta5+  Ta52  1  0.36201147  0.64438851  0.63035477  1
  Ta5+  Ta53  1  0.87619806  0.62356148  0.85556977  1
  Ta5+  Ta54  1  0.37833216  0.09247377  0.88151141  1
  Ta5+  Ta55  1  0.61080552  0.88836190  0.11361233  1
  Ta5+  Ta56  1  0.64819411  0.10711306  0.36975707  1
  Ta5+  Ta57  1  0.59651140  0.56145277  0.86266616  1
  Ta5+  Ta58  1  0.66686815  0.86292297  0.37979038  1
  Ta5+  Ta59  1  0.10701445  0.38333274  0.87253169  1
  Ta5+  Ta60  1  0.05991258  0.87879540  0.63573980  1
  Ta5+  Ta61  1  0.67326614  0.89221420  0.87987621  1
  Ta5+  Ta62  1  0.35571715  0.10806509  0.36346682  1
  Ta5+  Ta63  1  0.36006236  0.10502371  0.12703579  1
  Ta5+  Ta64  1  0.38761659  0.40976395  0.37688927  1
  Ta5+  Ta65  1  0.13445040  0.38497516  0.12971657  1
  Ta5+  Ta66  1  0.37868442  0.10499189  0.62880029  1
  Ta5+  Ta67  1  0.66540891  0.64210569  0.38740754  1
  Ta5+  Ta68  1  0.66883662  0.64043260  0.63976417  1
  Ta5+  Ta69  1  0.83651691  0.86442167  0.36211759  1
  Ta5+  Ta70  1  0.62135015  0.37381375  0.11960829  1
  Ta5+  Ta71  1  0.12637874  0.38791232  0.62109896  1
  Ta5+  Ta72  1  0.17411843  0.41744623  0.37313070  1
  Ta5+  Ta73  1  0.88023732  0.12055763  0.61259449  1
  Ta5+  Ta74  1  0.62959650  0.11162342  0.61726472  1
  W6+  W75  1  0.34153999  0.61904805  0.38537764  1
  W6+  W76  1  0.36945229  0.86078716  0.38202800  1
  W6+  W77  1  0.61436475  0.61743974  0.11879266  1
  W6+  W78  1  0.10081818  0.63606508  0.86776979  1
  W6+  W79  1  0.09089646  0.63271236  0.63108716  1
  W6+  W80  1  0.13036766  0.86228768  0.12522180  1
  W6+  W81  1  0.38240864  0.39641789  0.63871044  1
  W6+  W82  1  0.38751398  0.38146235  0.11631068  1
  O2-  O83  1  0.12979831  -0.00292420  0.11440297  1
  O2-  O84  1  0.12159550  0.00078805  0.37864122  1
  O2-  O85  1  0.10693747  -0.00584276  0.62651223  1
  O2-  O86  1  0.12355692  0.00222027  0.87141996  1
  O2-  O87  1  0.15094433  0.50992973  0.13166377  1
  O2-  O88  1  0.10780297  0.52061340  0.38794194  1
  O2-  O89  1  0.10528867  0.50407980  0.61227121  1
  O2-  O90  1  0.09145704  0.49934116  0.87186954  1
  O2-  O91  1  0.33851607  -0.01486428  0.13023152  1
  O2-  O92  1  0.38100591  -0.00522744  0.38530694  1
  O2-  O93  1  0.38223626  -0.01515029  0.63063574  1
  O2-  O94  1  0.32460979  -0.01482785  0.89459876  1
  O2-  O95  1  0.40475174  0.51108197  0.11755688  1
  O2-  O96  1  0.43245202  0.51920318  0.39733256  1
  O2-  O97  1  0.38189314  0.52824960  0.61985030  1
  O2-  O98  1  0.32205932  0.50332218  0.87159088  1
  O2-  O99  1  0.65541065  0.00818141  0.12338024  1
  O2-  O100  1  0.63351424  -0.01177505  0.36170730  1
  O2-  O101  1  0.63794496  -0.00838073  0.61997946  1
  O2-  O102  1  0.66074316  0.01669445  0.88977679  1
  O2-  O103  1  0.59029642  0.48545432  0.12320303  1
  O2-  O104  1  0.63401546  0.51438140  0.37207373  1
  O2-  O105  1  0.64627818  0.51071217  0.62606058  1
  O2-  O106  1  0.68759836  0.47670029  0.88685967  1
  O2-  O107  1  0.85878537  0.00074618  0.11520410  1
  O2-  O108  1  0.86994145  -0.01126372  0.35400660  1
  O2-  O109  1  0.87663726  0.00093063  0.60299713  1
  O2-  O110  1  0.84967270  0.01020668  0.86387121  1
  O2-  O111  1  0.85198809  0.50125875  0.12133163  1
  O2-  O112  1  0.86957694  0.51849150  0.36231547  1
  O2-  O113  1  0.86993042  0.50464559  0.59725048  1
  O2-  O114  1  0.88025584  0.49339757  0.86882899  1
  O2-  O115  1  0.10354153  0.25836896  0.13160222  1
  O2-  O116  1  0.07674370  0.22401068  0.36607879  1
  O2-  O117  1  0.15200498  0.24985797  0.61458914  1
  O2-  O118  1  0.16616356  0.25248898  0.86925905  1
  O2-  O119  1  0.18814236  0.73527876  0.12358698  1
  O2-  O120  1  0.17152099  0.76336276  0.38189012  1
  O2-  O121  1  0.11027601  0.76658275  0.63165381  1
  O2-  O122  1  0.16809775  0.75803603  0.84966776  1
  O2-  O123  1  0.39278186  0.23946735  0.11596079  1
  O2-  O124  1  0.43937316  0.19999661  0.37262745  1
  O2-  O125  1  0.36857770  0.25121947  0.64602229  1
  O2-  O126  1  0.34566644  0.20830501  0.91530067  1
  O2-  O127  1  0.44343446  0.74298619  0.12153102  1
  O2-  O128  1  0.40712914  0.73598989  0.39107420  1
  O2-  O129  1  0.29493053  0.76218806  0.65415207  1
  O2-  O130  1  0.40303969  0.74321022  0.89049768  1
  O2-  O131  1  0.57029818  0.24542503  0.12099566  1
  O2-  O132  1  0.65342485  0.24634990  0.37636241  1
  O2-  O133  1  0.61798494  0.24537097  0.60226294  1
  O2-  O134  1  0.55942181  0.24783900  0.86279235  1
  O2-  O135  1  0.63591924  0.75424885  0.09774991  1
  O2-  O136  1  0.60071392  0.75421818  0.38328338  1
  O2-  O137  1  0.63929754  0.75965924  0.64538666  1
  O2-  O138  1  0.61840672  0.78092970  0.89550118  1
  O2-  O139  1  0.88776801  0.25445277  0.13010070  1
  O2-  O140  1  0.84542852  0.25003410  0.36532426  1
  O2-  O141  1  0.87611988  0.25011740  0.57624335  1
  O2-  O142  1  0.81969586  0.25347131  0.86244623  1
  O2-  O143  1  0.83201566  0.74901989  0.09573888  1
  O2-  O144  1  0.90004421  0.75287895  0.35094087  1
  O2-  O145  1  0.89027512  0.74410601  0.62027760  1
  O2-  O146  1  0.83857061  0.74363069  0.86116842  1
  O2-  O147  1  0.14177406  0.14131745  -0.01143803  1
  O2-  O148  1  0.09482083  0.12338915  0.24062179  1
  O2-  O149  1  0.10974638  0.12595200  0.49338555  1
  O2-  O150  1  0.14696181  0.13637873  0.74941366  1
  O2-  O151  1  0.14034075  0.63374273  -0.00287389  1
  O2-  O152  1  0.10893491  0.64383815  0.25139773  1
  O2-  O153  1  0.09253544  0.66364730  0.50050176  1
  O2-  O154  1  0.05739137  0.64196222  0.74642415  1
  O2-  O155  1  0.42053031  0.09710950  0.01780512  1
  O2-  O156  1  0.41042650  0.11508141  0.23886034  1
  O2-  O157  1  0.39432315  0.13706478  0.51148112  1
  O2-  O158  1  0.34811386  0.12254936  0.76306751  1
  O2-  O159  1  0.34341016  0.63859560  0.00565211  1
  O2-  O160  1  0.38346582  0.63289140  0.25127602  1
  O2-  O161  1  0.29887514  0.65016773  0.51547294  1
  O2-  O162  1  0.37162873  0.64891322  0.75239249  1
  O2-  O163  1  0.62305448  0.15013628  -0.00207304  1
  O2-  O164  1  0.59119676  0.13472093  0.24823793  1
  O2-  O165  1  0.59343301  0.12226806  0.48826408  1
  O2-  O166  1  0.64395835  0.13586560  0.74594323  1
  O2-  O167  1  0.63533442  0.62191593  -0.02288794  1
  O2-  O168  1  0.61792640  0.64960481  0.25424189  1
  O2-  O169  1  0.66684123  0.64230883  0.50811848  1
  O2-  O170  1  0.64903253  0.61862620  0.76854247  1
  O2-  O171  1  0.84754349  0.14194572  -0.00945531  1
  O2-  O172  1  0.90928151  0.13396288  0.24416181  1
  O2-  O173  1  0.92043395  0.12614798  0.47216470  1
  O2-  O174  1  0.86681767  0.13618680  0.73582776  1
  O2-  O175  1  0.84357816  0.62043390  -0.01341663  1
  O2-  O176  1  0.84312923  0.63995450  0.22812556  1
  O2-  O177  1  0.85722528  0.64651844  0.48700889  1
  O2-  O178  1  0.86231418  0.61641007  0.73777620  1
  O2-  O179  1  0.14157365  0.37189322  -0.00692516  1
  O2-  O180  1  0.12759132  0.38152117  0.26211725  1
  O2-  O181  1  0.13123142  0.36679579  0.48191061  1
  O2-  O182  1  0.13797190  0.36847736  0.74875793  1
  O2-  O183  1  0.13948867  0.85762534  -0.01185759  1
  O2-  O184  1  0.10166599  0.86614573  0.25571579  1
  O2-  O185  1  0.06747347  0.86705764  0.49790942  1
  O2-  O186  1  0.05760030  0.87599903  0.75922520  1
  O2-  O187  1  0.42073055  0.37566378  -0.01793774  1
  O2-  O188  1  0.38752292  0.37362157  0.25746680  1
  O2-  O189  1  0.39112689  0.35837149  0.49629511  1
  O2-  O190  1  0.40299531  0.36659648  0.77631983  1
  O2-  O191  1  0.34292977  0.85154879  0.01569366  1
  O2-  O192  1  0.38447108  0.84429750  0.24285593  1
  O2-  O193  1  0.34580117  0.85359070  0.51580455  1
  O2-  O194  1  0.39432519  0.86871173  0.76539872  1
  O2-  O195  1  0.62023374  0.34142034  -0.00533037  1
  O2-  O196  1  0.60813365  0.34669916  0.24400675  1
  O2-  O197  1  0.60858780  0.37553198  0.49584905  1
  O2-  O198  1  0.63515036  0.35822808  0.74418530  1
  O2-  O199  1  0.69528890  0.88397768  0.01694597  1
  O2-  O200  1  0.63486138  0.85388430  0.23545335  1
  O2-  O201  1  0.67726586  0.86505506  0.49942181  1
  O2-  O202  1  0.69197597  0.88515681  0.75849193  1
  O2-  O203  1  0.85962503  0.36360950  -0.00854846  1
  O2-  O204  1  0.90828363  0.36997688  0.24994406  1
  O2-  O205  1  0.92214376  0.37630587  0.47206534  1
  O2-  O206  1  0.87918439  0.37278759  0.73257651  1
  O2-  O207  1  0.87476100  0.87233409  -0.01814468  1
  O2-  O208  1  0.83009415  0.86053109  0.22504253  1
  O2-  O209  1  0.86722828  0.85970658  0.48480318  1
  O2-  O210  1  0.87883320  0.87534195  0.74167934  1
  O2-  O211  1  -0.00290087  0.11756199  0.08538066  1
  O2-  O212  1  -0.00620006  -0.14087156  0.11894055  1
  O2-  O213  1  0.00439023  0.14805544  0.62873553  1
  O2-  O214  1  -0.00828456  0.14123104  0.87017147  1
  O2-  O215  1  0.00623101  0.40170363  0.10605737  1
  O2-  O216  1  -0.00318162  0.62931387  0.11193826  1
  O2-  O217  1  0.00612580  0.35117695  0.61590839  1
  O2-  O218  1  -0.00673966  0.33867118  0.87366671  1
  O2-  O219  1  0.24587819  0.14737617  0.11200996  1
  O2-  O220  1  0.25372356  0.09983554  0.28541147  1
  O2-  O221  1  0.25401962  0.15359845  0.42729136  1
  O2-  O222  1  0.25298171  0.11845885  0.61520666  1
  O2-  O223  1  0.25211365  0.35317082  0.11860035  1
  O2-  O224  1  0.27544632  0.49210411  0.36637818  1
  O2-  O225  1  0.27085563  0.33344258  0.38421417  1
  O2-  O226  1  0.24994240  0.38338636  0.61656190  1
  O2-  O227  1  0.51243647  -0.13331641  0.03367873  1
  O2-  O228  1  0.50568508  -0.05293381  0.16526461  1
  O2-  O229  1  0.50221875  0.12596984  0.65410560  1
  O2-  O230  1  0.49709473  0.08595873  0.85927138  1
  O2-  O231  1  0.48437853  0.56559270  -0.05614408  1
  O2-  O232  1  0.50934156  0.35809136  0.37143768  1
  O2-  O233  1  0.51201454  0.37242694  0.63254352  1
  O2-  O234  1  0.48891868  0.53641117  0.79129066  1
  O2-  O235  1  0.74621392  0.16638848  0.12435197  1
  O2-  O236  1  0.74854432  0.11531358  0.28637287  1
  O2-  O237  1  0.75412222  0.10827399  0.44118917  1
  O2-  O238  1  0.75193735  0.13507040  0.60409714  1
  O2-  O239  1  0.74538154  0.34848201  0.11957189  1
  O2-  O240  1  0.74777081  0.39920110  0.29037268  1
  O2-  O241  1  0.75383772  0.38726127  0.44166841  1
  O2-  O242  1  0.75729114  0.35984546  0.60907037  1
