# generated using pymatgen
data_Gd19Ta56(WO20)8
_symmetry_space_group_name_H-M   'P 1'
_cell_length_a   15.50652345
_cell_length_b   15.48118116
_cell_length_c   15.29386421
_cell_angle_alpha   90.05009317
_cell_angle_beta   90.10469080
_cell_angle_gamma   90.05594317
_symmetry_Int_Tables_number   1
_chemical_formula_structural   Gd19Ta56(WO20)8
_chemical_formula_sum   'Gd19 Ta56 W8 O160'
_cell_volume   3671.42502990
_cell_formula_units_Z   1
loop_
 _symmetry_equiv_pos_site_id
 _symmetry_equiv_pos_as_xyz
  1  'x, y, z'
loop_
 _atom_type_symbol
 _atom_type_oxidation_number
  Gd3+  3.0
  Ta5+  5.0
  W6+  6.0
  O2-  -2.0
loop_
 _atom_site_type_symbol
 _atom_site_label
 _atom_site_symmetry_multiplicity
 _atom_site_fract_x
 _atom_site_fract_y
 _atom_site_fract_z
 _atom_site_occupancy
  Gd3+  Gd0  1  0.76403521  0.24157359  0.00736301  1
  Gd3+  Gd1  1  0.51967320  0.74237108  0.73024996  1
  Gd3+  Gd2  1  0.49987275  0.25537866  0.01175346  1
  Gd3+  Gd3  1  -0.02121967  0.76792389  -0.01719012  1
  Gd3+  Gd4  1  -0.02490682  0.25489041  0.73446954  1
  Gd3+  Gd5  1  0.76134624  0.25114028  0.49270167  1
  Gd3+  Gd6  1  0.24274756  0.24539795  0.48187372  1
  Gd3+  Gd7  1  0.24780196  0.73457066  0.74611999  1
  Gd3+  Gd8  1  0.24103790  0.24247197  0.01726350  1
  Gd3+  Gd9  1  0.75151967  0.76241077  -0.00582932  1
  Gd3+  Gd10  1  -0.03116140  0.76789948  0.70683421  1
  Gd3+  Gd11  1  0.24361169  0.27494199  0.75708942  1
  Gd3+  Gd12  1  0.51167157  0.25627103  0.74653076  1
  Gd3+  Gd13  1  0.50732738  0.75226735  0.29167844  1
  Gd3+  Gd14  1  0.75877655  0.74230764  0.27608067  1
  Gd3+  Gd15  1  0.00450841  0.26964014  0.24779641  1
  Gd3+  Gd16  1  0.74951427  0.75800022  0.75879480  1
  Gd3+  Gd17  1  0.46620730  0.22450098  0.26763339  1
  Gd3+  Gd18  1  0.23996163  0.74840651  -0.00597659  1
  Ta5+  Ta19  1  0.86918917  0.11741851  0.61852563  1
  Ta5+  Ta20  1  0.11480285  0.12894337  0.12435016  1
  Ta5+  Ta21  1  0.37122297  0.38070643  0.62448179  1
  Ta5+  Ta22  1  0.63215917  0.12275112  0.14460008  1
  Ta5+  Ta23  1  0.09575776  0.64747435  0.38095201  1
  Ta5+  Ta24  1  0.87967811  0.61695935  0.15142116  1
  Ta5+  Ta25  1  0.13633853  0.88676922  0.63049691  1
  Ta5+  Ta26  1  0.89174760  0.39027411  0.38763486  1
  Ta5+  Ta27  1  0.09986420  0.61521049  0.86703539  1
  Ta5+  Ta28  1  0.34894898  0.62798440  0.37874410  1
  Ta5+  Ta29  1  0.38400576  0.38613019  0.89245774  1
  Ta5+  Ta30  1  0.86199041  0.38866314  0.13311223  1
  Ta5+  Ta31  1  0.16002021  0.89170798  0.37638563  1
  Ta5+  Ta32  1  0.37027617  0.62289494  0.61353295  1
  Ta5+  Ta33  1  0.08590722  0.37322033  0.89190135  1
  Ta5+  Ta34  1  0.63619898  0.88078789  0.40938530  1
  Ta5+  Ta35  1  0.38374058  0.12178325  0.62644977  1
  Ta5+  Ta36  1  0.92575032  0.63495238  0.38152548  1
  Ta5+  Ta37  1  0.39187103  0.86906039  0.87832595  1
  Ta5+  Ta38  1  0.12886386  0.88508201  0.12646803  1
  Ta5+  Ta39  1  0.37854943  0.63144187  0.13470879  1
  Ta5+  Ta40  1  0.61455124  0.63919705  0.12590871  1
  Ta5+  Ta41  1  0.65834401  0.41125121  0.12783793  1
  Ta5+  Ta42  1  0.63398174  0.37774901  0.87657633  1
  Ta5+  Ta43  1  0.63949086  0.61883038  0.40662010  1
  Ta5+  Ta44  1  0.36803210  0.88372163  0.38529318  1
  Ta5+  Ta45  1  0.61867817  0.87865982  0.13432985  1
  Ta5+  Ta46  1  0.38914936  0.62045741  0.87814944  1
  Ta5+  Ta47  1  0.62152781  0.10895859  0.88007797  1
  Ta5+  Ta48  1  0.65350018  0.88381516  0.61073913  1
  Ta5+  Ta49  1  0.12455432  0.38158460  0.62606674  1
  Ta5+  Ta50  1  0.35299063  0.38363939  0.13636401  1
  Ta5+  Ta51  1  0.35686124  0.11089849  0.87486137  1
  Ta5+  Ta52  1  0.90004041  0.88571797  0.36696946  1
  Ta5+  Ta53  1  0.63081887  0.12813166  0.62307784  1
  Ta5+  Ta54  1  0.82006822  0.87805881  0.58215447  1
  Ta5+  Ta55  1  0.37783680  0.86705666  0.13142544  1
  Ta5+  Ta56  1  0.89484201  0.61927449  0.83676304  1
  Ta5+  Ta57  1  0.63837226  0.62144386  0.87250550  1
  Ta5+  Ta58  1  0.62359916  0.37647456  0.61634059  1
  Ta5+  Ta59  1  0.12330910  0.61771807  0.62896144  1
  Ta5+  Ta60  1  0.87818961  0.37673384  0.87565587  1
  Ta5+  Ta61  1  0.63033988  0.12311310  0.37363184  1
  Ta5+  Ta62  1  0.08791087  0.12429278  0.37872997  1
  Ta5+  Ta63  1  0.82164591  0.62978512  0.58715670  1
  Ta5+  Ta64  1  0.14209259  0.12489667  0.87483752  1
  Ta5+  Ta65  1  0.34790991  0.08687407  0.37684032  1
  Ta5+  Ta66  1  0.10953552  0.63323374  0.12867512  1
  Ta5+  Ta67  1  0.14576376  0.39301590  0.12988982  1
  Ta5+  Ta68  1  0.12607156  0.39699860  0.37424948  1
  Ta5+  Ta69  1  0.11589091  0.12680784  0.62557615  1
  Ta5+  Ta70  1  0.65352404  0.62326589  0.60845141  1
  Ta5+  Ta71  1  0.91586724  0.12939998  0.38705577  1
  Ta5+  Ta72  1  0.36146271  0.88064051  0.63193962  1
  Ta5+  Ta73  1  0.62800751  0.90173949  0.87691421  1
  Ta5+  Ta74  1  0.89659209  0.87666053  0.16362351  1
  W6+  W75  1  0.36725514  0.10927917  0.11769640  1
  W6+  W76  1  0.89145724  0.11315133  0.87648974  1
  W6+  W77  1  0.86194471  0.38766842  0.61520910  1
  W6+  W78  1  0.35327263  0.37553689  0.36576689  1
  W6+  W79  1  0.78860022  0.95987657  0.77387062  1
  W6+  W80  1  0.61927465  0.37312145  0.36657645  1
  W6+  W81  1  0.11235479  0.88006180  0.86294146  1
  W6+  W82  1  0.88784769  0.12931362  0.13433599  1
  O2-  O83  1  0.10296299  0.00432629  0.11722932  1
  O2-  O84  1  0.09781551  -0.00178956  0.37517129  1
  O2-  O85  1  0.15180430  0.01314186  0.64590127  1
  O2-  O86  1  0.10741326  0.01433964  0.86463835  1
  O2-  O87  1  0.15294539  0.51813972  0.12625634  1
  O2-  O88  1  0.12450746  0.51631630  0.37829321  1
  O2-  O89  1  0.08821212  0.49905546  0.63461851  1
  O2-  O90  1  0.09798846  0.49233119  0.87053114  1
  O2-  O91  1  0.33635922  -0.02336358  0.12053759  1
  O2-  O92  1  0.43254174  -0.00118315  0.38599121  1
  O2-  O93  1  0.37180564  0.00563388  0.66169699  1
  O2-  O94  1  0.36632982  -0.01108955  0.86445418  1
  O2-  O95  1  0.36755408  0.51047558  0.13753974  1
  O2-  O96  1  0.33595569  0.51170736  0.36245889  1
  O2-  O97  1  0.39650740  0.49870931  0.63552446  1
  O2-  O98  1  0.34668705  0.50398719  0.87214040  1
  O2-  O99  1  0.63235500  -0.00188179  0.12568881  1
  O2-  O100  1  0.65612120  0.00137399  0.39063788  1
  O2-  O101  1  0.65003203  0.01135900  0.60719551  1
  O2-  O102  1  0.70839767  0.02043170  0.87492832  1
  O2-  O103  1  0.59291378  0.52118054  0.10767520  1
  O2-  O104  1  0.65107377  0.50246864  0.37941524  1
  O2-  O105  1  0.64385044  0.49411656  0.61063557  1
  O2-  O106  1  0.65282671  0.49931659  0.89317164  1
  O2-  O107  1  0.88414559  -0.00697639  0.14002145  1
  O2-  O108  1  0.89566829  0.00969792  0.36566022  1
  O2-  O109  1  0.83766294  -0.00072751  0.64073925  1
  O2-  O110  1  0.89738678  -0.00457358  0.84363293  1
  O2-  O111  1  0.92535582  0.49840567  0.13668786  1
  O2-  O112  1  0.92071449  0.50789514  0.37693411  1
  O2-  O113  1  0.84601661  0.51540715  0.61273365  1
  O2-  O114  1  0.86626590  0.50397399  0.86494340  1
  O2-  O115  1  0.12191698  0.26428132  0.13177271  1
  O2-  O116  1  0.14156758  0.25322771  0.36944907  1
  O2-  O117  1  0.16542190  0.24851319  0.62480400  1
  O2-  O118  1  0.16351986  0.26781239  0.88824765  1
  O2-  O119  1  0.15540573  0.74812414  0.11803421  1
  O2-  O120  1  0.11759248  0.77763832  0.37624734  1
  O2-  O121  1  0.12439197  0.74782993  0.65154103  1
  O2-  O122  1  0.13586788  0.74250409  0.86082721  1
  O2-  O123  1  0.36908981  0.25405903  0.10725675  1
  O2-  O124  1  0.35529559  0.22211698  0.37881030  1
  O2-  O125  1  0.34125686  0.24177725  0.63473486  1
  O2-  O126  1  0.34634202  0.26360514  0.90261753  1
  O2-  O127  1  0.32618807  0.75004776  0.12815032  1
  O2-  O128  1  0.39701237  0.76083512  0.39214692  1
  O2-  O129  1  0.35288926  0.74984172  0.62307426  1
  O2-  O130  1  0.33526617  0.74331243  0.86888122  1
  O2-  O131  1  0.54964764  0.21923873  0.14128785  1
  O2-  O132  1  0.58141363  0.24280520  0.35594689  1
  O2-  O133  1  0.66034118  0.25303838  0.64045542  1
  O2-  O134  1  0.58003670  0.24431283  0.87938572  1
  O2-  O135  1  0.68035927  0.76200053  0.13704527  1
  O2-  O136  1  0.62875611  0.75068494  0.38398090  1
  O2-  O137  1  0.63715473  0.75312614  0.63742884  1
  O2-  O138  1  0.76281080  0.65280708  0.87496857  1
  O2-  O139  1  0.91681921  0.27195462  0.12771673  1
  O2-  O140  1  0.88037360  0.25477496  0.40346066  1
  O2-  O141  1  0.86036081  0.25128143  0.60804950  1
  O2-  O142  1  0.91703105  0.25327260  0.87660295  1
  O2-  O143  1  0.87316907  0.74447080  0.18088079  1
  O2-  O144  1  0.87465080  0.75576411  0.37087233  1
  O2-  O145  1  0.85735565  0.75745401  0.59177895  1
  O2-  O146  1  0.90484367  0.75038502  0.85180674  1
  O2-  O147  1  0.09661651  0.14822290  -0.00589426  1
  O2-  O148  1  0.08454590  0.13479551  0.24644767  1
  O2-  O149  1  0.14027300  0.13012941  0.50132075  1
  O2-  O150  1  0.09141109  0.16149056  0.75925836  1
  O2-  O151  1  0.15024770  0.62832002  -0.01373237  1
  O2-  O152  1  0.09601295  0.64024197  0.24869126  1
  O2-  O153  1  0.10899007  0.63786850  0.50987674  1
  O2-  O154  1  0.17708298  0.60855698  0.76312611  1
  O2-  O155  1  0.42433355  0.12790863  -0.01989779  1
  O2-  O156  1  0.36934933  0.10582413  0.25493721  1
  O2-  O157  1  0.33792369  0.10820606  0.51095989  1
  O2-  O158  1  0.41619065  0.14819274  0.76880768  1
  O2-  O159  1  0.36323769  0.63581319  0.00051508  1
  O2-  O160  1  0.39654107  0.64924249  0.26020551  1
  O2-  O161  1  0.39469415  0.61955981  0.49490900  1
  O2-  O162  1  0.39939266  0.64360434  0.74833250  1
  O2-  O163  1  0.63834939  0.14718310  0.00692100  1
  O2-  O164  1  0.57761189  0.09896883  0.25687676  1
  O2-  O165  1  0.64355035  0.15006898  0.49649064  1
  O2-  O166  1  0.60724003  0.12807699  0.75581786  1
  O2-  O167  1  0.63460550  0.65971958  0.00127717  1
  O2-  O168  1  0.62716451  0.64282434  0.25582057  1
  O2-  O169  1  0.56820928  0.62267104  0.50363413  1
  O2-  O170  1  0.62882784  0.61923206  0.74561495  1
  O2-  O171  1  0.85309026  0.13192179  0.00010993  1
  O2-  O172  1  0.90817986  0.15515658  0.26519036  1
  O2-  O173  1  0.83739251  0.11549886  0.49607274  1
  O2-  O174  1  0.88134159  0.14233876  0.74544715  1
  O2-  O175  1  0.79783533  0.63414015  0.06609710  1
  O2-  O176  1  0.83737360  0.61112610  0.26972812  1
  O2-  O177  1  0.91973338  0.63439135  0.50123875  1
  O2-  O178  1  0.84541690  0.65162931  0.72080872  1
  O2-  O179  1  0.07984261  0.38461939  0.01559726  1
  O2-  O180  1  0.08671754  0.39486292  0.24380428  1
  O2-  O181  1  0.15408837  0.37823989  0.50162584  1
  O2-  O182  1  0.09634943  0.35174210  0.75351046  1
  O2-  O183  1  0.16598781  0.87495786  0.00311595  1
  O2-  O184  1  0.17237169  0.88718681  0.24154872  1
  O2-  O185  1  0.15768346  0.88866159  0.51046855  1
  O2-  O186  1  0.24763903  0.87518501  0.69678900  1
  O2-  O187  1  0.42093753  0.38737223  0.01557471  1
  O2-  O188  1  0.42184384  0.36173950  0.23769759  1
  O2-  O189  1  0.34113439  0.36408159  0.50698685  1
  O2-  O190  1  0.38063399  0.35068110  0.76224198  1
  O2-  O191  1  0.35590296  0.85259091  -0.00278048  1
  O2-  O192  1  0.39822958  0.86324730  0.25546149  1
  O2-  O193  1  0.35723365  0.89467731  0.51293227  1
  O2-  O194  1  0.41624481  0.84673267  0.75215244  1
  O2-  O195  1  0.62102541  0.35810212  0.01338367  1
  O2-  O196  1  0.60777139  0.38243263  0.23158727  1
  O2-  O197  1  0.63772627  0.34842180  0.49591807  1
  O2-  O198  1  0.62225190  0.37524304  0.75287025  1
  O2-  O199  1  0.64722873  0.87015268  0.00615163  1
  O2-  O200  1  0.60806134  0.86673484  0.26364207  1
  O2-  O201  1  0.56573630  0.87779470  0.50736223  1
  O2-  O202  1  0.61936299  0.75475964  0.84409012  1
  O2-  O203  1  0.85760529  0.38004194  0.00571676  1
  O2-  O204  1  0.87789192  0.37098849  0.26212462  1
  O2-  O205  1  0.81372991  0.39195855  0.48397485  1
  O2-  O206  1  0.89106496  0.37377126  0.74956581  1
  O2-  O207  1  0.86423988  0.83702672  0.04037493  1
  O2-  O208  1  0.80841218  0.88047308  0.26255483  1
  O2-  O209  1  0.91378647  0.88988340  0.48936584  1
  O2-  O210  1  0.85215859  0.85617718  0.71497954  1
  O2-  O211  1  0.01429132  -0.15215890  0.10727548  1
  O2-  O212  1  -0.02300063  -0.12317891  0.26617516  1
  O2-  O213  1  -0.00478531  0.12808006  0.61119039  1
  O2-  O214  1  0.05683423  -0.11965855  0.73216236  1
  O2-  O215  1  -0.01529564  0.62593999  -0.07021551  1
  O2-  O216  1  -0.00773064  0.65735786  0.09662274  1
  O2-  O217  1  0.01031004  0.35983531  0.39855968  1
  O2-  O218  1  0.00769222  0.62917826  0.76537219  1
  O2-  O219  1  0.25257890  0.10853934  -0.05074922  1
  O2-  O220  1  0.23442927  0.13350189  0.12846622  1
  O2-  O221  1  0.27284158  -0.02496272  0.37172264  1
  O2-  O222  1  0.25184651  0.13393490  0.79349995  1
  O2-  O223  1  0.25206271  0.38538836  0.04426361  1
  O2-  O224  1  0.25187727  0.37523357  0.20699838  1
  O2-  O225  1  0.24886757  0.61051396  0.61547508  1
  O2-  O226  1  0.24823797  0.39721992  0.65971577  1
  O2-  O227  1  0.50717769  -0.14287017  -0.09853925  1
  O2-  O228  1  0.50067921  -0.13821547  0.11106767  1
  O2-  O229  1  0.50212798  0.14906778  0.61283752  1
  O2-  O230  1  0.55176817  0.01083387  0.89429687  1
  O2-  O231  1  0.50784025  0.61204212  -0.11395273  1
  O2-  O232  1  0.49919233  0.67838189  0.12826452  1
  O2-  O233  1  0.49644318  0.34808036  0.62423170  1
  O2-  O234  1  0.50277945  0.39247137  0.87160698  1
  O2-  O235  1  0.74954584  -0.14147307  -0.12798433  1
  O2-  O236  1  0.74693205  0.14691709  0.15261559  1
  O2-  O237  1  0.72804507  -0.14838109  0.49171295  1
  O2-  O238  1  0.64029419  -0.09912111  0.74664345  1
  O2-  O239  1  0.75968998  0.47779416  0.14756290  1
  O2-  O240  1  0.74730422  0.31934977  0.12812783  1
  O2-  O241  1  0.73066785  0.64794090  0.49212113  1
  O2-  O242  1  0.74990149  0.33316210  0.88063724  1
