# generated using pymatgen
data_Gd19Ta56(WO20)8
_symmetry_space_group_name_H-M   'P 1'
_cell_length_a   15.57839911
_cell_length_b   15.47706546
_cell_length_c   15.26497026
_cell_angle_alpha   90.06556767
_cell_angle_beta   90.08061343
_cell_angle_gamma   89.73786296
_symmetry_Int_Tables_number   1
_chemical_formula_structural   Gd19Ta56(WO20)8
_chemical_formula_sum   'Gd19 Ta56 W8 O160'
_cell_volume   3680.46041939
_cell_formula_units_Z   1
loop_
 _symmetry_equiv_pos_site_id
 _symmetry_equiv_pos_as_xyz
  1  'x, y, z'
loop_
 _atom_type_symbol
 _atom_type_oxidation_number
  Gd3+  3.0
  Ta5+  5.0
  W6+  6.0
  O2-  -2.0
loop_
 _atom_site_type_symbol
 _atom_site_label
 _atom_site_symmetry_multiplicity
 _atom_site_fract_x
 _atom_site_fract_y
 _atom_site_fract_z
 _atom_site_occupancy
  Gd3+  Gd0  1  0.75020609  0.74091409  0.52413597  1
  Gd3+  Gd1  1  0.00405885  0.76019549  -0.00580453  1
  Gd3+  Gd2  1  0.18358479  0.75151302  0.47236859  1
  Gd3+  Gd3  1  0.52935296  0.74333291  0.47267505  1
  Gd3+  Gd4  1  0.53086302  0.27985532  0.48235975  1
  Gd3+  Gd5  1  0.25248546  0.75300241  0.74240719  1
  Gd3+  Gd6  1  0.25346763  0.25714235  -0.00811892  1
  Gd3+  Gd7  1  0.75106424  0.73701123  0.00430457  1
  Gd3+  Gd8  1  -0.03441159  0.74992547  0.50614204  1
  Gd3+  Gd9  1  0.24686895  0.75400058  -0.00163981  1
  Gd3+  Gd10  1  0.23075133  0.27338096  0.71247783  1
  Gd3+  Gd11  1  0.52275901  0.23326633  0.00495686  1
  Gd3+  Gd12  1  0.76956248  0.26091524  0.26437983  1
  Gd3+  Gd13  1  0.48311151  0.75492533  0.72915003  1
  Gd3+  Gd14  1  0.77510360  0.25291212  0.76828667  1
  Gd3+  Gd15  1  0.51310417  0.26721699  0.24498922  1
  Gd3+  Gd16  1  0.78551457  0.25222161  0.50245717  1
  Gd3+  Gd17  1  0.47273250  0.24239074  0.77920525  1
  Gd3+  Gd18  1  0.21284828  0.78036115  0.23709326  1
  Ta5+  Ta19  1  0.38466109  0.11821619  0.12913467  1
  Ta5+  Ta20  1  0.36819134  0.62062279  0.87185678  1
  Ta5+  Ta21  1  0.63815530  0.38805214  0.10639047  1
  Ta5+  Ta22  1  0.60423523  0.88542184  0.62290996  1
  Ta5+  Ta23  1  0.36328447  0.38450971  0.37424548  1
  Ta5+  Ta24  1  0.66781983  0.60400795  0.37502296  1
  Ta5+  Ta25  1  0.65312717  0.41905425  0.36201293  1
  Ta5+  Ta26  1  0.12143038  0.90340755  0.08992839  1
  Ta5+  Ta27  1  0.62840602  0.61347500  0.63784749  1
  Ta5+  Ta28  1  0.10706033  0.61699626  0.12726940  1
  Ta5+  Ta29  1  0.14797724  0.11080723  0.34358494  1
  Ta5+  Ta30  1  0.39583420  0.08742495  0.92596958  1
  Ta5+  Ta31  1  0.33652461  0.61742860  0.59054069  1
  Ta5+  Ta32  1  0.84651763  0.88400605  0.64438222  1
  Ta5+  Ta33  1  0.87849244  0.61708124  0.64709272  1
  Ta5+  Ta34  1  0.61819314  0.86606353  0.87629467  1
  Ta5+  Ta35  1  0.35414349  0.63032292  0.37854195  1
  Ta5+  Ta36  1  0.66866394  0.12016751  0.13003224  1
  Ta5+  Ta37  1  0.63216753  0.37974910  0.88388777  1
  Ta5+  Ta38  1  0.89716498  0.37899987  0.37994219  1
  Ta5+  Ta39  1  0.09256219  0.35070435  0.86106993  1
  Ta5+  Ta40  1  0.83472143  0.61538099  0.37959727  1
  Ta5+  Ta41  1  0.61958221  0.87526341  0.13168861  1
  Ta5+  Ta42  1  0.12443182  0.12801224  0.59481082  1
  Ta5+  Ta43  1  0.90752883  0.37124795  0.63697014  1
  Ta5+  Ta44  1  0.12032257  0.90136655  0.64925521  1
  Ta5+  Ta45  1  0.88286867  0.10315525  0.37262857  1
  Ta5+  Ta46  1  0.11991530  0.36203715  0.35606545  1
  Ta5+  Ta47  1  0.67734753  0.86980109  0.37173490  1
  Ta5+  Ta48  1  0.37307466  0.38850826  0.12303052  1
  Ta5+  Ta49  1  0.08036614  0.61818685  0.33228665  1
  Ta5+  Ta50  1  0.35613202  0.87314090  0.59141714  1
  Ta5+  Ta51  1  0.89034392  0.11718395  0.63878801  1
  Ta5+  Ta52  1  0.12981160  0.36792357  0.12137612  1
  Ta5+  Ta53  1  0.89202501  0.62213691  0.14075370  1
  Ta5+  Ta54  1  0.13119674  0.58396793  0.88513516  1
  Ta5+  Ta55  1  0.93089519  0.36605979  0.88533126  1
  Ta5+  Ta56  1  0.89306034  0.61177787  0.89669053  1
  Ta5+  Ta57  1  0.86203074  0.88885508  0.89154496  1
  Ta5+  Ta58  1  0.11729378  0.59941073  0.63954978  1
  Ta5+  Ta59  1  0.41162347  0.40364346  0.62478413  1
  Ta5+  Ta60  1  0.39417974  0.63454485  0.12763733  1
  Ta5+  Ta61  1  0.10557823  0.16363750  0.85638104  1
  Ta5+  Ta62  1  0.62643155  0.12765192  0.60580715  1
  Ta5+  Ta63  1  0.44410808  0.44514859  0.92160689  1
  Ta5+  Ta64  1  0.61203530  0.62237125  0.87985206  1
  Ta5+  Ta65  1  0.87441372  0.88566572  0.12855589  1
  Ta5+  Ta66  1  0.63508264  0.11081745  0.86949965  1
  Ta5+  Ta67  1  0.33948516  0.88962264  0.38365715  1
  Ta5+  Ta68  1  0.07217387  0.36593368  0.60331847  1
  Ta5+  Ta69  1  0.88394024  0.37525678  0.12285151  1
  Ta5+  Ta70  1  0.37935273  0.88895779  0.87308993  1
  Ta5+  Ta71  1  0.38784549  0.11781851  0.60733442  1
  Ta5+  Ta72  1  0.65238583  0.38318443  0.62455776  1
  Ta5+  Ta73  1  0.88215991  0.13652325  0.90134150  1
  Ta5+  Ta74  1  0.66035821  0.08689926  0.39280394  1
  W6+  W75  1  0.83612308  0.89033035  0.38281093  1
  W6+  W76  1  0.62976204  0.62725763  0.13611773  1
  W6+  W77  1  0.83075300  0.13384725  0.11519424  1
  W6+  W78  1  0.09538915  0.92309286  0.84164992  1
  W6+  W79  1  0.37378455  0.87522394  0.12805719  1
  W6+  W80  1  0.04422339  0.90453921  0.33463257  1
  W6+  W81  1  0.09419380  0.14405954  0.10817258  1
  W6+  W82  1  0.38639615  0.13527216  0.37140636  1
  O2-  O83  1  0.11012588  0.01940685  0.07144212  1
  O2-  O84  1  0.14660474  -0.01129363  0.36133731  1
  O2-  O85  1  0.16829178  0.01350544  0.61211976  1
  O2-  O86  1  0.07333256  0.04945899  0.87069950  1
  O2-  O87  1  0.11818760  0.49729801  0.12306332  1
  O2-  O88  1  0.10099344  0.50297880  0.34755187  1
  O2-  O89  1  0.09247858  0.48880373  0.59696312  1
  O2-  O90  1  0.15514492  0.46952787  0.87651333  1
  O2-  O91  1  0.36593701  0.00581589  0.15349765  1
  O2-  O92  1  0.36810615  0.00281200  0.38648484  1
  O2-  O93  1  0.37413018  -0.00316077  0.59910497  1
  O2-  O94  1  0.33321894  0.00879879  0.85825158  1
  O2-  O95  1  0.39218739  0.51002603  0.11974205  1
  O2-  O96  1  0.37519311  0.50288020  0.38766567  1
  O2-  O97  1  0.42022336  0.52524064  0.61887744  1
  O2-  O98  1  0.34845959  0.49969438  0.85643685  1
  O2-  O99  1  0.64851188  0.00008618  0.12977062  1
  O2-  O100  1  0.60648292  -0.01759156  0.38370890  1
  O2-  O101  1  0.59434349  0.00500586  0.61831622  1
  O2-  O102  1  0.64549088  -0.01066570  0.86484899  1
  O2-  O103  1  0.59576084  0.49792814  0.11491461  1
  O2-  O104  1  0.57294948  0.50915230  0.36066193  1
  O2-  O105  1  0.60205577  0.49499716  0.65218760  1
  O2-  O106  1  0.64898271  0.50460433  0.86648643  1
  O2-  O107  1  0.85995648  0.00162053  0.12096310  1
  O2-  O108  1  0.95936777  0.01132978  0.36026533  1
  O2-  O109  1  0.83594693  0.00873003  0.65103658  1
  O2-  O110  1  0.86437452  0.00878571  0.89532791  1
  O2-  O111  1  0.88228446  0.49880473  0.13696436  1
  O2-  O112  1  0.88645582  0.50044988  0.37931593  1
  O2-  O113  1  0.90139064  0.49929768  0.64497748  1
  O2-  O114  1  0.91073226  0.49272606  0.89063177  1
  O2-  O115  1  0.17230752  0.24646760  0.12965585  1
  O2-  O116  1  0.12565997  0.24297532  0.35529662  1
  O2-  O117  1  0.15078553  0.25344610  0.58775480  1
  O2-  O118  1  0.20429130  0.26357850  0.85420152  1
  O2-  O119  1  0.12402644  0.74858074  0.11118006  1
  O2-  O120  1  0.10737302  0.76655544  0.34055884  1
  O2-  O121  1  0.17739472  0.70587280  0.61499853  1
  O2-  O122  1  0.23690544  0.64209731  0.85486610  1
  O2-  O123  1  0.41130399  0.26183929  0.11175818  1
  O2-  O124  1  0.42635395  0.26979165  0.37492791  1
  O2-  O125  1  0.49848454  0.16395009  0.63563449  1
  O2-  O126  1  0.39588874  0.21957092  0.90443193  1
  O2-  O127  1  0.32143594  0.73868729  0.12947446  1
  O2-  O128  1  0.29570605  0.74551719  0.37190841  1
  O2-  O129  1  0.35013870  0.74150171  0.61077089  1
  O2-  O130  1  0.33946739  0.76343446  0.87460009  1
  O2-  O131  1  0.61180391  0.25151346  0.12715769  1
  O2-  O132  1  0.60304973  0.29726589  0.35664421  1
  O2-  O133  1  0.65146754  0.25438495  0.58882280  1
  O2-  O134  1  0.59609244  0.24932022  0.87315425  1
  O2-  O135  1  0.67336117  0.76105721  0.12831313  1
  O2-  O136  1  0.65978838  0.74072938  0.39127364  1
  O2-  O137  1  0.58797236  0.73599734  0.61602922  1
  O2-  O138  1  0.66566916  0.74217244  0.86788940  1
  O2-  O139  1  0.81189224  0.27333570  0.12039584  1
  O2-  O140  1  0.87331309  0.23752643  0.37906008  1
  O2-  O141  1  0.85195210  0.24029306  0.63425183  1
  O2-  O142  1  0.85913956  0.26139581  0.89567709  1
  O2-  O143  1  0.88057948  0.74735933  0.10507558  1
  O2-  O144  1  0.85422745  0.74959054  0.40739595  1
  O2-  O145  1  0.86957591  0.75467145  0.62638170  1
  O2-  O146  1  0.87395966  0.74543561  0.91448101  1
  O2-  O147  1  0.13030334  0.17454299  -0.01952642  1
  O2-  O148  1  0.08238719  0.11330765  0.24056971  1
  O2-  O149  1  0.11767676  0.11958336  0.47227850  1
  O2-  O150  1  0.14180905  0.15527478  0.72999660  1
  O2-  O151  1  0.16327380  0.62352068  0.00580555  1
  O2-  O152  1  0.17471836  0.63353634  0.23997899  1
  O2-  O153  1  0.06871187  0.65147273  0.45456181  1
  O2-  O154  1  0.10421046  0.60040238  0.75940085  1
  O2-  O155  1  0.30769692  0.12391615  0.02199795  1
  O2-  O156  1  0.43978979  0.14363402  0.24221066  1
  O2-  O157  1  0.34513368  0.16364269  0.50648593  1
  O2-  O158  1  0.33521906  0.16539568  0.70538845  1
  O2-  O159  1  0.35278005  0.63687170  -0.00183169  1
  O2-  O160  1  0.38278677  0.63002559  0.25778371  1
  O2-  O161  1  0.42668692  0.64152263  0.48660326  1
  O2-  O162  1  0.37878474  0.64831491  0.74573112  1
  O2-  O163  1  0.63568707  0.12960193  -0.00025230  1
  O2-  O164  1  0.65859980  0.13401640  0.27047605  1
  O2-  O165  1  0.56473685  0.13829232  0.47041564  1
  O2-  O166  1  0.64880048  0.13997735  0.73174237  1
  O2-  O167  1  0.63573179  0.63552363  0.00019466  1
  O2-  O168  1  0.67238488  0.62042097  0.25331724  1
  O2-  O169  1  0.63305153  0.61692354  0.51026577  1
  O2-  O170  1  0.57379420  0.63690137  0.75348348  1
  O2-  O171  1  0.92478212  0.14340899  0.01366436  1
  O2-  O172  1  0.84948454  0.13231872  0.25384453  1
  O2-  O173  1  0.88193925  0.12229271  0.50343285  1
  O2-  O174  1  0.89427985  0.13920334  0.76446094  1
  O2-  O175  1  0.83084977  0.61033237  0.01024246  1
  O2-  O176  1  0.84764746  0.63976359  0.25380407  1
  O2-  O177  1  0.85279402  0.62396354  0.51674509  1
  O2-  O178  1  0.87198857  0.62950911  0.77414695  1
  O2-  O179  1  0.12565178  0.35589175  -0.00244361  1
  O2-  O180  1  0.07560268  0.36610867  0.23658134  1
  O2-  O181  1  0.07320905  0.36953266  0.46881825  1
  O2-  O182  1  0.10232762  0.35757825  0.72866289  1
  O2-  O183  1  0.12835902  0.84829694  -0.03496184  1
  O2-  O184  1  0.12001022  0.89506400  0.21441678  1
  O2-  O185  1  0.07600050  0.84228175  0.55043125  1
  O2-  O186  1  0.12377746  0.81903695  0.75286992  1
  O2-  O187  1  0.36026856  0.38250488  -0.01011386  1
  O2-  O188  1  0.40012416  0.37959307  0.25101214  1
  O2-  O189  1  0.38031988  0.36797861  0.51115751  1
  O2-  O190  1  0.35766585  0.34941545  0.71930394  1
  O2-  O191  1  0.40221632  0.87967847  -0.00755212  1
  O2-  O192  1  0.32898419  0.86791879  0.26225425  1
  O2-  O193  1  0.42219463  0.84221164  0.46463413  1
  O2-  O194  1  0.38132766  0.86308819  0.74256953  1
  O2-  O195  1  0.54040511  0.38583795  -0.00652652  1
  O2-  O196  1  0.67625083  0.38430578  0.22853005  1
  O2-  O197  1  0.62329268  0.39764434  0.49823051  1
  O2-  O198  1  0.66729052  0.35709866  0.75595197  1
  O2-  O199  1  0.61890712  0.86736369  0.00090417  1
  O2-  O200  1  0.66712405  0.87773064  0.25204076  1
  O2-  O201  1  0.62371754  0.85893561  0.49864099  1
  O2-  O202  1  0.59101539  0.85879657  0.74843525  1
  O2-  O203  1  0.94148599  0.36157870  0.01785539  1
  O2-  O204  1  0.89261363  0.35597721  0.25264845  1
  O2-  O205  1  0.89975561  0.35701185  0.50454111  1
  O2-  O206  1  0.88395990  0.35777833  0.76174289  1
  O2-  O207  1  0.80897458  0.87458908  0.01051572  1
  O2-  O208  1  0.85934432  0.87101845  0.24667372  1
  O2-  O209  1  0.87460358  0.88695493  0.52111267  1
  O2-  O210  1  0.83715981  0.86677922  0.77230354  1
  O2-  O211  1  -0.02013235  -0.12786388  -0.10521154  1
  O2-  O212  1  -0.00713026  -0.12222669  0.08916023  1
  O2-  O213  1  0.00840466  0.11570966  0.62032765  1
  O2-  O214  1  0.03558351  -0.04590075  0.71622945  1
  O2-  O215  1  -0.00196333  0.62467879  0.06253137  1
  O2-  O216  1  0.00969213  0.62819600  0.22346343  1
  O2-  O217  1  0.00135056  0.64901674  0.62304737  1
  O2-  O218  1  0.01554644  0.64053495  0.89578787  1
  O2-  O219  1  0.24262150  -0.11993374  0.08787591  1
  O2-  O220  1  0.26187126  0.13151508  0.31733098  1
  O2-  O221  1  0.26658740  -0.12391843  0.49099107  1
  O2-  O222  1  0.24592964  -0.12658430  0.65580401  1
  O2-  O223  1  0.25479300  0.38942758  0.13689736  1
  O2-  O224  1  0.24454436  0.37669662  0.36495056  1
  O2-  O225  1  0.26636401  0.61869871  0.48498780  1
  O2-  O226  1  0.24844813  0.55949026  0.65099216  1
  O2-  O227  1  0.46960539  0.09834245  0.03708033  1
  O2-  O228  1  0.50657699  -0.13401984  0.15652558  1
  O2-  O229  1  0.48211303  -0.14375564  0.61213031  1
  O2-  O230  1  0.50504928  0.10633523  0.85089194  1
  O2-  O231  1  0.48952179  0.57024436  -0.09802588  1
  O2-  O232  1  0.50313778  0.66933950  0.11171733  1
  O2-  O233  1  0.51569856  0.34451332  0.63785827  1
  O2-  O234  1  0.50267762  0.38592823  0.82793935  1
  O2-  O235  1  0.75346962  0.14186070  -0.12863187  1
  O2-  O236  1  0.78089599  0.03111893  0.37641269  1
  O2-  O237  1  0.71434103  0.11053839  0.51534052  1
  O2-  O238  1  0.72747559  -0.14577571  0.63083569  1
  O2-  O239  1  0.69821329  0.36729442  -0.00990866  1
  O2-  O240  1  0.76873559  0.36471683  0.38756566  1
  O2-  O241  1  0.77013884  0.38683183  0.60987748  1
  O2-  O242  1  0.74594005  0.62726687  0.65485563  1
