# generated using pymatgen
data_Gd19Ta56(WO20)8
_symmetry_space_group_name_H-M   'P 1'
_cell_length_a   15.53308180
_cell_length_b   15.47195848
_cell_length_c   15.24706790
_cell_angle_alpha   90.20709458
_cell_angle_beta   90.29099425
_cell_angle_gamma   90.06146167
_symmetry_Int_Tables_number   1
_chemical_formula_structural   Gd19Ta56(WO20)8
_chemical_formula_sum   'Gd19 Ta56 W8 O160'
_cell_volume   3664.21171074
_cell_formula_units_Z   1
loop_
 _symmetry_equiv_pos_site_id
 _symmetry_equiv_pos_as_xyz
  1  'x, y, z'
loop_
 _atom_type_symbol
 _atom_type_oxidation_number
  Gd3+  3.0
  Ta5+  5.0
  W6+  6.0
  O2-  -2.0
loop_
 _atom_site_type_symbol
 _atom_site_label
 _atom_site_symmetry_multiplicity
 _atom_site_fract_x
 _atom_site_fract_y
 _atom_site_fract_z
 _atom_site_occupancy
  Gd3+  Gd0  1  0.26069883  0.75159705  0.73502800  1
  Gd3+  Gd1  1  0.76132158  0.26829161  0.49557047  1
  Gd3+  Gd2  1  -0.00630725  0.25570258  0.48736867  1
  Gd3+  Gd3  1  0.23538940  0.73484067  0.49572663  1
  Gd3+  Gd4  1  0.50834616  0.22161219  0.00487812  1
  Gd3+  Gd5  1  0.72445238  0.27231841  0.25871247  1
  Gd3+  Gd6  1  0.23551124  0.25582199  0.50461984  1
  Gd3+  Gd7  1  0.51113646  0.73738574  0.75015497  1
  Gd3+  Gd8  1  0.49304839  0.23907027  0.76706873  1
  Gd3+  Gd9  1  0.51599729  0.76350174  -0.00529105  1
  Gd3+  Gd10  1  -0.00197544  0.72218070  0.73745188  1
  Gd3+  Gd11  1  0.52761248  0.73852114  0.50877897  1
  Gd3+  Gd12  1  0.25308511  0.76907476  0.02737258  1
  Gd3+  Gd13  1  -0.01685943  0.74139657  -0.02861214  1
  Gd3+  Gd14  1  0.77336010  0.76667260  0.77361766  1
  Gd3+  Gd15  1  0.75540723  0.26024495  0.74189832  1
  Gd3+  Gd16  1  0.04245969  0.21862499  0.00985077  1
  Gd3+  Gd17  1  0.23606040  0.76309273  0.26149184  1
  Gd3+  Gd18  1  0.74566885  0.26681606  0.02474526  1
  Ta5+  Ta19  1  0.39007020  0.37709219  0.90802695  1
  Ta5+  Ta20  1  0.14012049  0.60951434  0.87966184  1
  Ta5+  Ta21  1  0.88796514  0.39811824  0.35066868  1
  Ta5+  Ta22  1  0.14175193  0.88463836  0.87372925  1
  Ta5+  Ta23  1  0.65111441  0.08941068  0.88928133  1
  Ta5+  Ta24  1  0.67708270  0.63617222  0.37725517  1
  Ta5+  Ta25  1  0.86655121  0.15215631  0.88067126  1
  Ta5+  Ta26  1  0.35198512  0.62308798  0.89121408  1
  Ta5+  Ta27  1  0.35826725  0.12633125  0.13583013  1
  Ta5+  Ta28  1  0.82810435  0.62853007  0.62694969  1
  Ta5+  Ta29  1  0.10958472  0.36292131  0.87193703  1
  Ta5+  Ta30  1  0.62838451  0.63316881  0.12805408  1
  Ta5+  Ta31  1  0.07009833  0.87086238  0.38648387  1
  Ta5+  Ta32  1  0.87223491  0.13488987  0.13184993  1
  Ta5+  Ta33  1  0.69036964  0.42618469  0.87458326  1
  Ta5+  Ta34  1  0.89821480  0.88629494  0.11815145  1
  Ta5+  Ta35  1  0.12033107  0.38727061  0.36987670  1
  Ta5+  Ta36  1  0.18020247  0.12808813  0.86885471  1
  Ta5+  Ta37  1  0.84278979  0.56114687  0.87451358  1
  Ta5+  Ta38  1  0.38377206  0.58012258  0.37291263  1
  Ta5+  Ta39  1  0.12376020  0.36336756  0.12938911  1
  Ta5+  Ta40  1  0.65294122  0.85649372  0.37318232  1
  Ta5+  Ta41  1  0.63205391  0.88779965  0.63137881  1
  Ta5+  Ta42  1  0.11910997  0.88922978  0.13627169  1
  Ta5+  Ta43  1  0.34503498  0.12277822  0.89027949  1
  Ta5+  Ta44  1  0.11486693  0.11546373  0.37339419  1
  Ta5+  Ta45  1  0.65653205  0.86625889  0.13332941  1
  Ta5+  Ta46  1  0.65802993  0.62544292  0.63288265  1
  Ta5+  Ta47  1  0.36381019  0.13492114  0.38326427  1
  Ta5+  Ta48  1  0.37596757  0.88063702  0.15583211  1
  Ta5+  Ta49  1  0.86980562  0.12211725  0.35277034  1
  Ta5+  Ta50  1  0.90345311  0.91029725  0.85911909  1
  Ta5+  Ta51  1  0.59363396  0.41456490  0.37675494  1
  Ta5+  Ta52  1  0.18982992  0.12244945  0.13027697  1
  Ta5+  Ta53  1  0.13441124  0.58903197  0.62825823  1
  Ta5+  Ta54  1  0.38457466  0.88722596  0.62425162  1
  Ta5+  Ta55  1  0.36463480  0.60758272  0.14031779  1
  Ta5+  Ta56  1  0.36930162  0.37608294  0.37491183  1
  Ta5+  Ta57  1  0.90444206  0.12555999  0.64144272  1
  Ta5+  Ta58  1  0.12726934  0.87367257  0.62490018  1
  Ta5+  Ta59  1  0.33855131  0.36106692  0.12330322  1
  Ta5+  Ta60  1  0.86512038  0.38825952  0.88440904  1
  Ta5+  Ta61  1  0.37859451  0.37074836  0.63889357  1
  Ta5+  Ta62  1  0.87562771  0.39129866  0.62448758  1
  Ta5+  Ta63  1  0.89343335  0.39130654  0.14159556  1
  Ta5+  Ta64  1  0.61952476  0.38369602  0.62626465  1
  Ta5+  Ta65  1  0.90599407  0.87741782  0.36412470  1
  Ta5+  Ta66  1  0.11980535  0.61294662  0.13194083  1
  Ta5+  Ta67  1  0.41133871  0.94089373  0.37883593  1
  Ta5+  Ta68  1  0.39601548  0.61483699  0.62648207  1
  Ta5+  Ta69  1  0.86448186  0.63475230  0.11898281  1
  Ta5+  Ta70  1  0.64317670  0.12654084  0.60176452  1
  Ta5+  Ta71  1  0.10607876  0.11936987  0.62647572  1
  Ta5+  Ta72  1  0.64958779  0.59349178  0.88000318  1
  Ta5+  Ta73  1  0.59813820  0.05334440  0.37212660  1
  Ta5+  Ta74  1  0.08353251  0.62796097  0.37302296  1
  W6+  W75  1  0.83680272  0.64452652  0.37343172  1
  W6+  W76  1  0.38306410  0.87808058  0.88872776  1
  W6+  W77  1  0.32299933  0.13343379  0.64585596  1
  W6+  W78  1  0.88826599  0.88294161  0.60885931  1
  W6+  W79  1  0.62487910  0.11646416  0.14738373  1
  W6+  W80  1  0.59746169  0.39330484  0.11516068  1
  W6+  W81  1  0.12554967  0.39114160  0.61914432  1
  W6+  W82  1  0.62374440  0.90198055  0.88685605  1
  O2-  O83  1  0.13349037  0.00754228  0.12375180  1
  O2-  O84  1  0.09144643  -0.00433361  0.38591292  1
  O2-  O85  1  0.12954020  -0.00579587  0.61130721  1
  O2-  O86  1  0.16273982  0.00265937  0.87405128  1
  O2-  O87  1  0.11189895  0.49257401  0.12147689  1
  O2-  O88  1  0.11279981  0.51176855  0.35972253  1
  O2-  O89  1  0.21047428  0.49919864  0.64665555  1
  O2-  O90  1  0.13648413  0.49046448  0.89537411  1
  O2-  O91  1  0.38512534  -0.00010749  0.15442740  1
  O2-  O92  1  0.31399451  0.01626082  0.37767869  1
  O2-  O93  1  0.35337370  0.00053757  0.63396889  1
  O2-  O94  1  0.34509194  0.00394192  0.87751916  1
  O2-  O95  1  0.36312432  0.48854023  0.11672887  1
  O2-  O96  1  0.30439469  0.48905848  0.37935874  1
  O2-  O97  1  0.38423360  0.49382405  0.63975571  1
  O2-  O98  1  0.38000639  0.50672720  0.89474440  1
  O2-  O99  1  0.61949501  -0.02251705  0.14658079  1
  O2-  O100  1  0.69476065  -0.01873970  0.37823723  1
  O2-  O101  1  0.66642193  0.00394181  0.61297681  1
  O2-  O102  1  0.58343480  0.01661989  0.82121803  1
  O2-  O103  1  0.57396114  0.52648826  0.12147548  1
  O2-  O104  1  0.66407575  0.51012167  0.37813056  1
  O2-  O105  1  0.64174956  0.50241902  0.64350339  1
  O2-  O106  1  0.57533227  0.50264568  0.85384968  1
  O2-  O107  1  0.89098282  0.01369936  0.12377739  1
  O2-  O108  1  0.88232208  0.00376435  0.35569223  1
  O2-  O109  1  0.86874529  0.01526277  0.61342920  1
  O2-  O110  1  0.89116826  0.03014006  0.87527359  1
  O2-  O111  1  0.90411662  0.51464882  0.12400861  1
  O2-  O112  1  0.86323148  0.51304385  0.36880847  1
  O2-  O113  1  0.87223822  0.50970356  0.63061451  1
  O2-  O114  1  0.94342554  0.49260166  0.87558490  1
  O2-  O115  1  0.14011386  0.23677376  0.13823837  1
  O2-  O116  1  0.12305548  0.25437488  0.39165180  1
  O2-  O117  1  0.10338187  0.24844422  0.59408692  1
  O2-  O118  1  0.10294054  0.23461684  0.86638384  1
  O2-  O119  1  0.14902144  0.74782418  0.13414644  1
  O2-  O120  1  0.13078846  0.74571824  0.36900676  1
  O2-  O121  1  0.13118234  0.72896066  0.65121007  1
  O2-  O122  1  0.09606316  0.73764262  0.86394436  1
  O2-  O123  1  0.39514288  0.25471001  0.11096256  1
  O2-  O124  1  0.32428269  0.25922333  0.38221910  1
  O2-  O125  1  0.29875134  0.27530882  0.64321039  1
  O2-  O126  1  0.40218602  0.24591828  0.90196107  1
  O2-  O127  1  0.34664562  0.74043886  0.15890725  1
  O2-  O128  1  0.30286737  0.67549137  0.36882758  1
  O2-  O129  1  0.41238761  0.75138367  0.60691700  1
  O2-  O130  1  0.40971852  0.73591696  0.88679790  1
  O2-  O131  1  0.64097540  0.26013999  0.13355882  1
  O2-  O132  1  0.67463884  0.31802320  0.38992770  1
  O2-  O133  1  0.64204471  0.25685207  0.58763814  1
  O2-  O134  1  0.57813486  0.19824263  0.87352442  1
  O2-  O135  1  0.57798034  0.75062872  0.13690057  1
  O2-  O136  1  0.59260144  0.74420291  0.37334943  1
  O2-  O137  1  0.61468818  0.75731659  0.63528663  1
  O2-  O138  1  0.58586615  0.77685276  0.86414073  1
  O2-  O139  1  0.83971710  0.26283799  0.14723469  1
  O2-  O140  1  0.85391661  0.26857504  0.35598475  1
  O2-  O141  1  0.89529755  0.25428053  0.60060469  1
  O2-  O142  1  0.80173217  0.26560105  0.88816404  1
  O2-  O143  1  0.92261750  0.74783859  0.10708343  1
  O2-  O144  1  0.84697151  0.77420034  0.38219380  1
  O2-  O145  1  0.86974648  0.75199921  0.64957097  1
  O2-  O146  1  0.90589908  0.77660378  0.84953620  1
  O2-  O147  1  0.16865732  0.13556410  -0.00146692  1
  O2-  O148  1  0.17425057  0.11569749  0.26882175  1
  O2-  O149  1  0.16253673  0.12161676  0.49304932  1
  O2-  O150  1  0.18662216  0.13256271  0.72391366  1
  O2-  O151  1  0.08485212  0.63339599  0.00822721  1
  O2-  O152  1  0.06299867  0.63276849  0.23987335  1
  O2-  O153  1  0.13126734  0.62899972  0.49887406  1
  O2-  O154  1  0.09066299  0.60189040  0.75650975  1
  O2-  O155  1  0.39789770  0.11563443  0.01142050  1
  O2-  O156  1  0.38278514  0.14565381  0.26066247  1
  O2-  O157  1  0.34381293  0.14753287  0.51148162  1
  O2-  O158  1  0.37809856  0.14782101  0.76706198  1
  O2-  O159  1  0.40469375  0.64027377  0.02521311  1
  O2-  O160  1  0.42368653  0.60259164  0.25272822  1
  O2-  O161  1  0.41784615  0.61197366  0.48994553  1
  O2-  O162  1  0.39387688  0.63994596  0.75462382  1
  O2-  O163  1  0.63790077  0.13231225  0.01149100  1
  O2-  O164  1  0.62374084  0.13752668  0.29127747  1
  O2-  O165  1  0.61731400  0.11751073  0.47841033  1
  O2-  O166  1  0.55129093  0.13878842  0.67631951  1
  O2-  O167  1  0.60239019  0.64256928  -0.00952451  1
  O2-  O168  1  0.65382011  0.63166347  0.24963516  1
  O2-  O169  1  0.63829052  0.63950429  0.50272797  1
  O2-  O170  1  0.65271610  0.65594080  0.76498315  1
  O2-  O171  1  0.89473671  0.16318408  0.00578602  1
  O2-  O172  1  0.80171499  0.13064728  0.24823105  1
  O2-  O173  1  0.80746964  0.13598584  0.45482233  1
  O2-  O174  1  0.88643236  0.18038804  0.75745499  1
  O2-  O175  1  0.88795756  0.63167974  -0.01835859  1
  O2-  O176  1  0.85394794  0.64678005  0.23875309  1
  O2-  O177  1  0.83054154  0.63884996  0.50656697  1
  O2-  O178  1  0.86871296  0.62940242  0.76312942  1
  O2-  O179  1  0.13230201  0.34316186  0.00105010  1
  O2-  O180  1  0.16132879  0.37336342  0.25285584  1
  O2-  O181  1  0.17641250  0.39184075  0.48171964  1
  O2-  O182  1  0.11314714  0.37343458  0.75236852  1
  O2-  O183  1  0.12281565  0.86006018  0.00125801  1
  O2-  O184  1  0.11443550  0.87038346  0.26225218  1
  O2-  O185  1  0.12974632  0.83971634  0.50292200  1
  O2-  O186  1  0.01212660  0.85180455  0.65794400  1
  O2-  O187  1  0.30570225  0.36895794  -0.00423996  1
  O2-  O188  1  0.35991903  0.36979269  0.25088839  1
  O2-  O189  1  0.37095107  0.36888732  0.51136505  1
  O2-  O190  1  0.39069032  0.36383339  0.77755823  1
  O2-  O191  1  0.37766063  0.85293151  0.03076995  1
  O2-  O192  1  0.36879488  0.86312508  0.29073277  1
  O2-  O193  1  0.41014875  0.88571082  0.48838754  1
  O2-  O194  1  0.37939083  0.84821442  0.74639772  1
  O2-  O195  1  0.66231207  0.38003970  -0.00675762  1
  O2-  O196  1  0.58999910  0.38581612  0.25523165  1
  O2-  O197  1  0.58364656  0.40465365  0.50708749  1
  O2-  O198  1  0.63819006  0.35546442  0.76022275  1
  O2-  O199  1  0.64495420  0.83953701  0.01132609  1
  O2-  O200  1  0.68495470  0.83774975  0.25556715  1
  O2-  O201  1  0.62459972  0.86101827  0.50299928  1
  O2-  O202  1  0.67496339  0.87630329  0.74940218  1
  O2-  O203  1  0.85340625  0.37673872  0.01912949  1
  O2-  O204  1  0.80512295  0.39645328  0.24110733  1
  O2-  O205  1  0.86299890  0.37617618  0.48999828  1
  O2-  O206  1  0.86877645  0.36598404  0.74924138  1
  O2-  O207  1  0.91779669  0.88221665  -0.01097076  1
  O2-  O208  1  0.92633393  0.87006024  0.23713310  1
  O2-  O209  1  0.96534610  0.88222400  0.48079445  1
  O2-  O210  1  0.84793332  0.89611517  0.74717949  1
  O2-  O211  1  0.02341630  -0.09488261  -0.15792644  1
  O2-  O212  1  -0.00759086  0.15125426  0.36352387  1
  O2-  O213  1  -0.00798721  0.12253659  0.54589632  1
  O2-  O214  1  0.01432554  0.09900977  0.70461175  1
  O2-  O215  1  0.00078677  0.33541637  0.10321923  1
  O2-  O216  1  -0.03207078  0.39438734  0.25388805  1
  O2-  O217  1  0.00455025  0.38354857  0.41080983  1
  O2-  O218  1  0.05097650  0.50773575  0.59902955  1
  O2-  O219  1  0.25363204  -0.18025285  -0.11494333  1
  O2-  O220  1  0.24973218  -0.11871549  0.14910331  1
  O2-  O221  1  0.26312009  -0.15791321  0.60400296  1
  O2-  O222  1  0.17121045  -0.12944960  0.74669538  1
  O2-  O223  1  0.24684659  0.63374292  -0.03258306  1
  O2-  O224  1  0.24152765  0.60952550  0.16922756  1
  O2-  O225  1  0.27270269  0.65027471  0.61223979  1
  O2-  O226  1  0.24717954  0.62477488  0.81154801  1
  O2-  O227  1  0.50265098  -0.09344870  -0.06517502  1
  O2-  O228  1  0.53958214  -0.06959475  0.34983548  1
  O2-  O229  1  0.46985009  0.06292073  0.40252241  1
  O2-  O230  1  0.51136385  -0.09877795  0.64339846  1
  O2-  O231  1  0.48860373  0.37040198  -0.02193443  1
  O2-  O232  1  0.47021310  0.46254298  0.37625723  1
  O2-  O233  1  0.49761699  0.34164230  0.64854851  1
  O2-  O234  1  0.51853298  0.62391974  0.63662863  1
  O2-  O235  1  0.71183193  -0.00951345  -0.06551988  1
  O2-  O236  1  0.77894346  -0.12860053  0.11802439  1
  O2-  O237  1  0.76276311  0.15438072  0.63464053  1
  O2-  O238  1  0.74376887  0.12860221  0.81969100  1
  O2-  O239  1  0.73836903  0.53490628  -0.04375755  1
  O2-  O240  1  0.74583549  0.64912497  0.09523911  1
  O2-  O241  1  0.75021343  0.36805872  0.61993431  1
  O2-  O242  1  0.74339627  0.51681911  0.79771419  1
