# generated using pymatgen
data_Gd19Ta56(WO20)8
_symmetry_space_group_name_H-M   'P 1'
_cell_length_a   15.56349283
_cell_length_b   15.46719363
_cell_length_c   15.36917577
_cell_angle_alpha   90.08861293
_cell_angle_beta   90.01606625
_cell_angle_gamma   89.89931791
_symmetry_Int_Tables_number   1
_chemical_formula_structural   Gd19Ta56(WO20)8
_chemical_formula_sum   'Gd19 Ta56 W8 O160'
_cell_volume   3699.71238320
_cell_formula_units_Z   1
loop_
 _symmetry_equiv_pos_site_id
 _symmetry_equiv_pos_as_xyz
  1  'x, y, z'
loop_
 _atom_type_symbol
 _atom_type_oxidation_number
  Gd3+  3.0
  Ta5+  5.0
  W6+  6.0
  O2-  -2.0
loop_
 _atom_site_type_symbol
 _atom_site_label
 _atom_site_symmetry_multiplicity
 _atom_site_fract_x
 _atom_site_fract_y
 _atom_site_fract_z
 _atom_site_occupancy
  Gd3+  Gd0  1  0.00776431  0.25939353  -0.00357286  1
  Gd3+  Gd1  1  0.48335143  0.25286020  0.23491357  1
  Gd3+  Gd2  1  0.46252384  0.76330556  0.53082452  1
  Gd3+  Gd3  1  -0.00610381  0.25992582  0.49717869  1
  Gd3+  Gd4  1  0.25569061  0.75251828  0.75739766  1
  Gd3+  Gd5  1  0.78869452  0.24674707  -0.00769151  1
  Gd3+  Gd6  1  0.02830434  0.74040776  0.74993527  1
  Gd3+  Gd7  1  0.71317448  0.75161119  0.00641577  1
  Gd3+  Gd8  1  0.25083724  0.23382237  0.47247434  1
  Gd3+  Gd9  1  0.25961924  0.25521687  0.74973843  1
  Gd3+  Gd10  1  -0.01919198  0.25987020  0.24354893  1
  Gd3+  Gd11  1  0.02138091  0.74006863  0.00064518  1
  Gd3+  Gd12  1  0.75145521  0.26028759  0.49540578  1
  Gd3+  Gd13  1  0.75913990  0.23520472  0.73950411  1
  Gd3+  Gd14  1  0.69975271  0.75914444  0.22946783  1
  Gd3+  Gd15  1  0.74485864  0.73964602  0.74349568  1
  Gd3+  Gd16  1  0.01955913  0.73218193  0.26271827  1
  Gd3+  Gd17  1  0.19926978  0.25207635  0.21514489  1
  Gd3+  Gd18  1  0.47859755  0.24821613  0.73260324  1
  Ta5+  Ta19  1  0.35690316  0.86969021  0.37214282  1
  Ta5+  Ta20  1  0.62716223  0.92002791  0.11514195  1
  Ta5+  Ta21  1  0.30570966  0.89358155  0.62107196  1
  Ta5+  Ta22  1  0.14132195  0.10118584  0.62424412  1
  Ta5+  Ta23  1  0.87843710  0.10999711  0.36856208  1
  Ta5+  Ta24  1  0.88101071  0.38660214  0.38319962  1
  Ta5+  Ta25  1  0.35654917  0.39241193  0.36879720  1
  Ta5+  Ta26  1  0.35059037  0.64482884  0.12709922  1
  Ta5+  Ta27  1  0.61839452  0.12487709  0.60695550  1
  Ta5+  Ta28  1  0.89804543  0.09977939  0.61259563  1
  Ta5+  Ta29  1  0.42510901  0.12493175  0.91611133  1
  Ta5+  Ta30  1  0.87117103  0.86368258  0.12932003  1
  Ta5+  Ta31  1  0.33830573  0.64186322  0.37923709  1
  Ta5+  Ta32  1  0.15263088  0.61712855  0.62047819  1
  Ta5+  Ta33  1  0.88226617  0.60702166  0.13206087  1
  Ta5+  Ta34  1  0.37806307  0.08283366  0.61402393  1
  Ta5+  Ta35  1  0.62381628  0.38566746  0.62210208  1
  Ta5+  Ta36  1  0.88741268  0.84946723  0.87615006  1
  Ta5+  Ta37  1  0.63161095  0.57029416  0.11760079  1
  Ta5+  Ta38  1  0.60217654  0.11372438  0.09669926  1
  Ta5+  Ta39  1  0.88604499  0.62525729  0.87407040  1
  Ta5+  Ta40  1  0.09672009  0.43900220  0.12075406  1
  Ta5+  Ta41  1  0.59702924  0.37837319  0.09578583  1
  Ta5+  Ta42  1  0.15272026  0.85760753  0.13588422  1
  Ta5+  Ta43  1  0.63341357  0.62298961  0.61392592  1
  Ta5+  Ta44  1  0.17048068  0.63385304  0.38294643  1
  Ta5+  Ta45  1  0.40326812  0.37298506  0.91852378  1
  Ta5+  Ta46  1  0.63289144  0.12609725  0.34969194  1
  Ta5+  Ta47  1  0.11868637  0.11608020  0.86996912  1
  Ta5+  Ta48  1  0.32154565  0.62522931  0.61698410  1
  Ta5+  Ta49  1  0.12174605  0.10739115  0.36710981  1
  Ta5+  Ta50  1  0.32871734  0.39420404  0.15376308  1
  Ta5+  Ta51  1  0.13473822  0.87506371  0.62459254  1
  Ta5+  Ta52  1  0.62090007  0.88002624  0.86021092  1
  Ta5+  Ta53  1  0.88296608  0.64798854  0.61077405  1
  Ta5+  Ta54  1  0.87779961  0.09528913  0.85891800  1
  Ta5+  Ta55  1  0.85856373  0.62979075  0.36896715  1
  Ta5+  Ta56  1  0.89477247  0.85697203  0.62047145  1
  Ta5+  Ta57  1  0.32191034  0.85565764  0.12308090  1
  Ta5+  Ta58  1  0.15394395  0.37761866  0.88500200  1
  Ta5+  Ta59  1  0.91794148  0.41333750  0.65495461  1
  Ta5+  Ta60  1  0.85189228  0.87475881  0.37548480  1
  Ta5+  Ta61  1  0.18653726  0.66807529  0.13342895  1
  Ta5+  Ta62  1  0.11933845  0.86466610  0.39127446  1
  Ta5+  Ta63  1  0.61066785  0.62860876  0.36777355  1
  Ta5+  Ta64  1  0.33640372  0.10738071  0.14207143  1
  Ta5+  Ta65  1  0.13984998  0.38919459  0.36808652  1
  Ta5+  Ta66  1  0.61579648  0.36978328  0.88331823  1
  Ta5+  Ta67  1  0.62972831  0.12033394  0.87790050  1
  Ta5+  Ta68  1  0.61623324  0.61752672  0.86943098  1
  Ta5+  Ta69  1  0.08529233  0.09458742  0.11974882  1
  Ta5+  Ta70  1  0.12559493  0.36733682  0.62774643  1
  Ta5+  Ta71  1  0.13697624  0.88507274  0.88361407  1
  Ta5+  Ta72  1  0.38536202  0.38846929  0.60022655  1
  Ta5+  Ta73  1  0.61114907  0.88893386  0.37675110  1
  Ta5+  Ta74  1  0.14971301  0.62333670  0.88252421  1
  W6+  W75  1  0.62565089  0.87743392  0.62318339  1
  W6+  W76  1  0.87394348  0.38815877  0.85214034  1
  W6+  W77  1  0.37943601  0.11526328  0.36543193  1
  W6+  W78  1  0.36898259  0.62192960  0.87741596  1
  W6+  W79  1  0.88261433  0.39356212  0.12035545  1
  W6+  W80  1  0.61628104  0.37618087  0.35958336  1
  W6+  W81  1  0.35762053  0.88731016  0.87678260  1
  W6+  W82  1  0.91856058  0.10741359  0.11444783  1
  O2-  O83  1  0.12363727  -0.01885355  0.13191261  1
  O2-  O84  1  0.09851672  -0.00896759  0.36894627  1
  O2-  O85  1  0.08465263  -0.00146271  0.63996208  1
  O2-  O86  1  0.17131930  0.00497954  0.88555799  1
  O2-  O87  1  0.15218721  0.53995561  0.13504325  1
  O2-  O88  1  0.14298054  0.50901911  0.36193940  1
  O2-  O89  1  0.14346344  0.48507174  0.62852668  1
  O2-  O90  1  0.15123864  0.49800740  0.87986933  1
  O2-  O91  1  0.33042897  -0.01124119  0.13880832  1
  O2-  O92  1  0.39933933  -0.01838821  0.36591502  1
  O2-  O93  1  0.42086685  -0.02524152  0.63398445  1
  O2-  O94  1  0.37327859  0.02674254  0.87794244  1
  O2-  O95  1  0.33805388  0.51264535  0.14990208  1
  O2-  O96  1  0.34915225  0.51486130  0.37335092  1
  O2-  O97  1  0.33260499  0.49522951  0.60618605  1
  O2-  O98  1  0.39433080  0.48619228  0.88726175  1
  O2-  O99  1  0.69407293  0.02687957  0.11641648  1
  O2-  O100  1  0.58826567  0.01408896  0.37573496  1
  O2-  O101  1  0.63248333  0.00798502  0.59922952  1
  O2-  O102  1  0.60913660  0.00289533  0.84590737  1
  O2-  O103  1  0.69047268  0.46491621  0.10869741  1
  O2-  O104  1  0.60698076  0.51142397  0.36837991  1
  O2-  O105  1  0.59284068  0.50427553  0.61340892  1
  O2-  O106  1  0.62445573  0.49137202  0.88161369  1
  O2-  O107  1  0.92217879  -0.03016299  0.12879696  1
  O2-  O108  1  0.89724004  -0.01419043  0.34911414  1
  O2-  O109  1  0.88719819  -0.01960394  0.63937923  1
  O2-  O110  1  0.87677104  -0.02494213  0.86898904  1
  O2-  O111  1  0.98320649  0.49622177  0.11587893  1
  O2-  O112  1  0.85109236  0.50328903  0.38509151  1
  O2-  O113  1  0.91034533  0.52424628  0.60791484  1
  O2-  O114  1  0.83669439  0.51950512  0.86327466  1
  O2-  O115  1  0.07349116  0.23688831  0.12444837  1
  O2-  O116  1  0.13783977  0.25478058  0.35805860  1
  O2-  O117  1  0.16899408  0.24054210  0.62557005  1
  O2-  O118  1  0.12947279  0.24330166  0.89116449  1
  O2-  O119  1  0.07934141  0.74578546  0.12983618  1
  O2-  O120  1  0.09082364  0.74269448  0.39718982  1
  O2-  O121  1  0.13031333  0.74819985  0.62793393  1
  O2-  O122  1  0.14291485  0.75267680  0.86454230  1
  O2-  O123  1  0.33954835  0.25277450  0.17149600  1
  O2-  O124  1  0.36227081  0.25663520  0.36861385  1
  O2-  O125  1  0.32096356  0.28895776  0.58218742  1
  O2-  O126  1  0.38391201  0.23924062  0.88169890  1
  O2-  O127  1  0.39978282  0.75807073  0.12016140  1
  O2-  O128  1  0.41693913  0.75886486  0.39055224  1
  O2-  O129  1  0.33313740  0.75939312  0.62478241  1
  O2-  O130  1  0.34837227  0.75277835  0.86532368  1
  O2-  O131  1  0.56084873  0.23817163  0.10412141  1
  O2-  O132  1  0.57622639  0.23612129  0.35925130  1
  O2-  O133  1  0.66055155  0.25583901  0.61743318  1
  O2-  O134  1  0.65560204  0.24852331  0.85818120  1
  O2-  O135  1  0.62013943  0.78802620  0.11545781  1
  O2-  O136  1  0.60601213  0.76544654  0.34456259  1
  O2-  O137  1  0.62042087  0.74433565  0.63601817  1
  O2-  O138  1  0.63012658  0.74818198  0.87191364  1
  O2-  O139  1  0.89707637  0.25349336  0.10946797  1
  O2-  O140  1  0.86824385  0.24513063  0.39707999  1
  O2-  O141  1  0.83080579  0.20751121  0.60359288  1
  O2-  O142  1  0.85445871  0.24821181  0.85774793  1
  O2-  O143  1  0.91238233  0.74260388  0.14907304  1
  O2-  O144  1  0.89276629  0.75813068  0.35068143  1
  O2-  O145  1  0.81457278  0.76004190  0.61061749  1
  O2-  O146  1  0.81294415  0.73975654  0.88157904  1
  O2-  O147  1  0.08644480  0.11621133  -0.00486274  1
  O2-  O148  1  0.08769519  0.12987005  0.24770428  1
  O2-  O149  1  0.14993669  0.12231215  0.49729852  1
  O2-  O150  1  0.16647555  0.12964862  0.74983587  1
  O2-  O151  1  0.14150449  0.64589045  0.00423960  1
  O2-  O152  1  0.15312535  0.65991304  0.25852060  1
  O2-  O153  1  0.12981879  0.61612486  0.50049388  1
  O2-  O154  1  0.12689508  0.62556207  0.75084952  1
  O2-  O155  1  0.38083930  0.13724921  0.03311149  1
  O2-  O156  1  0.42004342  0.11729532  0.23405043  1
  O2-  O157  1  0.35057373  0.12128725  0.50049416  1
  O2-  O158  1  0.36027219  0.15688831  0.71255756  1
  O2-  O159  1  0.36510936  0.62259600  0.00568478  1
  O2-  O160  1  0.35209319  0.65391567  0.25954678  1
  O2-  O161  1  0.38467935  0.63925608  0.50688571  1
  O2-  O162  1  0.33994141  0.62304516  0.74253660  1
  O2-  O163  1  0.68133440  0.14824568  0.00120437  1
  O2-  O164  1  0.60749308  0.12942148  0.22773292  1
  O2-  O165  1  0.65762210  0.14627276  0.48588403  1
  O2-  O166  1  0.65070864  0.13289329  0.72748171  1
  O2-  O167  1  0.62850308  0.62564866  0.00425300  1
  O2-  O168  1  0.61744264  0.62638286  0.22969143  1
  O2-  O169  1  0.58924343  0.64850123  0.49060371  1
  O2-  O170  1  0.63728386  0.61788828  0.74829999  1
  O2-  O171  1  0.89928363  0.13351673  -0.02399386  1
  O2-  O172  1  0.90633916  0.13468462  0.25111558  1
  O2-  O173  1  0.85911583  0.08525584  0.49364959  1
  O2-  O174  1  0.86751847  0.12265843  0.73487919  1
  O2-  O175  1  0.89676281  0.62729004  0.00811627  1
  O2-  O176  1  0.92640672  0.61288694  0.26287144  1
  O2-  O177  1  0.89380770  0.64997569  0.48270708  1
  O2-  O178  1  0.88419736  0.65249415  0.74252567  1
  O2-  O179  1  0.08829076  0.38450100  -0.00131653  1
  O2-  O180  1  0.08591859  0.38324093  0.23400277  1
  O2-  O181  1  0.10623336  0.35560137  0.50099815  1
  O2-  O182  1  0.14835904  0.35779067  0.75894402  1
  O2-  O183  1  0.12562792  0.85467297  0.00610516  1
  O2-  O184  1  0.11471469  0.85153257  0.26069334  1
  O2-  O185  1  0.08489577  0.88063293  0.50835864  1
  O2-  O186  1  0.13369940  0.87438639  0.75443827  1
  O2-  O187  1  0.37391639  0.37107855  0.03931672  1
  O2-  O188  1  0.41563032  0.38595256  0.25338932  1
  O2-  O189  1  0.42282240  0.39136515  0.47641042  1
  O2-  O190  1  0.36960340  0.35059578  0.72493387  1
  O2-  O191  1  0.33271088  0.87720016  -0.00010257  1
  O2-  O192  1  0.33190604  0.85206083  0.25386549  1
  O2-  O193  1  0.36498987  0.87281211  0.50915284  1
  O2-  O194  1  0.31926700  0.88853521  0.74782393  1
  O2-  O195  1  0.67986828  0.34529345  -0.00400253  1
  O2-  O196  1  0.59270583  0.35872128  0.21828424  1
  O2-  O197  1  0.66541309  0.37906062  0.50156874  1
  O2-  O198  1  0.64754076  0.37683725  0.74418249  1
  O2-  O199  1  0.62667350  0.89139094  -0.01784108  1
  O2-  O200  1  0.62990717  0.90133331  0.24244065  1
  O2-  O201  1  0.56774807  0.86553366  0.48981554  1
  O2-  O202  1  0.68675122  0.87098962  0.75031908  1
  O2-  O203  1  0.89554470  0.36732510  -0.01592460  1
  O2-  O204  1  0.87368156  0.36136471  0.26109413  1
  O2-  O205  1  0.88370144  0.36623241  0.51554490  1
  O2-  O206  1  0.82107359  0.36867149  0.71052127  1
  O2-  O207  1  0.89955980  0.83318658  0.00470629  1
  O2-  O208  1  0.81535906  0.86062912  0.24596964  1
  O2-  O209  1  0.88918325  0.87066037  0.49147306  1
  O2-  O210  1  0.88718647  0.83529219  0.74840978  1
  O2-  O211  1  0.01120109  -0.13777423  -0.12559489  1
  O2-  O212  1  0.00096184  0.14358520  0.40152803  1
  O2-  O213  1  0.01084685  0.14511488  0.60399816  1
  O2-  O214  1  0.00620939  0.10268732  0.83325466  1
  O2-  O215  1  0.01152636  0.64001937  -0.12571557  1
  O2-  O216  1  0.00393059  0.36561091  0.37658406  1
  O2-  O217  1  0.00661578  0.32269031  0.63677763  1
  O2-  O218  1  -0.03291215  0.44112247  0.76185418  1
  O2-  O219  1  0.21657467  0.13216590  0.12887698  1
  O2-  O220  1  0.24193876  0.11866437  0.33942628  1
  O2-  O221  1  0.23739316  -0.12663225  0.39891554  1
  O2-  O222  1  0.25710451  0.03652933  0.62211264  1
  O2-  O223  1  0.21190185  0.37039430  0.11561931  1
  O2-  O224  1  0.25104387  0.38149950  0.27948474  1
  O2-  O225  1  0.24808473  0.37946782  0.43894249  1
  O2-  O226  1  0.27182101  0.35758169  0.89244143  1
  O2-  O227  1  0.53651763  0.10488139  -0.02443788  1
  O2-  O228  1  0.53486910  0.00371771  0.10990931  1
  O2-  O229  1  0.49807059  0.14519344  0.61133743  1
  O2-  O230  1  0.51431233  0.14423136  0.82446677  1
  O2-  O231  1  0.52600204  0.37252249  -0.01679575  1
  O2-  O232  1  0.53621811  0.49556963  0.10916910  1
  O2-  O233  1  0.50741453  0.34896547  0.62206349  1
  O2-  O234  1  0.50284941  0.35004862  0.83281357  1
  O2-  O235  1  0.75680736  -0.12735411  0.08789605  1
  O2-  O236  1  0.75376754  0.11251884  0.34264251  1
  O2-  O237  1  0.73120008  -0.10722974  0.40014497  1
  O2-  O238  1  0.75472503  0.10534811  0.86089207  1
  O2-  O239  1  0.75852275  0.65829675  0.12450570  1
  O2-  O240  1  0.82884753  0.50782618  0.16627461  1
  O2-  O241  1  0.73818687  0.65071391  0.36102488  1
  O2-  O242  1  0.75188161  0.61036770  0.60792447  1
