# generated using pymatgen
data_Gd19Ta56(WO20)8
_symmetry_space_group_name_H-M   'P 1'
_cell_length_a   15.49313181
_cell_length_b   15.54162969
_cell_length_c   15.26343141
_cell_angle_alpha   90.15277460
_cell_angle_beta   89.85674140
_cell_angle_gamma   90.18018950
_symmetry_Int_Tables_number   1
_chemical_formula_structural   Gd19Ta56(WO20)8
_chemical_formula_sum   'Gd19 Ta56 W8 O160'
_cell_volume   3675.21636504
_cell_formula_units_Z   1
loop_
 _symmetry_equiv_pos_site_id
 _symmetry_equiv_pos_as_xyz
  1  'x, y, z'
loop_
 _atom_type_symbol
 _atom_type_oxidation_number
  Gd3+  3.0
  Ta5+  5.0
  W6+  6.0
  O2-  -2.0
loop_
 _atom_site_type_symbol
 _atom_site_label
 _atom_site_symmetry_multiplicity
 _atom_site_fract_x
 _atom_site_fract_y
 _atom_site_fract_z
 _atom_site_occupancy
  Gd3+  Gd0  1  -0.01831470  0.74476304  -0.01474697  1
  Gd3+  Gd1  1  0.49976265  0.76169582  0.78272044  1
  Gd3+  Gd2  1  0.53502983  0.26376955  0.76267037  1
  Gd3+  Gd3  1  0.76778867  0.25884761  0.26772892  1
  Gd3+  Gd4  1  0.00637808  0.25925997  0.49165028  1
  Gd3+  Gd5  1  0.23978984  0.26961356  0.51482158  1
  Gd3+  Gd6  1  0.78037664  0.24686653  0.73345368  1
  Gd3+  Gd7  1  0.22835221  0.71051542  0.50007657  1
  Gd3+  Gd8  1  0.50734791  0.26240724  0.00816246  1
  Gd3+  Gd9  1  0.23511579  0.73386833  0.00597130  1
  Gd3+  Gd10  1  0.48711186  0.27083882  0.50153183  1
  Gd3+  Gd11  1  0.24550275  0.73486309  0.24075994  1
  Gd3+  Gd12  1  0.76055376  0.74146096  0.23601916  1
  Gd3+  Gd13  1  0.73918362  0.73053308  0.75963191  1
  Gd3+  Gd14  1  0.50106997  0.25596617  0.25196331  1
  Gd3+  Gd15  1  -0.00172524  0.23960344  0.23881111  1
  Gd3+  Gd16  1  0.26553575  0.25113663  0.75499038  1
  Gd3+  Gd17  1  0.73163717  0.24164663  0.51306263  1
  Gd3+  Gd18  1  0.25589914  0.72615918  0.75465597  1
  Ta5+  Ta19  1  0.16829531  0.40435049  0.34813123  1
  Ta5+  Ta20  1  0.40808098  0.65752295  0.62460991  1
  Ta5+  Ta21  1  0.63160171  0.86186442  0.89722441  1
  Ta5+  Ta22  1  0.11402932  0.61069271  0.87051916  1
  Ta5+  Ta23  1  0.60654008  0.64185615  0.37255515  1
  Ta5+  Ta24  1  0.37981918  0.11256367  0.88416397  1
  Ta5+  Ta25  1  0.34518453  0.10904313  0.34609657  1
  Ta5+  Ta26  1  0.65900395  0.41099688  0.93550984  1
  Ta5+  Ta27  1  0.39812287  0.61309705  0.10950302  1
  Ta5+  Ta28  1  0.09846438  0.87219783  0.12456709  1
  Ta5+  Ta29  1  0.11647889  0.42251096  0.67056251  1
  Ta5+  Ta30  1  0.62151446  0.11301730  0.36825681  1
  Ta5+  Ta31  1  0.57945009  0.62277406  0.89850120  1
  Ta5+  Ta32  1  0.08433889  0.61988265  0.13880550  1
  Ta5+  Ta33  1  0.88278241  0.36732870  0.87644282  1
  Ta5+  Ta34  1  0.12419070  0.87046247  0.37099913  1
  Ta5+  Ta35  1  0.06937254  0.60461985  0.62243682  1
  Ta5+  Ta36  1  0.34938350  0.87591146  0.11763066  1
  Ta5+  Ta37  1  0.07576344  0.62412581  0.35921842  1
  Ta5+  Ta38  1  0.34927535  0.12553451  0.12381412  1
  Ta5+  Ta39  1  0.88974390  0.62240928  0.60659075  1
  Ta5+  Ta40  1  0.41473044  0.41944608  0.64275172  1
  Ta5+  Ta41  1  0.57516719  0.65635350  0.62362324  1
  Ta5+  Ta42  1  0.88221855  0.86680626  0.37397806  1
  Ta5+  Ta43  1  0.87118107  0.86247953  0.62501082  1
  Ta5+  Ta44  1  0.14506362  0.10674902  0.32958407  1
  Ta5+  Ta45  1  0.11287657  0.86517883  0.86147455  1
  Ta5+  Ta46  1  0.37350661  0.41634005  0.34736730  1
  Ta5+  Ta47  1  0.83957194  0.11342284  0.10698757  1
  Ta5+  Ta48  1  0.14776990  0.09338632  0.62410060  1
  Ta5+  Ta49  1  0.86909472  0.11170948  0.39443486  1
  Ta5+  Ta50  1  0.90028431  0.12526475  0.87478929  1
  Ta5+  Ta51  1  0.91454588  0.61929306  0.13459930  1
  Ta5+  Ta52  1  0.61409652  0.42307238  0.61428769  1
  Ta5+  Ta53  1  0.92317248  0.43965788  0.63838538  1
  Ta5+  Ta54  1  0.61675363  0.88130783  0.12503254  1
  Ta5+  Ta55  1  0.38795276  0.08133674  0.63161077  1
  Ta5+  Ta56  1  0.58409975  0.08788523  0.59864089  1
  Ta5+  Ta57  1  0.34731204  0.37665430  0.11633834  1
  Ta5+  Ta58  1  0.90740350  0.10113201  0.62428724  1
  Ta5+  Ta59  1  0.59073046  0.84754897  0.62443134  1
  Ta5+  Ta60  1  0.38045268  0.87337473  0.89520215  1
  Ta5+  Ta61  1  0.14020290  0.36786283  0.87758767  1
  Ta5+  Ta62  1  0.87528463  0.87616808  0.87231830  1
  Ta5+  Ta63  1  0.11672490  0.85482441  0.61886491  1
  Ta5+  Ta64  1  0.41192401  0.84157301  0.62451632  1
  Ta5+  Ta65  1  0.57776862  0.65388669  0.11093415  1
  Ta5+  Ta66  1  0.38876841  0.86809520  0.37215093  1
  Ta5+  Ta67  1  0.40867923  0.62371368  0.89545068  1
  Ta5+  Ta68  1  0.92672742  0.88139541  0.13077718  1
  Ta5+  Ta69  1  0.62264121  0.39353184  0.36504608  1
  Ta5+  Ta70  1  0.87598451  0.61244671  0.87292646  1
  Ta5+  Ta71  1  0.63057953  0.11040456  0.12384840  1
  Ta5+  Ta72  1  0.66880282  0.10337544  0.90283494  1
  Ta5+  Ta73  1  0.85776379  0.37771994  0.12402364  1
  Ta5+  Ta74  1  0.11554017  0.11576373  0.09377290  1
  W6+  W75  1  0.12873962  0.11503612  0.86513504  1
  W6+  W76  1  0.09568769  0.37190773  0.11114204  1
  W6+  W77  1  0.63166860  0.86654527  0.37644355  1
  W6+  W78  1  0.64452351  0.45882291  0.13419059  1
  W6+  W79  1  0.88387363  0.38935319  0.39213078  1
  W6+  W80  1  0.37644698  0.63438017  0.37079421  1
  W6+  W81  1  0.39499323  0.37706735  0.86727269  1
  W6+  W82  1  0.91309122  0.62746985  0.35932972  1
  O2-  O83  1  0.12451902  -0.00636373  0.10095729  1
  O2-  O84  1  0.12932586  0.00255348  0.38710075  1
  O2-  O85  1  0.16198009  -0.02396003  0.60158833  1
  O2-  O86  1  0.11898180  -0.01783172  0.85968306  1
  O2-  O87  1  0.09562399  0.50353739  0.12072454  1
  O2-  O88  1  0.10363810  0.50215521  0.36635649  1
  O2-  O89  1  0.16517047  0.51240805  0.60617885  1
  O2-  O90  1  0.14737397  0.49823107  0.88665095  1
  O2-  O91  1  0.35765713  0.00567462  0.12200618  1
  O2-  O92  1  0.36045074  -0.00621849  0.37620057  1
  O2-  O93  1  0.36091853  -0.03093372  0.64839973  1
  O2-  O94  1  0.41774039  -0.00087263  0.88190306  1
  O2-  O95  1  0.35262291  0.49683706  0.12384369  1
  O2-  O96  1  0.42371744  0.51124165  0.39730490  1
  O2-  O97  1  0.37201367  0.52860740  0.64913179  1
  O2-  O98  1  0.39824037  0.50750280  0.87409636  1
  O2-  O99  1  0.57433327  -0.00030165  0.11541254  1
  O2-  O100  1  0.61118801  -0.00034494  0.39555384  1
  O2-  O101  1  0.60126814  -0.02083655  0.64338877  1
  O2-  O102  1  0.66758389  -0.01365441  0.88200747  1
  O2-  O103  1  0.51714897  0.54722941  0.13444327  1
  O2-  O104  1  0.62070053  0.51370819  0.37605163  1
  O2-  O105  1  0.64442350  0.53521036  0.62820267  1
  O2-  O106  1  0.61434768  0.50129580  0.87197890  1
  O2-  O107  1  0.89917110  0.01374260  0.13309501  1
  O2-  O108  1  0.85615237  -0.00667033  0.38959795  1
  O2-  O109  1  0.85376706  -0.00513225  0.61622964  1
  O2-  O110  1  0.89212428  0.00327777  0.86769427  1
  O2-  O111  1  0.89519952  0.48910868  0.13263665  1
  O2-  O112  1  0.92861635  0.50266745  0.36471018  1
  O2-  O113  1  0.82614377  0.50793460  0.62031076  1
  O2-  O114  1  0.90254438  0.48796820  0.87567242  1
  O2-  O115  1  0.07335599  0.23475340  0.11539708  1
  O2-  O116  1  0.06391305  0.19201521  0.36755405  1
  O2-  O117  1  0.19548313  0.32415925  0.64957155  1
  O2-  O118  1  0.16521192  0.24467953  0.86918913  1
  O2-  O119  1  0.13770862  0.74726723  0.13432811  1
  O2-  O120  1  0.13711138  0.74481918  0.35573548  1
  O2-  O121  1  0.12791649  0.73072329  0.61869957  1
  O2-  O122  1  0.16356411  0.74013958  0.87131207  1
  O2-  O123  1  0.39751260  0.25126022  0.12917811  1
  O2-  O124  1  0.49305140  0.35174612  0.38053224  1
  O2-  O125  1  0.28072225  0.13219498  0.59215308  1
  O2-  O126  1  0.43216826  0.23328050  0.87467616  1
  O2-  O127  1  0.35374944  0.75224069  0.10358830  1
  O2-  O128  1  0.31788004  0.76076671  0.37496310  1
  O2-  O129  1  0.30775848  0.76143434  0.62026198  1
  O2-  O130  1  0.35011564  0.74878447  0.90440081  1
  O2-  O131  1  0.58209595  0.22300412  0.13238203  1
  O2-  O132  1  0.63110451  0.24951303  0.33853640  1
  O2-  O133  1  0.68829546  0.15203503  0.62576586  1
  O2-  O134  1  0.59643188  0.30874971  0.89040676  1
  O2-  O135  1  0.55130198  0.78096719  0.11836911  1
  O2-  O136  1  0.68260920  0.73961362  0.36494661  1
  O2-  O137  1  0.67169965  0.74459021  0.63046198  1
  O2-  O138  1  0.64648753  0.73941143  0.90033362  1
  O2-  O139  1  0.87045053  0.23173207  0.14049597  1
  O2-  O140  1  0.86063354  0.24835548  0.41301952  1
  O2-  O141  1  0.85017169  0.21244053  0.60014424  1
  O2-  O142  1  0.92862849  0.25227719  0.85993123  1
  O2-  O143  1  0.91397256  0.75366802  0.12868032  1
  O2-  O144  1  0.85791415  0.75016205  0.34882339  1
  O2-  O145  1  0.85964882  0.74198873  0.64496986  1
  O2-  O146  1  0.84914095  0.74573056  0.88147746  1
  O2-  O147  1  0.06507903  0.11296700  -0.01575733  1
  O2-  O148  1  0.07716180  0.10607537  0.22178383  1
  O2-  O149  1  0.11965433  0.18295484  0.54558009  1
  O2-  O150  1  0.18291002  0.12611761  0.73618552  1
  O2-  O151  1  0.10162806  0.64654015  0.00238272  1
  O2-  O152  1  0.15863746  0.61785737  0.24799656  1
  O2-  O153  1  0.09829474  0.63569916  0.48354234  1
  O2-  O154  1  0.13727531  0.62428958  0.74640175  1
  O2-  O155  1  0.40726076  0.13288785  0.01232812  1
  O2-  O156  1  0.41204170  0.13068849  0.23812181  1
  O2-  O157  1  0.42168362  0.18960731  0.39879462  1
  O2-  O158  1  0.37466651  0.12856730  0.75280862  1
  O2-  O159  1  0.32186820  0.61479454  0.00755488  1
  O2-  O160  1  0.36162516  0.63856963  0.22738988  1
  O2-  O161  1  0.36587077  0.64773046  0.50422737  1
  O2-  O162  1  0.38976601  0.65527406  0.76476234  1
  O2-  O163  1  0.58672355  0.13323005  -0.00730979  1
  O2-  O164  1  0.58140389  0.10615203  0.25138170  1
  O2-  O165  1  0.59575649  0.16757013  0.48432039  1
  O2-  O166  1  0.61208920  0.14714552  0.80591919  1
  O2-  O167  1  0.64494924  0.61933436  0.01676675  1
  O2-  O168  1  0.63994684  0.65019691  0.22392856  1
  O2-  O169  1  0.58791352  0.64752107  0.49251017  1
  O2-  O170  1  0.59910948  0.64824376  0.76492436  1
  O2-  O171  1  0.89322748  0.13473930  -0.00214388  1
  O2-  O172  1  0.89520317  0.13718944  0.27845237  1
  O2-  O173  1  0.94699365  0.11670718  0.49412815  1
  O2-  O174  1  0.87759979  0.13022122  0.74242958  1
  O2-  O175  1  0.89316673  0.62308480  0.00801717  1
  O2-  O176  1  0.83732330  0.62056856  0.23983613  1
  O2-  O177  1  0.88046366  0.64655395  0.48922953  1
  O2-  O178  1  0.83811020  0.61668793  0.75439149  1
  O2-  O179  1  0.07380062  0.36468465  -0.02153927  1
  O2-  O180  1  0.10947243  0.35023511  0.25630478  1
  O2-  O181  1  0.12689370  0.34371002  0.45119186  1
  O2-  O182  1  0.06848946  0.36161319  0.78003431  1
  O2-  O183  1  0.10054224  0.84562592  -0.01003009  1
  O2-  O184  1  0.14247039  0.88311673  0.24887261  1
  O2-  O185  1  0.16489516  0.84692465  0.49673065  1
  O2-  O186  1  0.16461105  0.85210496  0.73634420  1
  O2-  O187  1  0.39795330  0.36789234  0.00507611  1
  O2-  O188  1  0.40755809  0.37472538  0.23392863  1
  O2-  O189  1  0.36561799  0.33346616  0.56069852  1
  O2-  O190  1  0.39105196  0.32961191  0.73281787  1
  O2-  O191  1  0.30115887  0.88827871  -0.00651050  1
  O2-  O192  1  0.33806941  0.86844300  0.24292402  1
  O2-  O193  1  0.40062866  0.85982475  0.49467516  1
  O2-  O194  1  0.37584859  0.84880683  0.76652691  1
  O2-  O195  1  0.58108525  0.38966514  0.03498069  1
  O2-  O196  1  0.59003153  0.39215741  0.24553409  1
  O2-  O197  1  0.63280512  0.35134110  0.49830739  1
  O2-  O198  1  0.67590899  0.32786793  0.67211848  1
  O2-  O199  1  0.67966489  0.87500019  0.02051720  1
  O2-  O200  1  0.66731043  0.87247986  0.23695147  1
  O2-  O201  1  0.59889575  0.85330195  0.50385683  1
  O2-  O202  1  0.62494208  0.84909397  0.76666720  1
  O2-  O203  1  0.88139749  0.35365396  0.00327860  1
  O2-  O204  1  0.89256729  0.34959313  0.25110844  1
  O2-  O205  1  0.91939355  0.37584406  0.52796576  1
  O2-  O206  1  0.87477770  0.36439374  0.73546093  1
  O2-  O207  1  0.90083426  0.87631915  -0.00127183  1
  O2-  O208  1  0.87127982  0.88168621  0.24770742  1
  O2-  O209  1  0.85456852  0.85563708  0.50257804  1
  O2-  O210  1  0.82576528  0.86964134  0.74984952  1
  O2-  O211  1  -0.00690829  -0.15920719  -0.15990995  1
  O2-  O212  1  0.00285767  -0.12903240  0.38264068  1
  O2-  O213  1  0.02541628  0.08131332  0.65205271  1
  O2-  O214  1  -0.00304778  -0.13045257  0.62911647  1
  O2-  O215  1  -0.00534285  0.64949686  -0.14265829  1
  O2-  O216  1  0.00010076  0.65175549  0.24333258  1
  O2-  O217  1  -0.01861575  0.53475274  0.55782310  1
  O2-  O218  1  0.01555953  0.49880151  0.70988090  1
  O2-  O219  1  0.23436757  0.14676557  0.08416440  1
  O2-  O220  1  0.25218428  0.10843596  0.25299733  1
  O2-  O221  1  0.24187732  0.15166549  0.40871074  1
  O2-  O222  1  0.26459733  0.10441916  0.89744933  1
  O2-  O223  1  0.23331825  0.35267078  0.11035099  1
  O2-  O224  1  0.26923652  0.47003384  0.30413998  1
  O2-  O225  1  0.28597954  0.33509513  0.38925389  1
  O2-  O226  1  0.26211077  0.37415806  0.83972340  1
  O2-  O227  1  0.50710603  -0.14335857  -0.08820965  1
  O2-  O228  1  0.49997411  -0.13567290  0.33442087  1
  O2-  O229  1  0.46904026  0.06316439  0.53777564  1
  O2-  O230  1  0.49815069  0.18068606  0.64170529  1
  O2-  O231  1  0.48216738  0.66471057  0.00500743  1
  O2-  O232  1  0.49988640  0.67387938  0.33491806  1
  O2-  O233  1  0.50264512  0.42818927  0.55125081  1
  O2-  O234  1  0.53111924  0.40964680  0.71117134  1
  O2-  O235  1  0.73217820  0.08513985  0.03942929  1
  O2-  O236  1  0.73676273  0.13006959  0.19365755  1
  O2-  O237  1  0.74407594  0.13130363  0.40249790  1
  O2-  O238  1  0.77463738  0.16303063  0.87225072  1
  O2-  O239  1  0.73157901  0.45930064  0.02300691  1
  O2-  O240  1  0.74093165  0.35572072  0.15887420  1
  O2-  O241  1  0.74537542  0.37550983  0.36268870  1
  O2-  O242  1  0.76025508  0.35690476  0.86806501  1
