# generated using pymatgen
data_Gd19Ta56(WO20)8
_symmetry_space_group_name_H-M   'P 1'
_cell_length_a   15.53598279
_cell_length_b   15.54661971
_cell_length_c   15.29471740
_cell_angle_alpha   89.87597820
_cell_angle_beta   90.10608228
_cell_angle_gamma   89.93686600
_symmetry_Int_Tables_number   1
_chemical_formula_structural   Gd19Ta56(WO20)8
_chemical_formula_sum   'Gd19 Ta56 W8 O160'
_cell_volume   3694.14668615
_cell_formula_units_Z   1
loop_
 _symmetry_equiv_pos_site_id
 _symmetry_equiv_pos_as_xyz
  1  'x, y, z'
loop_
 _atom_type_symbol
 _atom_type_oxidation_number
  Gd3+  3.0
  Ta5+  5.0
  W6+  6.0
  O2-  -2.0
loop_
 _atom_site_type_symbol
 _atom_site_label
 _atom_site_symmetry_multiplicity
 _atom_site_fract_x
 _atom_site_fract_y
 _atom_site_fract_z
 _atom_site_occupancy
  Gd3+  Gd0  1  0.25152658  0.25217950  0.26502541  1
  Gd3+  Gd1  1  -0.04254121  0.74975025  0.73436402  1
  Gd3+  Gd2  1  0.53061721  0.26153429  0.49335840  1
  Gd3+  Gd3  1  0.77499539  0.25995397  0.75945972  1
  Gd3+  Gd4  1  0.24292692  0.25661312  0.74226358  1
  Gd3+  Gd5  1  0.48028730  0.23584490  0.72665360  1
  Gd3+  Gd6  1  0.25084613  0.72981077  0.24318064  1
  Gd3+  Gd7  1  0.76169738  0.23440773  0.25684593  1
  Gd3+  Gd8  1  0.75014810  0.23658200  -0.00381272  1
  Gd3+  Gd9  1  0.26858695  0.78090290  0.76629587  1
  Gd3+  Gd10  1  -0.02660144  0.74409919  0.23205858  1
  Gd3+  Gd11  1  -0.01995705  0.25461190  0.01095084  1
  Gd3+  Gd12  1  0.51067030  0.74258047  0.50465582  1
  Gd3+  Gd13  1  0.24553473  0.25347910  0.00868551  1
  Gd3+  Gd14  1  0.51282502  0.73106387  0.74915617  1
  Gd3+  Gd15  1  0.51417665  0.75204603  0.22987043  1
  Gd3+  Gd16  1  0.73457853  0.76117576  0.77168311  1
  Gd3+  Gd17  1  -0.01231006  0.28493269  0.49268183  1
  Gd3+  Gd18  1  -0.00380397  0.25842354  0.72645677  1
  Ta5+  Ta19  1  0.66356335  0.86676068  0.12222062  1
  Ta5+  Ta20  1  0.11818219  0.11767320  0.90329396  1
  Ta5+  Ta21  1  0.34539724  0.87743683  0.36825329  1
  Ta5+  Ta22  1  0.65402103  0.62651403  0.90275398  1
  Ta5+  Ta23  1  0.62752924  0.11134342  0.13921031  1
  Ta5+  Ta24  1  0.13352921  0.42319412  0.57373165  1
  Ta5+  Ta25  1  0.33135886  0.63786758  0.61639464  1
  Ta5+  Ta26  1  0.82390613  0.62690210  0.89686086  1
  Ta5+  Ta27  1  0.10793380  0.63122792  0.37950869  1
  Ta5+  Ta28  1  0.41103425  0.37403159  0.37171026  1
  Ta5+  Ta29  1  0.12757091  0.40677493  0.34277066  1
  Ta5+  Ta30  1  0.83237326  0.86871682  0.13027714  1
  Ta5+  Ta31  1  0.81938757  0.63200751  0.62215011  1
  Ta5+  Ta32  1  0.65372113  0.61157945  0.62801748  1
  Ta5+  Ta33  1  0.59439543  0.39673391  0.87760606  1
  Ta5+  Ta34  1  0.37051452  0.62853283  0.87629129  1
  Ta5+  Ta35  1  0.42681092  0.88402216  0.88081798  1
  Ta5+  Ta36  1  0.12884281  0.88144899  0.13120183  1
  Ta5+  Ta37  1  0.37366753  0.60966621  0.11725160  1
  Ta5+  Ta38  1  0.93410638  0.12012201  0.36301213  1
  Ta5+  Ta39  1  0.64586907  0.39099847  0.63223301  1
  Ta5+  Ta40  1  0.60184367  0.11414109  0.88047070  1
  Ta5+  Ta41  1  0.83827099  0.11814320  0.58145777  1
  Ta5+  Ta42  1  0.64671020  0.11442702  0.39988995  1
  Ta5+  Ta43  1  0.39419180  0.38916617  0.89101622  1
  Ta5+  Ta44  1  0.32995853  0.39944896  0.59022566  1
  Ta5+  Ta45  1  0.91124320  0.11304381  0.87512533  1
  Ta5+  Ta46  1  0.66231456  0.62440667  0.11432971  1
  Ta5+  Ta47  1  0.83132009  0.62957593  0.10998484  1
  Ta5+  Ta48  1  0.85747590  0.87444733  0.88773918  1
  Ta5+  Ta49  1  0.86482919  0.62318224  0.37399439  1
  Ta5+  Ta50  1  0.67010037  0.37935976  0.37821135  1
  Ta5+  Ta51  1  0.65401857  0.87001626  0.37269271  1
  Ta5+  Ta52  1  0.87370151  0.10825206  0.12343945  1
  Ta5+  Ta53  1  0.89918008  0.87719625  0.38601654  1
  Ta5+  Ta54  1  0.63901862  0.10352473  0.62169945  1
  Ta5+  Ta55  1  0.15239489  0.65709162  0.62740991  1
  Ta5+  Ta56  1  0.59728862  0.87279670  0.88826544  1
  Ta5+  Ta57  1  0.86456289  0.38943311  0.13098138  1
  Ta5+  Ta58  1  0.39262745  0.11854077  0.37225242  1
  Ta5+  Ta59  1  0.13298815  0.89055735  0.35977935  1
  Ta5+  Ta60  1  0.40531163  0.36530235  0.12507992  1
  Ta5+  Ta61  1  0.13951623  0.63935104  0.88237193  1
  Ta5+  Ta62  1  0.09425090  0.87441234  0.90623391  1
  Ta5+  Ta63  1  0.33914622  0.11701938  0.60333920  1
  Ta5+  Ta64  1  0.63886381  0.62409311  0.36744701  1
  Ta5+  Ta65  1  0.11086530  0.39287013  0.90086626  1
  Ta5+  Ta66  1  0.36516340  0.87688698  0.11999290  1
  Ta5+  Ta67  1  0.81733605  0.88017717  0.62055991  1
  Ta5+  Ta68  1  0.84026773  0.38005054  0.38219545  1
  Ta5+  Ta69  1  0.38609309  0.12393906  0.12712606  1
  Ta5+  Ta70  1  0.64667082  0.85915307  0.62150782  1
  Ta5+  Ta71  1  0.38983647  0.87539003  0.61689468  1
  Ta5+  Ta72  1  0.85698837  0.43454500  0.62952811  1
  Ta5+  Ta73  1  0.12221592  0.62272882  0.11367696  1
  Ta5+  Ta74  1  0.11614010  0.12469670  0.13858761  1
  W6+  W75  1  0.14991847  0.83026848  0.54842714  1
  W6+  W76  1  0.86371175  0.39770553  0.88127982  1
  W6+  W77  1  0.11920530  0.07099630  0.56924374  1
  W6+  W78  1  0.10993136  0.38684634  0.14499413  1
  W6+  W79  1  0.09815774  0.14169678  0.37243273  1
  W6+  W80  1  0.65209813  0.37419266  0.12079716  1
  W6+  W81  1  0.38724469  0.62119863  0.36731324  1
  W6+  W82  1  0.36260738  0.12814409  0.86919332  1
  O2-  O83  1  0.10190098  0.00189238  0.13338623  1
  O2-  O84  1  0.12112806  0.00647883  0.37027036  1
  O2-  O85  1  0.11390207  -0.04442382  0.58526387  1
  O2-  O86  1  0.13127873  -0.01073457  0.89316375  1
  O2-  O87  1  0.08584938  0.51241023  0.10263062  1
  O2-  O88  1  0.17017352  0.52787771  0.36179233  1
  O2-  O89  1  0.12807918  0.52963481  0.62659013  1
  O2-  O90  1  0.12160656  0.51187569  0.87646002  1
  O2-  O91  1  0.36707139  0.00630052  0.12847296  1
  O2-  O92  1  0.38849852  -0.00708550  0.36227525  1
  O2-  O93  1  0.36424263  -0.00187521  0.61104461  1
  O2-  O94  1  0.40225730  0.00034801  0.87619393  1
  O2-  O95  1  0.38952438  0.48720290  0.12245129  1
  O2-  O96  1  0.37944166  0.48671565  0.37788901  1
  O2-  O97  1  0.34638935  0.51112808  0.62749438  1
  O2-  O98  1  0.35137869  0.49586119  0.85881777  1
  O2-  O99  1  0.65271611  -0.00369498  0.14111273  1
  O2-  O100  1  0.62861077  -0.01253840  0.39083008  1
  O2-  O101  1  0.65201250  -0.01311369  0.62560204  1
  O2-  O102  1  0.61197885  -0.00081730  0.85642984  1
  O2-  O103  1  0.66837431  0.50211505  0.12209777  1
  O2-  O104  1  0.64978735  0.50417025  0.36678627  1
  O2-  O105  1  0.58779423  0.49443978  0.65317763  1
  O2-  O106  1  0.63013355  0.50720918  0.86394009  1
  O2-  O107  1  0.83565765  -0.00226558  0.14093114  1
  O2-  O108  1  0.93128805  -0.00846896  0.35211376  1
  O2-  O109  1  0.83920706  0.01108690  0.63560666  1
  O2-  O110  1  0.88908192  -0.00257787  0.85955730  1
  O2-  O111  1  0.85776422  0.50612705  0.14162024  1
  O2-  O112  1  0.84257690  0.50391123  0.36423620  1
  O2-  O113  1  0.91539831  0.53665647  0.64742844  1
  O2-  O114  1  0.81391219  0.51107189  0.85723365  1
  O2-  O115  1  0.15425822  0.25058451  0.13554519  1
  O2-  O116  1  0.13711127  0.28344757  0.36276040  1
  O2-  O117  1  0.05058619  0.34161081  0.61718784  1
  O2-  O118  1  0.10921298  0.24514759  0.93782236  1
  O2-  O119  1  0.14752562  0.75569032  0.13822528  1
  O2-  O120  1  0.15116149  0.74499743  0.34951379  1
  O2-  O121  1  0.07480741  0.76418792  0.64232505  1
  O2-  O122  1  0.16768181  0.77994652  0.88288388  1
  O2-  O123  1  0.33651302  0.24976334  0.13486192  1
  O2-  O124  1  0.36244260  0.25277241  0.37985321  1
  O2-  O125  1  0.43465352  0.18811146  0.58214563  1
  O2-  O126  1  0.33171069  0.27928309  0.86258001  1
  O2-  O127  1  0.35570803  0.74839436  0.13198686  1
  O2-  O128  1  0.36373853  0.75653207  0.34023351  1
  O2-  O129  1  0.41172485  0.74160595  0.62996584  1
  O2-  O130  1  0.38120188  0.75472046  0.87724405  1
  O2-  O131  1  0.67564681  0.22941250  0.12814829  1
  O2-  O132  1  0.66063619  0.24131316  0.40291015  1
  O2-  O133  1  0.58184286  0.28146888  0.62985639  1
  O2-  O134  1  0.70315038  0.18031027  0.85971599  1
  O2-  O135  1  0.61687596  0.75025067  0.12045013  1
  O2-  O136  1  0.57529409  0.74927437  0.36682488  1
  O2-  O137  1  0.59577662  0.72923687  0.62546442  1
  O2-  O138  1  0.60073078  0.74291469  0.88624879  1
  O2-  O139  1  0.84966299  0.24207461  0.11354464  1
  O2-  O140  1  0.88479094  0.24565231  0.38614249  1
  O2-  O141  1  0.91086672  0.21879829  0.60635197  1
  O2-  O142  1  0.88442290  0.24992299  0.89556690  1
  O2-  O143  1  0.87981169  0.74967418  0.11233161  1
  O2-  O144  1  0.91839998  0.75258219  0.37222096  1
  O2-  O145  1  0.84792670  0.75467252  0.61785385  1
  O2-  O146  1  0.87703721  0.75017465  0.88667385  1
  O2-  O147  1  0.17728297  0.11531407  0.02652580  1
  O2-  O148  1  0.17141599  0.12523213  0.24696945  1
  O2-  O149  1  0.07856651  0.17545716  0.51088970  1
  O2-  O150  1  0.22400815  0.14143884  0.84471399  1
  O2-  O151  1  0.08708924  0.66146889  -0.00120033  1
  O2-  O152  1  0.08570180  0.63478416  0.23527299  1
  O2-  O153  1  0.12869589  0.65208211  0.49840592  1
  O2-  O154  1  0.15649940  0.65754872  0.76035158  1
  O2-  O155  1  0.36048772  0.14413460  0.00836769  1
  O2-  O156  1  0.35041980  0.13293231  0.25479160  1
  O2-  O157  1  0.32298193  0.11171649  0.47421086  1
  O2-  O158  1  0.36189718  0.14306887  0.72908284  1
  O2-  O159  1  0.40887639  0.62120991  0.00170365  1
  O2-  O160  1  0.43049720  0.62569752  0.22663872  1
  O2-  O161  1  0.35370875  0.64205506  0.49664125  1
  O2-  O162  1  0.34181960  0.64542337  0.75248874  1
  O2-  O163  1  0.62015064  0.11954550  0.00404466  1
  O2-  O164  1  0.65795138  0.12317481  0.27056570  1
  O2-  O165  1  0.57451779  0.12001892  0.51712067  1
  O2-  O166  1  0.58293169  0.12378937  0.72957697  1
  O2-  O167  1  0.59206530  0.61058057  0.00995624  1
  O2-  O168  1  0.61794580  0.63397070  0.24053343  1
  O2-  O169  1  0.61821646  0.62581364  0.49659810  1
  O2-  O170  1  0.63958658  0.64115568  0.75826688  1
  O2-  O171  1  0.84359208  0.11620133  -0.00679237  1
  O2-  O172  1  0.87231096  0.13345634  0.25086044  1
  O2-  O173  1  0.90781541  0.09700789  0.48250272  1
  O2-  O174  1  0.87643150  0.15188671  0.76091860  1
  O2-  O175  1  0.89165682  0.60465054  0.00219180  1
  O2-  O176  1  0.87349764  0.64027006  0.24191198  1
  O2-  O177  1  0.84505365  0.62325490  0.49846750  1
  O2-  O178  1  0.83984211  0.65396926  0.75735625  1
  O2-  O179  1  0.17328453  0.38434707  0.00839800  1
  O2-  O180  1  0.21144328  0.39296133  0.24641036  1
  O2-  O181  1  0.06896513  0.41392019  0.46162937  1
  O2-  O182  1  0.12118026  0.33059110  0.79319816  1
  O2-  O183  1  0.06327611  0.86407910  0.02460826  1
  O2-  O184  1  0.07237563  0.86794603  0.24498273  1
  O2-  O185  1  0.23758462  0.88294628  0.43819159  1
  O2-  O186  1  -0.00278105  0.85814113  0.83905387  1
  O2-  O187  1  0.35019468  0.35948519  0.00866638  1
  O2-  O188  1  0.38369840  0.35877417  0.24878181  1
  O2-  O189  1  0.41861751  0.36398610  0.50794981  1
  O2-  O190  1  0.36720851  0.32130641  0.67874356  1
  O2-  O191  1  0.42227067  0.87179266  0.01442116  1
  O2-  O192  1  0.42031703  0.87410914  0.23413684  1
  O2-  O193  1  0.39667027  0.85320788  0.48186123  1
  O2-  O194  1  0.39756884  0.86534899  0.74907663  1
  O2-  O195  1  0.64700909  0.34160320  -0.02645361  1
  O2-  O196  1  0.66815787  0.35444651  0.25470576  1
  O2-  O197  1  0.63571326  0.38458553  0.50811213  1
  O2-  O198  1  0.65307463  0.35319613  0.77166809  1
  O2-  O199  1  0.61679034  0.88677148  0.00874539  1
  O2-  O200  1  0.61983364  0.86129889  0.25149833  1
  O2-  O201  1  0.63532295  0.83469720  0.49287900  1
  O2-  O202  1  0.61218714  0.84564426  0.75019144  1
  O2-  O203  1  0.81987740  0.37468409  0.01133232  1
  O2-  O204  1  0.85050302  0.35623053  0.25151975  1
  O2-  O205  1  0.87727416  0.39763638  0.51244790  1
  O2-  O206  1  0.89918757  0.37143388  0.73909092  1
  O2-  O207  1  0.87224831  0.89146446  0.00754209  1
  O2-  O208  1  0.88556116  0.86024829  0.24547056  1
  O2-  O209  1  0.87243573  0.88969996  0.50493018  1
  O2-  O210  1  0.85282210  0.85831033  0.74677596  1
  O2-  O211  1  0.00558006  0.10516218  -0.03317831  1
  O2-  O212  1  -0.00222659  0.15186747  0.13037371  1
  O2-  O213  1  0.04437626  -0.14396520  0.43643053  1
  O2-  O214  1  0.03418182  0.13743774  0.80961334  1
  O2-  O215  1  -0.01859537  0.36294646  0.10481108  1
  O2-  O216  1  0.03907935  0.41504447  0.26669732  1
  O2-  O217  1  -0.00774110  0.60142241  0.38436966  1
  O2-  O218  1  -0.00583918  0.38240234  0.92331524  1
  O2-  O219  1  0.24429740  -0.10707839  0.09048042  1
  O2-  O220  1  0.24571562  -0.12422221  0.27263165  1
  O2-  O221  1  0.26487734  -0.15902077  0.63005040  1
  O2-  O222  1  0.22527625  0.16440361  0.62188903  1
  O2-  O223  1  0.25371154  0.63028276  -0.07981692  1
  O2-  O224  1  0.24832134  0.60866634  0.13123403  1
  O2-  O225  1  0.23850398  0.40081423  0.49807814  1
  O2-  O226  1  0.21863688  0.37614173  0.65621093  1
  O2-  O227  1  0.50453518  0.13186178  0.14628151  1
  O2-  O228  1  0.51087594  0.14056434  0.37210467  1
  O2-  O229  1  0.51047947  -0.12120618  0.60657446  1
  O2-  O230  1  0.49529514  0.17282886  0.86997088  1
  O2-  O231  1  0.49333324  0.42453179  -0.04449251  1
  O2-  O232  1  0.51715020  0.33590891  0.11988718  1
  O2-  O233  1  0.52911592  0.35879551  0.36961058  1
  O2-  O234  1  0.48742402  0.35892976  0.80777183  1
  O2-  O235  1  0.73696832  -0.13229635  -0.11916174  1
  O2-  O236  1  0.77212101  -0.12837118  0.36991502  1
  O2-  O237  1  0.73482787  0.10605974  0.50251911  1
  O2-  O238  1  0.73863665  0.16947439  0.65417022  1
  O2-  O239  1  0.74354128  0.67238024  0.00509180  1
  O2-  O240  1  0.74799364  0.67277609  0.36392799  1
  O2-  O241  1  0.74907367  0.50536109  0.62694404  1
  O2-  O242  1  0.76166010  0.34348282  0.63738230  1
