# generated using pymatgen
data_Gd19Ta56(WO20)8
_symmetry_space_group_name_H-M   'P 1'
_cell_length_a   15.50811977
_cell_length_b   15.43113645
_cell_length_c   15.33062345
_cell_angle_alpha   89.92242643
_cell_angle_beta   89.87264991
_cell_angle_gamma   90.02313182
_symmetry_Int_Tables_number   1
_chemical_formula_structural   Gd19Ta56(WO20)8
_chemical_formula_sum   'Gd19 Ta56 W8 O160'
_cell_volume   3668.72676098
_cell_formula_units_Z   1
loop_
 _symmetry_equiv_pos_site_id
 _symmetry_equiv_pos_as_xyz
  1  'x, y, z'
loop_
 _atom_type_symbol
 _atom_type_oxidation_number
  Gd3+  3.0
  Ta5+  5.0
  W6+  6.0
  O2-  -2.0
loop_
 _atom_site_type_symbol
 _atom_site_label
 _atom_site_symmetry_multiplicity
 _atom_site_fract_x
 _atom_site_fract_y
 _atom_site_fract_z
 _atom_site_occupancy
  Gd3+  Gd0  1  -0.00351326  0.74553630  0.50189981  1
  Gd3+  Gd1  1  0.48931003  0.75077238  0.74471634  1
  Gd3+  Gd2  1  0.51948409  0.25856372  0.25184901  1
  Gd3+  Gd3  1  0.75561500  0.74392359  0.27227281  1
  Gd3+  Gd4  1  0.26438071  0.25134873  0.25817505  1
  Gd3+  Gd5  1  0.47587861  0.74760187  0.03680879  1
  Gd3+  Gd6  1  -0.01372212  0.25332939  0.00721233  1
  Gd3+  Gd7  1  0.23676287  0.75200430  -0.03585142  1
  Gd3+  Gd8  1  0.00517259  0.76167466  0.24583938  1
  Gd3+  Gd9  1  0.52305233  0.25084361  0.77281228  1
  Gd3+  Gd10  1  0.73668309  0.23849814  -0.01326687  1
  Gd3+  Gd11  1  -0.02852838  0.76641809  0.00139418  1
  Gd3+  Gd12  1  0.48575573  0.25316665  0.00951091  1
  Gd3+  Gd13  1  0.77469382  0.24788166  0.51378849  1
  Gd3+  Gd14  1  -0.01382664  0.74904504  0.74652724  1
  Gd3+  Gd15  1  0.02441560  0.26655064  0.72803764  1
  Gd3+  Gd16  1  0.22553906  0.24672217  0.02098311  1
  Gd3+  Gd17  1  0.03230331  0.23816719  0.22313182  1
  Gd3+  Gd18  1  0.77163565  0.25717010  0.24708823  1
  Ta5+  Ta19  1  0.82012772  0.86492461  0.12373197  1
  Ta5+  Ta20  1  0.15006842  0.85844214  0.12682348  1
  Ta5+  Ta21  1  0.64074496  0.12475380  0.38265386  1
  Ta5+  Ta22  1  0.61546818  0.11117111  0.12733123  1
  Ta5+  Ta23  1  0.11422833  0.12325097  0.41084028  1
  Ta5+  Ta24  1  0.87503628  0.12047747  0.85081839  1
  Ta5+  Ta25  1  0.31276511  0.62511226  0.38039258  1
  Ta5+  Ta26  1  0.63157617  0.39218492  0.11561678  1
  Ta5+  Ta27  1  0.66154537  0.06128275  0.87153941  1
  Ta5+  Ta28  1  0.65873370  0.38669278  0.38016162  1
  Ta5+  Ta29  1  0.62012349  0.62360057  0.62242019  1
  Ta5+  Ta30  1  0.13125381  0.87623978  0.37809609  1
  Ta5+  Ta31  1  0.88098545  0.62230781  0.36872105  1
  Ta5+  Ta32  1  0.60718764  0.39758634  0.90104648  1
  Ta5+  Ta33  1  0.64807671  0.64407626  0.13124666  1
  Ta5+  Ta34  1  0.09991325  0.61014191  0.87461699  1
  Ta5+  Ta35  1  0.61800175  0.11053737  0.63457433  1
  Ta5+  Ta36  1  0.34834397  0.61888562  0.62675381  1
  Ta5+  Ta37  1  0.15385730  0.37711041  0.87310756  1
  Ta5+  Ta38  1  0.14282567  0.62707381  0.37093700  1
  Ta5+  Ta39  1  0.81881595  0.63518676  0.11610912  1
  Ta5+  Ta40  1  0.37897942  0.12335704  0.61796560  1
  Ta5+  Ta41  1  0.35811317  0.11825957  0.87349184  1
  Ta5+  Ta42  1  0.17518599  0.37181001  0.61207095  1
  Ta5+  Ta43  1  0.68527262  0.88203552  0.39295584  1
  Ta5+  Ta44  1  0.35025264  0.62089223  0.86475610  1
  Ta5+  Ta45  1  0.34263148  0.36886738  0.62371141  1
  Ta5+  Ta46  1  0.86482026  0.62768961  0.62082930  1
  Ta5+  Ta47  1  0.63861320  0.86468784  0.62386646  1
  Ta5+  Ta48  1  0.90942576  0.38046647  0.38951729  1
  Ta5+  Ta49  1  0.36308358  0.87681366  0.61911493  1
  Ta5+  Ta50  1  0.39618487  0.40186846  0.13350291  1
  Ta5+  Ta51  1  0.11381637  0.38021582  0.37927331  1
  Ta5+  Ta52  1  0.13788667  0.42406728  0.12521430  1
  Ta5+  Ta53  1  0.63573595  0.63470271  0.39047689  1
  Ta5+  Ta54  1  0.61222807  0.87292710  0.88618795  1
  Ta5+  Ta55  1  0.39860470  0.38628057  0.38051417  1
  Ta5+  Ta56  1  0.40060460  0.10595637  0.13202247  1
  Ta5+  Ta57  1  0.11392200  0.61252081  0.62215573  1
  Ta5+  Ta58  1  0.31476806  0.62760056  0.13335557  1
  Ta5+  Ta59  1  0.64394027  0.37246114  0.64123731  1
  Ta5+  Ta60  1  0.14591842  0.62876105  0.12802774  1
  Ta5+  Ta61  1  0.65191314  0.86130593  0.13795583  1
  Ta5+  Ta62  1  0.11702838  0.05650587  0.12005623  1
  Ta5+  Ta63  1  0.86724030  0.11158119  0.12174975  1
  Ta5+  Ta64  1  0.93372481  0.11783127  0.60070692  1
  Ta5+  Ta65  1  0.90870576  0.12067502  0.37833608  1
  Ta5+  Ta66  1  0.10695132  0.88103779  0.87090282  1
  Ta5+  Ta67  1  0.85744484  0.87996878  0.37713300  1
  Ta5+  Ta68  1  0.88083698  0.38393037  0.63530905  1
  Ta5+  Ta69  1  0.85373365  0.88158211  0.87014992  1
  Ta5+  Ta70  1  0.11369901  0.12746540  0.87446592  1
  Ta5+  Ta71  1  0.36213228  0.37936086  0.87501128  1
  Ta5+  Ta72  1  0.31664479  0.87308480  0.13279472  1
  Ta5+  Ta73  1  0.12848547  0.88167235  0.62319764  1
  Ta5+  Ta74  1  0.39783316  0.11496950  0.37187623  1
  W6+  W75  1  0.36154003  0.86805959  0.37881384  1
  W6+  W76  1  0.37014505  0.87969022  0.86959302  1
  W6+  W77  1  0.86699194  0.39538276  0.08192985  1
  W6+  W78  1  0.60770525  0.64454024  0.88404747  1
  W6+  W79  1  0.86682986  0.89517327  0.61339218  1
  W6+  W80  1  0.93146385  0.42779937  0.89431527  1
  W6+  W81  1  0.15081576  0.13395845  0.61954009  1
  W6+  W82  1  0.85083386  0.62164986  0.87553939  1
  O2-  O83  1  0.04972462  -0.04215972  0.13962018  1
  O2-  O84  1  0.13813799  0.00710637  0.38063259  1
  O2-  O85  1  0.14518238  -0.00124899  0.62799591  1
  O2-  O86  1  0.10574600  0.00557307  0.87069260  1
  O2-  O87  1  0.06190462  0.51395458  0.13745463  1
  O2-  O88  1  0.12474788  0.50074436  0.36515066  1
  O2-  O89  1  0.13827437  0.49163961  0.62189768  1
  O2-  O90  1  0.14504376  0.49716335  0.85438879  1
  O2-  O91  1  0.38169748  -0.01029307  0.11950158  1
  O2-  O92  1  0.40521075  -0.00280081  0.37263709  1
  O2-  O93  1  0.34452431  0.00063086  0.61315013  1
  O2-  O94  1  0.38476492  0.00830299  0.90707213  1
  O2-  O95  1  0.39235476  0.51766856  0.10972662  1
  O2-  O96  1  0.37047269  0.50222611  0.38113460  1
  O2-  O97  1  0.35860797  0.49182505  0.62031772  1
  O2-  O98  1  0.34107371  0.49630385  0.89512874  1
  O2-  O99  1  0.63786207  -0.00545623  0.14281923  1
  O2-  O100  1  0.68421494  0.01417476  0.37438807  1
  O2-  O101  1  0.65147751  -0.00464252  0.64685499  1
  O2-  O102  1  0.56163417  -0.01064743  0.87833789  1
  O2-  O103  1  0.64169511  0.51145665  0.13214118  1
  O2-  O104  1  0.65005203  0.50458341  0.38259300  1
  O2-  O105  1  0.62372862  0.49266952  0.62990539  1
  O2-  O106  1  0.62311363  0.51253342  0.88030794  1
  O2-  O107  1  0.84470383  -0.00442703  0.11468635  1
  O2-  O108  1  0.87680120  0.00408923  0.37892163  1
  O2-  O109  1  0.95330633  -0.00029611  0.60825510  1
  O2-  O110  1  0.87898405  0.00832546  0.88519113  1
  O2-  O111  1  0.83234203  0.51463999  0.10295651  1
  O2-  O112  1  0.91018213  0.50187409  0.37801790  1
  O2-  O113  1  0.85190733  0.50096296  0.62489279  1
  O2-  O114  1  0.98399070  0.56766793  0.89013907  1
  O2-  O115  1  0.10053740  0.29307891  0.10439149  1
  O2-  O116  1  0.13672951  0.24156181  0.35259805  1
  O2-  O117  1  0.11123207  0.26395261  0.60781090  1
  O2-  O118  1  0.11085193  0.25822683  0.91647092  1
  O2-  O119  1  0.07184265  0.74614755  0.11331362  1
  O2-  O120  1  0.09069332  0.75304871  0.38257479  1
  O2-  O121  1  0.08601190  0.75176991  0.62261145  1
  O2-  O122  1  0.07865690  0.74362302  0.88119824  1
  O2-  O123  1  0.40824307  0.25053025  0.15088195  1
  O2-  O124  1  0.38628481  0.25376416  0.34336991  1
  O2-  O125  1  0.39531972  0.24655302  0.64017590  1
  O2-  O126  1  0.41725077  0.23074300  0.87875875  1
  O2-  O127  1  0.36261118  0.74797483  0.13713547  1
  O2-  O128  1  0.31792542  0.74564987  0.37949043  1
  O2-  O129  1  0.38921960  0.74129119  0.63816538  1
  O2-  O130  1  0.37466560  0.74533777  0.84785506  1
  O2-  O131  1  0.59939001  0.25123495  0.11047957  1
  O2-  O132  1  0.69792911  0.23811233  0.38863226  1
  O2-  O133  1  0.60272045  0.24925434  0.64088203  1
  O2-  O134  1  0.60018920  0.26051138  0.90499921  1
  O2-  O135  1  0.57616148  0.75709663  0.14808335  1
  O2-  O136  1  0.67549137  0.74949117  0.41074366  1
  O2-  O137  1  0.58033876  0.75194893  0.61645010  1
  O2-  O138  1  0.54405121  0.76694108  0.89343456  1
  O2-  O139  1  0.90209212  0.26719124  0.13898938  1
  O2-  O140  1  0.87850097  0.24582292  0.38353001  1
  O2-  O141  1  0.92097992  0.25394337  0.61731037  1
  O2-  O142  1  0.98836277  0.16627809  0.87831707  1
  O2-  O143  1  0.89239708  0.75062152  0.13824357  1
  O2-  O144  1  0.90451848  0.75143064  0.35980758  1
  O2-  O145  1  0.90131135  0.75412834  0.62552400  1
  O2-  O146  1  0.88262047  0.75520741  0.86052033  1
  O2-  O147  1  0.13151556  0.11813475  0.01058793  1
  O2-  O148  1  0.16102508  0.14421793  0.19644595  1
  O2-  O149  1  0.19954918  0.14126167  0.49068379  1
  O2-  O150  1  0.11021383  0.14818582  0.75314516  1
  O2-  O151  1  0.13474776  0.62680513  -0.00260928  1
  O2-  O152  1  0.10767458  0.64919460  0.24949714  1
  O2-  O153  1  0.13936301  0.63272240  0.50063890  1
  O2-  O154  1  0.08006101  0.63143177  0.74833577  1
  O2-  O155  1  0.34433600  0.15035280  0.02207341  1
  O2-  O156  1  0.34073847  0.11940634  0.25257589  1
  O2-  O157  1  0.37241432  0.13633887  0.48982823  1
  O2-  O158  1  0.37932411  0.11251565  0.75252853  1
  O2-  O159  1  0.35646064  0.64998852  -0.00585597  1
  O2-  O160  1  0.32383792  0.61568140  0.25315886  1
  O2-  O161  1  0.34982018  0.62599606  0.50598413  1
  O2-  O162  1  0.40261591  0.60494779  0.75139325  1
  O2-  O163  1  0.65956895  0.09987180  -0.01200660  1
  O2-  O164  1  0.65107639  0.15474658  0.25646056  1
  O2-  O165  1  0.65569820  0.13256844  0.51464270  1
  O2-  O166  1  0.60755199  0.12506253  0.76845343  1
  O2-  O167  1  0.59451747  0.65264191  0.01796304  1
  O2-  O168  1  0.64014901  0.64304445  0.26500766  1
  O2-  O169  1  0.57728850  0.61831984  0.50506211  1
  O2-  O170  1  0.58753124  0.63626218  0.74223237  1
  O2-  O171  1  0.86525328  0.14683928  -0.00341575  1
  O2-  O172  1  0.85783177  0.13070980  0.25249155  1
  O2-  O173  1  0.84826966  0.12237500  0.50534171  1
  O2-  O174  1  0.89962536  0.12270565  0.72906412  1
  O2-  O175  1  0.86806114  0.65962727  -0.00108790  1
  O2-  O176  1  0.84392381  0.62112013  0.24589293  1
  O2-  O177  1  0.85595781  0.64197755  0.49076522  1
  O2-  O178  1  0.88307790  0.62904340  0.74495410  1
  O2-  O179  1  0.17792796  0.40008907  0.00586509  1
  O2-  O180  1  0.16129375  0.37202993  0.24318813  1
  O2-  O181  1  0.18614479  0.37126067  0.47726125  1
  O2-  O182  1  0.14514184  0.35383117  0.74839452  1
  O2-  O183  1  0.12890277  0.86342546  -0.00420888  1
  O2-  O184  1  0.12994248  0.85912512  0.25634428  1
  O2-  O185  1  0.08939989  0.87721980  0.50394784  1
  O2-  O186  1  0.07926979  0.87145831  0.74268632  1
  O2-  O187  1  0.36490910  0.35214365  0.01853325  1
  O2-  O188  1  0.34458852  0.38535426  0.24798319  1
  O2-  O189  1  0.37398348  0.35752774  0.49473362  1
  O2-  O190  1  0.34650194  0.37358355  0.75446089  1
  O2-  O191  1  0.35052038  0.84494250  0.00157146  1
  O2-  O192  1  0.32441686  0.87738735  0.25289618  1
  O2-  O193  1  0.40769440  0.86524272  0.50800635  1
  O2-  O194  1  0.41655629  0.88521960  0.73279541  1
  O2-  O195  1  0.69207512  0.38139482  -0.00750142  1
  O2-  O196  1  0.64268907  0.34641791  0.25743593  1
  O2-  O197  1  0.66069533  0.35906489  0.50558852  1
  O2-  O198  1  0.62268939  0.36692643  0.76716915  1
  O2-  O199  1  0.62987166  0.86545974  0.00800589  1
  O2-  O200  1  0.65584381  0.86317924  0.27265628  1
  O2-  O201  1  0.62113794  0.89465684  0.50467817  1
  O2-  O202  1  0.60833396  0.85396324  0.75404576  1
  O2-  O203  1  0.86041521  0.31985244  -0.04038709  1
  O2-  O204  1  0.78165514  0.38157407  0.34849054  1
  O2-  O205  1  0.85465897  0.36989566  0.50730886  1
  O2-  O206  1  0.92881740  0.38365414  0.75040658  1
  O2-  O207  1  0.83617681  0.85405599  -0.00366670  1
  O2-  O208  1  0.85329115  0.87379896  0.24903439  1
  O2-  O209  1  0.90746586  0.86249609  0.49280069  1
  O2-  O210  1  0.86295310  0.89042404  0.74806520  1
  O2-  O211  1  -0.00525114  0.12467642  0.12013512  1
  O2-  O212  1  0.01485570  0.12243498  0.31511773  1
  O2-  O213  1  0.00630232  0.13108098  0.47987460  1
  O2-  O214  1  -0.01932408  -0.11997271  0.89738577  1
  O2-  O215  1  -0.01772338  0.40647165  0.01780131  1
  O2-  O216  1  -0.00483297  0.35862978  0.29772831  1
  O2-  O217  1  0.01638366  0.37128069  0.45801969  1
  O2-  O218  1  -0.00939098  0.60851714  0.59326031  1
  O2-  O219  1  0.23893984  0.13197083  -0.12276116  1
  O2-  O220  1  0.21670936  -0.02190486  0.11531373  1
  O2-  O221  1  0.24448347  -0.15587591  0.62357039  1
  O2-  O222  1  0.22851130  -0.14421030  0.85383050  1
  O2-  O223  1  0.26175072  0.30454267  -0.11093052  1
  O2-  O224  1  0.22647942  0.51590301  0.13211412  1
  O2-  O225  1  0.23490706  0.63971466  0.65626928  1
  O2-  O226  1  0.23145203  0.64607656  0.85499663  1
  O2-  O227  1  0.50761108  0.11249595  0.05238628  1
  O2-  O228  1  0.50631738  0.11305250  0.20919688  1
  O2-  O229  1  0.51973000  0.14587606  0.38417554  1
  O2-  O230  1  0.50076328  0.09748305  0.61382593  1
  O2-  O231  1  0.53876688  0.39568422  0.01931836  1
  O2-  O232  1  0.51012664  0.39269732  0.17848634  1
  O2-  O233  1  0.52111632  0.37025271  0.37471941  1
  O2-  O234  1  0.48532571  0.38068761  0.86087791  1
  O2-  O235  1  0.72532092  -0.04838835  -0.13248957  1
  O2-  O236  1  0.74424899  0.15838678  0.12025448  1
  O2-  O237  1  0.74950013  -0.16961032  0.61867855  1
  O2-  O238  1  0.75620531  0.15745655  0.85396560  1
  O2-  O239  1  0.82378888  0.49861179  -0.11217752  1
  O2-  O240  1  0.75012699  0.34720550  0.13379188  1
  O2-  O241  1  0.73753414  0.64055664  0.62259961  1
  O2-  O242  1  0.76216748  0.34112783  0.65465022  1
