# generated using pymatgen
data_Gd19Ta56(WO20)8
_symmetry_space_group_name_H-M   'P 1'
_cell_length_a   15.59853610
_cell_length_b   15.51241290
_cell_length_c   15.28988739
_cell_angle_alpha   89.95751630
_cell_angle_beta   89.96415294
_cell_angle_gamma   89.98197637
_symmetry_Int_Tables_number   1
_chemical_formula_structural   Gd19Ta56(WO20)8
_chemical_formula_sum   'Gd19 Ta56 W8 O160'
_cell_volume   3699.70638543
_cell_formula_units_Z   1
loop_
 _symmetry_equiv_pos_site_id
 _symmetry_equiv_pos_as_xyz
  1  'x, y, z'
loop_
 _atom_type_symbol
 _atom_type_oxidation_number
  Gd3+  3.0
  Ta5+  5.0
  W6+  6.0
  O2-  -2.0
loop_
 _atom_site_type_symbol
 _atom_site_label
 _atom_site_symmetry_multiplicity
 _atom_site_fract_x
 _atom_site_fract_y
 _atom_site_fract_z
 _atom_site_occupancy
  Gd3+  Gd0  1  0.26465533  0.75561441  0.74988512  1
  Gd3+  Gd1  1  0.22643754  0.73929672  0.01327239  1
  Gd3+  Gd2  1  0.52929998  0.24816059  0.74871549  1
  Gd3+  Gd3  1  0.50865558  0.73975395  0.26478447  1
  Gd3+  Gd4  1  0.70900507  0.76065759  0.72553400  1
  Gd3+  Gd5  1  0.00031606  0.25517020  0.23358755  1
  Gd3+  Gd6  1  0.78484421  0.26101549  0.00480327  1
  Gd3+  Gd7  1  0.76044936  0.74697770  0.24466222  1
  Gd3+  Gd8  1  0.76908881  0.26098647  0.74134777  1
  Gd3+  Gd9  1  0.24348463  0.23376645  0.74969880  1
  Gd3+  Gd10  1  0.47683987  0.74263167  0.00014630  1
  Gd3+  Gd11  1  0.48963439  0.24283075  0.26400596  1
  Gd3+  Gd12  1  0.24137163  0.23637114  0.50708940  1
  Gd3+  Gd13  1  0.75615942  0.74360073  -0.02122117  1
  Gd3+  Gd14  1  0.04218842  0.75030988  0.71963268  1
  Gd3+  Gd15  1  0.51115665  0.26271027  0.49633305  1
  Gd3+  Gd16  1  0.76408242  0.24161805  0.50582577  1
  Gd3+  Gd17  1  0.24862151  0.24615159  0.25115496  1
  Gd3+  Gd18  1  0.76984906  0.26931835  0.24839416  1
  Ta5+  Ta19  1  0.94244521  0.64815934  0.34598636  1
  Ta5+  Ta20  1  0.62668532  0.87749247  0.11242414  1
  Ta5+  Ta21  1  0.64931311  0.10778279  0.32404835  1
  Ta5+  Ta22  1  0.12004104  0.38513283  0.62760009  1
  Ta5+  Ta23  1  0.10519900  0.63693534  0.37614196  1
  Ta5+  Ta24  1  0.59615149  0.62312028  0.87245377  1
  Ta5+  Ta25  1  0.88031583  0.10654331  0.37699358  1
  Ta5+  Ta26  1  0.87375780  0.40420029  0.60655949  1
  Ta5+  Ta27  1  0.63668328  0.60913753  0.39702880  1
  Ta5+  Ta28  1  0.39330999  0.36180194  0.89021712  1
  Ta5+  Ta29  1  0.37516192  0.37218974  0.63844736  1
  Ta5+  Ta30  1  0.87376127  0.86790348  0.37389910  1
  Ta5+  Ta31  1  0.37383679  0.08160579  0.13462137  1
  Ta5+  Ta32  1  0.38399628  0.11121906  0.63713616  1
  Ta5+  Ta33  1  0.36128011  0.61379102  0.14272109  1
  Ta5+  Ta34  1  0.63079295  0.11075787  0.62419345  1
  Ta5+  Ta35  1  0.37484966  0.38245674  0.38078724  1
  Ta5+  Ta36  1  0.35907240  0.88099668  0.88196386  1
  Ta5+  Ta37  1  0.55839127  0.87746686  0.62940364  1
  Ta5+  Ta38  1  0.35471689  0.60785340  0.88309286  1
  Ta5+  Ta39  1  0.62793430  0.40832674  0.35716625  1
  Ta5+  Ta40  1  0.07820490  0.12562082  0.62756048  1
  Ta5+  Ta41  1  0.36735947  0.88543947  0.13919667  1
  Ta5+  Ta42  1  0.92682166  0.05082123  0.07115945  1
  Ta5+  Ta43  1  0.64050731  0.12421057  0.88432189  1
  Ta5+  Ta44  1  0.88119033  0.86954903  0.10781178  1
  Ta5+  Ta45  1  0.13539191  0.11415181  0.12761322  1
  Ta5+  Ta46  1  0.36003757  0.63013266  0.37533564  1
  Ta5+  Ta47  1  0.14004641  0.38443117  0.11904485  1
  Ta5+  Ta48  1  0.09586627  0.87000999  0.13419392  1
  Ta5+  Ta49  1  0.62412010  0.86778036  0.38572701  1
  Ta5+  Ta50  1  0.86674009  0.87654915  0.84154173  1
  Ta5+  Ta51  1  0.90359303  0.39414659  0.85173990  1
  Ta5+  Ta52  1  0.07788469  0.61465135  0.12469269  1
  Ta5+  Ta53  1  0.87228056  0.88406695  0.62588405  1
  Ta5+  Ta54  1  0.32024875  0.85925998  0.37748631  1
  Ta5+  Ta55  1  0.12029048  0.61894153  0.87316226  1
  Ta5+  Ta56  1  0.82354298  0.43706982  0.36809904  1
  Ta5+  Ta57  1  0.88878336  0.65238039  0.59146131  1
  Ta5+  Ta58  1  0.91324975  0.41526996  0.10417891  1
  Ta5+  Ta59  1  0.15285764  0.89002634  0.60876633  1
  Ta5+  Ta60  1  0.15334404  0.84440567  0.37292149  1
  Ta5+  Ta61  1  0.11084279  0.12889600  0.88325083  1
  Ta5+  Ta62  1  0.37592366  0.36372751  0.12061912  1
  Ta5+  Ta63  1  0.12196215  0.37144850  0.87140715  1
  Ta5+  Ta64  1  0.39766991  0.12224973  0.89665384  1
  Ta5+  Ta65  1  0.12124587  0.09031358  0.38015488  1
  Ta5+  Ta66  1  0.13756883  0.39011012  0.37405341  1
  Ta5+  Ta67  1  0.60094056  0.88012901  0.88919932  1
  Ta5+  Ta68  1  0.17708567  0.62828076  0.61014082  1
  Ta5+  Ta69  1  0.54196723  0.63156603  0.62779436  1
  Ta5+  Ta70  1  0.63543560  0.38068602  0.88285815  1
  Ta5+  Ta71  1  0.62420292  0.39651107  0.61736524  1
  Ta5+  Ta72  1  0.36462325  0.10063938  0.38598352  1
  Ta5+  Ta73  1  0.85750632  0.61233804  0.10340227  1
  Ta5+  Ta74  1  0.38915334  0.87448478  0.61385623  1
  W6+  W75  1  0.91498292  0.13338481  0.62207333  1
  W6+  W76  1  0.89614847  0.64054023  0.84626100  1
  W6+  W77  1  0.12793785  0.87950029  0.87872491  1
  W6+  W78  1  0.37738032  0.62361707  0.62778853  1
  W6+  W79  1  0.63341567  0.38233010  0.12115962  1
  W6+  W80  1  0.87461963  0.12622691  0.86895309  1
  W6+  W81  1  0.64996300  0.12474659  0.11411627  1
  W6+  W82  1  0.62193378  0.61712888  0.13121057  1
  O2-  O83  1  0.13389433  -0.00315166  0.14589437  1
  O2-  O84  1  0.16032935  -0.01948522  0.36997837  1
  O2-  O85  1  0.10357207  0.00886289  0.61503069  1
  O2-  O86  1  0.11293022  0.01087687  0.87817528  1
  O2-  O87  1  0.14519854  0.50960092  0.12926844  1
  O2-  O88  1  0.10543311  0.50426550  0.37533687  1
  O2-  O89  1  0.15559460  0.49989547  0.62135875  1
  O2-  O90  1  0.12367869  0.49224339  0.86280330  1
  O2-  O91  1  0.44477701  -0.02210600  0.16931950  1
  O2-  O92  1  0.34168755  -0.01513905  0.37350226  1
  O2-  O93  1  0.42153458  -0.00170244  0.64389145  1
  O2-  O94  1  0.35382980  0.00603501  0.89438281  1
  O2-  O95  1  0.35907299  0.49296949  0.13641934  1
  O2-  O96  1  0.35005581  0.49890078  0.37199360  1
  O2-  O97  1  0.36686122  0.48789514  0.63957683  1
  O2-  O98  1  0.36807762  0.48268939  0.88782651  1
  O2-  O99  1  0.64588004  -0.00698226  0.12680746  1
  O2-  O100  1  0.63027096  -0.00389695  0.36099379  1
  O2-  O101  1  0.59990279  -0.00154147  0.64531636  1
  O2-  O102  1  0.60985444  0.00274858  0.88100024  1
  O2-  O103  1  0.58082122  0.49440722  0.14289446  1
  O2-  O104  1  0.56560574  0.51839232  0.35484724  1
  O2-  O105  1  0.58592795  0.50632108  0.64183358  1
  O2-  O106  1  0.61370489  0.50281474  0.86475151  1
  O2-  O107  1  0.82898597  -0.01411484  0.10293061  1
  O2-  O108  1  0.84138519  -0.00675025  0.37168745  1
  O2-  O109  1  0.90392433  -0.00269608  0.62194389  1
  O2-  O110  1  0.87534142  -0.00649837  0.85666987  1
  O2-  O111  1  0.82314577  0.48738886  0.13175350  1
  O2-  O112  1  0.89822131  0.52975647  0.35626170  1
  O2-  O113  1  0.87225743  0.52687879  0.60201863  1
  O2-  O114  1  0.93119260  0.50923925  0.84854289  1
  O2-  O115  1  0.12851592  0.25632615  0.14543286  1
  O2-  O116  1  0.05518895  0.30542950  0.35991991  1
  O2-  O117  1  0.14598435  0.25006263  0.62722804  1
  O2-  O118  1  0.17162371  0.25290512  0.87858701  1
  O2-  O119  1  0.09626241  0.73968347  0.12092127  1
  O2-  O120  1  0.17438091  0.72593462  0.33048329  1
  O2-  O121  1  0.17660633  0.75540273  0.62084815  1
  O2-  O122  1  0.14934080  0.74509429  0.87441870  1
  O2-  O123  1  0.39862323  0.24203785  0.14143259  1
  O2-  O124  1  0.40010836  0.23306089  0.39179807  1
  O2-  O125  1  0.33346370  0.24291810  0.62424425  1
  O2-  O126  1  0.35132969  0.24018453  0.90682384  1
  O2-  O127  1  0.41844824  0.75639105  0.14339894  1
  O2-  O128  1  0.38389924  0.75017379  0.34586533  1
  O2-  O129  1  0.36608270  0.75731452  0.64138820  1
  O2-  O130  1  0.33347027  0.74724268  0.88652368  1
  O2-  O131  1  0.68943136  0.25916110  0.11810642  1
  O2-  O132  1  0.58137517  0.18709028  0.39293980  1
  O2-  O133  1  0.64377878  0.25202016  0.60032086  1
  O2-  O134  1  0.66335594  0.25434766  0.88049965  1
  O2-  O135  1  0.65752303  0.75219738  0.12008054  1
  O2-  O136  1  0.59844677  0.74137820  0.38779658  1
  O2-  O137  1  0.57384867  0.75220995  0.62135004  1
  O2-  O138  1  0.63079237  0.74917424  0.88701674  1
  O2-  O139  1  0.86666630  0.30337389  0.13064419  1
  O2-  O140  1  0.72842760  0.33437832  0.39654985  1
  O2-  O141  1  0.85850765  0.27228704  0.61935400  1
  O2-  O142  1  0.84638079  0.27179970  0.86784742  1
  O2-  O143  1  0.83632511  0.75294032  0.11023091  1
  O2-  O144  1  0.85978824  0.74463956  0.36241094  1
  O2-  O145  1  0.81690786  0.75278634  0.61680285  1
  O2-  O146  1  0.80971396  0.75415512  0.83571183  1
  O2-  O147  1  0.15093200  0.13034776  0.00702067  1
  O2-  O148  1  0.11933966  0.14852244  0.26644943  1
  O2-  O149  1  0.12236638  0.14496289  0.49605234  1
  O2-  O150  1  0.12176049  0.14128470  0.75225122  1
  O2-  O151  1  0.08568607  0.62310767  -0.00331817  1
  O2-  O152  1  0.04349654  0.62449355  0.25136962  1
  O2-  O153  1  0.12745132  0.63918971  0.49983695  1
  O2-  O154  1  0.14220939  0.63234622  0.74260738  1
  O2-  O155  1  0.41930613  0.11238318  0.02440673  1
  O2-  O156  1  0.38926134  0.12050522  0.25972937  1
  O2-  O157  1  0.34642182  0.11124189  0.51385439  1
  O2-  O158  1  0.37217149  0.13761307  0.76374102  1
  O2-  O159  1  0.38187149  0.63209928  0.01831622  1
  O2-  O160  1  0.42316436  0.61594991  0.25442276  1
  O2-  O161  1  0.38451924  0.63679074  0.49033381  1
  O2-  O162  1  0.33301169  0.62123907  0.76318897  1
  O2-  O163  1  0.70672867  0.12636101  -0.01297349  1
  O2-  O164  1  0.72833331  0.12581829  0.22601122  1
  O2-  O165  1  0.72418749  0.10474985  0.55182782  1
  O2-  O166  1  0.64525552  0.15039564  0.74866542  1
  O2-  O167  1  0.57677679  0.63112552  0.00128402  1
  O2-  O168  1  0.65964463  0.64006711  0.26821693  1
  O2-  O169  1  0.58322938  0.61593252  0.50826296  1
  O2-  O170  1  0.60101719  0.64604527  0.74585387  1
  O2-  O171  1  0.87469017  0.14446372  0.01440655  1
  O2-  O172  1  0.88950103  0.17557403  0.27559003  1
  O2-  O173  1  0.89569582  0.16703798  0.48285312  1
  O2-  O174  1  0.84897713  0.14079106  0.74006363  1
  O2-  O175  1  0.88084752  0.64307829  -0.01572870  1
  O2-  O176  1  0.86244787  0.64183812  0.22760016  1
  O2-  O177  1  0.93766881  0.65631850  0.48114727  1
  O2-  O178  1  0.93343131  0.65502339  0.70939120  1
  O2-  O179  1  0.10487052  0.37431002  -0.00096320  1
  O2-  O180  1  0.17633515  0.38021457  0.25109285  1
  O2-  O181  1  0.14812229  0.36602416  0.50428368  1
  O2-  O182  1  0.17164691  0.36704465  0.74543556  1
  O2-  O183  1  0.15343304  0.86500401  0.01694615  1
  O2-  O184  1  0.09491832  0.86092482  0.25528263  1
  O2-  O185  1  0.11828591  0.85781078  0.49303611  1
  O2-  O186  1  0.13182180  0.87018587  0.73756597  1
  O2-  O187  1  0.43315528  0.36821331  0.01317658  1
  O2-  O188  1  0.36377878  0.35387987  0.25487851  1
  O2-  O189  1  0.38313837  0.36199324  0.50630509  1
  O2-  O190  1  0.35990129  0.34334390  0.76457293  1
  O2-  O191  1  0.34444360  0.84282054  0.01670845  1
  O2-  O192  1  0.30528438  0.86467659  0.23991939  1
  O2-  O193  1  0.37385268  0.85713484  0.49096985  1
  O2-  O194  1  0.34746908  0.87964377  0.75921831  1
  O2-  O195  1  0.69163585  0.38941189  -0.00797138  1
  O2-  O196  1  0.61190630  0.33062888  0.25664369  1
  O2-  O197  1  0.59901697  0.38646536  0.49168014  1
  O2-  O198  1  0.64012399  0.35479869  0.74475696  1
  O2-  O199  1  0.53209880  0.87565382  0.03592676  1
  O2-  O200  1  0.60411834  0.85564561  0.24556460  1
  O2-  O201  1  0.59294791  0.88408093  0.50262578  1
  O2-  O202  1  0.60474605  0.86348331  0.76078687  1
  O2-  O203  1  0.90548267  0.39269387  -0.01602835  1
  O2-  O204  1  0.88251744  0.35595915  0.29856808  1
  O2-  O205  1  0.86785485  0.38995480  0.48104416  1
  O2-  O206  1  0.84712001  0.39287869  0.73963467  1
  O2-  O207  1  0.87392358  0.85153654  -0.03211310  1
  O2-  O208  1  0.87698297  0.86912830  0.23819699  1
  O2-  O209  1  0.88711290  0.86649802  0.49984415  1
  O2-  O210  1  0.94152684  0.85037819  0.73560097  1
  O2-  O211  1  -0.00714354  -0.06598329  0.08867714  1
  O2-  O212  1  0.00767917  0.12744061  0.13333276  1
  O2-  O213  1  0.00156859  0.07462738  0.37658004  1
  O2-  O214  1  0.00106956  0.16498104  0.89694797  1
  O2-  O215  1  -0.02803957  0.54473413  0.10753409  1
  O2-  O216  1  0.01848824  0.38772416  0.16669885  1
  O2-  O217  1  0.00015067  0.39176559  0.62631670  1
  O2-  O218  1  0.01265602  0.34262239  0.82906657  1
  O2-  O219  1  0.30384714  -0.01123750  0.09703603  1
  O2-  O220  1  0.25867413  0.13810871  0.15239015  1
  O2-  O221  1  0.24491563  0.15342338  0.37368545  1
  O2-  O222  1  0.26466525  -0.07579963  0.60848908  1
  O2-  O223  1  0.25966037  0.35251001  0.09041657  1
  O2-  O224  1  0.25002609  0.65539166  0.13979700  1
  O2-  O225  1  0.25523538  0.33061862  0.38749619  1
  O2-  O226  1  0.23742460  0.60789628  0.92646823  1
  O2-  O227  1  0.47869434  -0.14986284  -0.11740977  1
  O2-  O228  1  0.56870811  0.12896362  0.22871108  1
  O2-  O229  1  0.50354079  0.16016291  0.61722156  1
  O2-  O230  1  0.51369211  0.15249020  0.86859527  1
  O2-  O231  1  0.47375924  0.64454755  -0.13128672  1
  O2-  O232  1  0.49705859  0.36526296  0.36633967  1
  O2-  O233  1  0.50023045  0.34236333  0.63533745  1
  O2-  O234  1  0.51055168  0.35110329  0.85587846  1
  O2-  O235  1  0.68744988  -0.12473653  -0.01259822  1
  O2-  O236  1  0.75531815  0.15666482  0.38140199  1
  O2-  O237  1  0.74235527  -0.14574880  0.37587728  1
  O2-  O238  1  0.78840187  -0.11244115  0.72883798  1
  O2-  O239  1  0.73956115  0.61655295  0.06917696  1
  O2-  O240  1  0.72837930  0.44220055  0.28007188  1
  O2-  O241  1  0.72050872  0.52142694  0.42356169  1
  O2-  O242  1  0.74368278  0.40130351  0.60197420  1
