# generated using pymatgen
data_Gd19Ta56(WO20)8
_symmetry_space_group_name_H-M   'P 1'
_cell_length_a   15.48908079
_cell_length_b   15.43486626
_cell_length_c   15.41349968
_cell_angle_alpha   89.90192625
_cell_angle_beta   89.80190163
_cell_angle_gamma   90.00462482
_symmetry_Int_Tables_number   1
_chemical_formula_structural   Gd19Ta56(WO20)8
_chemical_formula_sum   'Gd19 Ta56 W8 O160'
_cell_volume   3684.90707082
_cell_formula_units_Z   1
loop_
 _symmetry_equiv_pos_site_id
 _symmetry_equiv_pos_as_xyz
  1  'x, y, z'
loop_
 _atom_type_symbol
 _atom_type_oxidation_number
  Gd3+  3.0
  Ta5+  5.0
  W6+  6.0
  O2-  -2.0
loop_
 _atom_site_type_symbol
 _atom_site_label
 _atom_site_symmetry_multiplicity
 _atom_site_fract_x
 _atom_site_fract_y
 _atom_site_fract_z
 _atom_site_occupancy
  Gd3+  Gd0  1  0.73439418  0.72570423  0.76365216  1
  Gd3+  Gd1  1  0.26156869  0.73573314  -0.01227861  1
  Gd3+  Gd2  1  0.50077528  0.25772616  -0.00241182  1
  Gd3+  Gd3  1  0.49645597  0.23649362  0.50312126  1
  Gd3+  Gd4  1  0.27006185  0.25390645  0.24372536  1
  Gd3+  Gd5  1  0.48475160  0.74526166  0.26665106  1
  Gd3+  Gd6  1  0.75673916  0.24118411  0.71034633  1
  Gd3+  Gd7  1  -0.04936167  0.76772763  0.46169835  1
  Gd3+  Gd8  1  0.75927534  0.24101717  0.28429197  1
  Gd3+  Gd9  1  0.73491456  0.74863860  0.22463710  1
  Gd3+  Gd10  1  -0.02887902  0.77157259  0.73055224  1
  Gd3+  Gd11  1  0.75844410  0.72876511  0.00309985  1
  Gd3+  Gd12  1  0.01460865  0.24950407  0.50115599  1
  Gd3+  Gd13  1  0.50681817  0.23085892  0.28042459  1
  Gd3+  Gd14  1  0.02962606  0.73288429  -0.02336982  1
  Gd3+  Gd15  1  0.01036020  0.23365492  0.27708721  1
  Gd3+  Gd16  1  0.50761672  0.26239774  0.74885535  1
  Gd3+  Gd17  1  -0.00742454  0.23454077  0.74117676  1
  Gd3+  Gd18  1  0.49759436  0.77139374  0.73172954  1
  Ta5+  Ta19  1  0.64485097  0.86854905  0.61245096  1
  Ta5+  Ta20  1  0.12163186  0.38088635  0.10085190  1
  Ta5+  Ta21  1  0.36871571  0.62176667  0.13389335  1
  Ta5+  Ta22  1  0.40704538  0.39217636  0.12815758  1
  Ta5+  Ta23  1  0.12747039  0.38753850  0.64470831  1
  Ta5+  Ta24  1  0.61687644  0.62981835  0.61532859  1
  Ta5+  Ta25  1  0.87233125  0.38672714  0.38979654  1
  Ta5+  Ta26  1  0.62987385  0.86416534  0.37976943  1
  Ta5+  Ta27  1  0.64232457  0.12139118  0.12842053  1
  Ta5+  Ta28  1  0.79442470  0.88503314  0.36570541  1
  Ta5+  Ta29  1  0.63129554  0.89113738  0.87260016  1
  Ta5+  Ta30  1  0.13622664  0.12601989  0.87365275  1
  Ta5+  Ta31  1  0.37528464  0.12598665  0.87394180  1
  Ta5+  Ta32  1  0.33591193  0.86974146  0.62351285  1
  Ta5+  Ta33  1  0.38951581  0.88067796  0.87794419  1
  Ta5+  Ta34  1  0.63619638  0.39036966  0.87712224  1
  Ta5+  Ta35  1  0.86688819  0.62783496  0.61413230  1
  Ta5+  Ta36  1  0.11873884  0.64000761  0.62355960  1
  Ta5+  Ta37  1  0.87080599  0.35449057  0.88936362  1
  Ta5+  Ta38  1  0.35699842  0.10203885  0.38724565  1
  Ta5+  Ta39  1  0.81441093  0.87342150  0.61339944  1
  Ta5+  Ta40  1  0.14904108  0.12141991  0.63326372  1
  Ta5+  Ta41  1  0.43239628  0.63085994  0.88525488  1
  Ta5+  Ta42  1  0.89024115  0.36202586  0.13395528  1
  Ta5+  Ta43  1  0.16822659  0.65293935  0.38307371  1
  Ta5+  Ta44  1  0.86024472  0.12185402  0.88167413  1
  Ta5+  Ta45  1  0.88829846  0.88097274  0.12829334  1
  Ta5+  Ta46  1  0.39187126  0.11985177  0.12499921  1
  Ta5+  Ta47  1  0.15228171  0.09221034  0.38656603  1
  Ta5+  Ta48  1  0.62843794  0.06790833  0.64258549  1
  Ta5+  Ta49  1  0.59855204  0.88737299  0.11754855  1
  Ta5+  Ta50  1  0.88610171  0.10555974  0.39054217  1
  Ta5+  Ta51  1  0.12709748  0.61758163  0.82955549  1
  Ta5+  Ta52  1  0.62665111  0.38896218  0.37736109  1
  Ta5+  Ta53  1  0.64342756  0.39688267  0.62051298  1
  Ta5+  Ta54  1  0.35709919  0.37875295  0.61498254  1
  Ta5+  Ta55  1  0.17228215  0.40150860  0.41559549  1
  Ta5+  Ta56  1  0.86895182  0.87603240  0.88215302  1
  Ta5+  Ta57  1  0.59622372  0.57221464  0.13132497  1
  Ta5+  Ta58  1  0.88947438  0.61057458  0.13144146  1
  Ta5+  Ta59  1  0.08739363  0.86773838  0.15292524  1
  Ta5+  Ta60  1  0.16629168  0.85184206  0.37129333  1
  Ta5+  Ta61  1  0.84536391  0.05896809  0.62680908  1
  Ta5+  Ta62  1  0.33690618  0.63530561  0.38913505  1
  Ta5+  Ta63  1  0.62040383  0.37350892  0.12806262  1
  Ta5+  Ta64  1  0.38576020  0.39204249  0.86643244  1
  Ta5+  Ta65  1  0.33612596  0.86428266  0.37518759  1
  Ta5+  Ta66  1  0.37823196  0.38627749  0.39025410  1
  Ta5+  Ta67  1  0.09231655  0.62229097  0.16127286  1
  Ta5+  Ta68  1  0.38818991  0.11385982  0.63318811  1
  Ta5+  Ta69  1  0.11899618  0.87966861  0.84737222  1
  Ta5+  Ta70  1  0.14329385  0.37541113  0.86076378  1
  Ta5+  Ta71  1  0.16780123  0.87322081  0.61537964  1
  Ta5+  Ta72  1  0.64294944  0.62858016  0.37343985  1
  Ta5+  Ta73  1  0.64259469  0.12364224  0.87862289  1
  Ta5+  Ta74  1  0.81145310  0.62713063  0.36834532  1
  W6+  W75  1  0.89160967  0.38442517  0.62684685  1
  W6+  W76  1  0.35928098  0.63197662  0.63703181  1
  W6+  W77  1  0.84603366  0.12853777  0.13168628  1
  W6+  W78  1  0.34489868  0.87225548  0.12760489  1
  W6+  W79  1  0.63271747  0.09983447  0.38503107  1
  W6+  W80  1  0.87778411  0.60725674  0.87827578  1
  W6+  W81  1  0.59887246  0.63051527  0.88988563  1
  W6+  W82  1  0.13739906  0.12051906  0.12638754  1
  O2-  O83  1  0.11611423  -0.01922856  0.13081440  1
  O2-  O84  1  0.13199242  -0.02125402  0.34907721  1
  O2-  O85  1  0.15022800  0.00070002  0.62311242  1
  O2-  O86  1  0.13703733  0.00030703  0.87005000  1
  O2-  O87  1  0.12892442  0.50015768  0.13363841  1
  O2-  O88  1  0.15448823  0.51633265  0.39285030  1
  O2-  O89  1  0.12864910  0.50748536  0.63601905  1
  O2-  O90  1  0.15950006  0.49544326  0.83447543  1
  O2-  O91  1  0.35297902  0.00818368  0.12297364  1
  O2-  O92  1  0.37397736  -0.01409021  0.35442579  1
  O2-  O93  1  0.36832554  -0.00477482  0.64093407  1
  O2-  O94  1  0.36308568  0.00458435  0.87149355  1
  O2-  O95  1  0.34059469  0.49739563  0.13399496  1
  O2-  O96  1  0.36258540  0.50633794  0.37770384  1
  O2-  O97  1  0.36004319  0.49709296  0.62776054  1
  O2-  O98  1  0.38006206  0.51109759  0.86823918  1
  O2-  O99  1  0.64307733  -0.00272911  0.15199184  1
  O2-  O100  1  0.69063659  -0.02274107  0.35381114  1
  O2-  O101  1  0.56952592  -0.03434870  0.66625396  1
  O2-  O102  1  0.67193138  0.00508799  0.84582602  1
  O2-  O103  1  0.68372234  0.48319985  0.14316097  1
  O2-  O104  1  0.65567865  0.50082065  0.34372127  1
  O2-  O105  1  0.60310615  0.50713018  0.65648423  1
  O2-  O106  1  0.65361287  0.50523652  0.86582544  1
  O2-  O107  1  0.88763233  -0.00136308  0.12172492  1
  O2-  O108  1  0.87777394  -0.00994181  0.36208800  1
  O2-  O109  1  0.91433103  -0.03746840  0.65130945  1
  O2-  O110  1  0.86017956  -0.00026122  0.86456378  1
  O2-  O111  1  0.88468593  0.48371367  0.13875107  1
  O2-  O112  1  0.84995795  0.50424467  0.37369536  1
  O2-  O113  1  0.85068890  0.51117118  0.63090602  1
  O2-  O114  1  0.88862697  0.47014150  0.87511285  1
  O2-  O115  1  0.17727827  0.27455498  0.12850987  1
  O2-  O116  1  0.08994793  0.32146529  0.36478217  1
  O2-  O117  1  0.10426558  0.24803015  0.64074332  1
  O2-  O118  1  0.11175540  0.25136794  0.84953992  1
  O2-  O119  1  0.11532359  0.73640029  0.10667177  1
  O2-  O120  1  0.08039974  0.75011183  0.38055452  1
  O2-  O121  1  0.09498610  0.76586804  0.64076825  1
  O2-  O122  1  0.08522086  0.74798999  0.82669126  1
  O2-  O123  1  0.37894278  0.25417026  0.11334818  1
  O2-  O124  1  0.40043499  0.25470759  0.38652512  1
  O2-  O125  1  0.40034660  0.25050425  0.62842713  1
  O2-  O126  1  0.40944980  0.25299017  0.87542192  1
  O2-  O127  1  0.31109782  0.73346601  0.12241314  1
  O2-  O128  1  0.39593776  0.75020082  0.38869071  1
  O2-  O129  1  0.39696855  0.75867686  0.62431757  1
  O2-  O130  1  0.42974098  0.75640732  0.89781427  1
  O2-  O131  1  0.61571001  0.24961685  0.10420957  1
  O2-  O132  1  0.60405025  0.24750864  0.39911321  1
  O2-  O133  1  0.56952721  0.29969464  0.61902857  1
  O2-  O134  1  0.59047128  0.24234372  0.88305886  1
  O2-  O135  1  0.67030581  0.78579694  0.10158385  1
  O2-  O136  1  0.58254869  0.74249477  0.38214798  1
  O2-  O137  1  0.58688259  0.75364981  0.60321690  1
  O2-  O138  1  0.66516180  0.76883788  0.89678627  1
  O2-  O139  1  0.80865497  0.27032371  0.14430620  1
  O2-  O140  1  0.90621657  0.25067675  0.40015695  1
  O2-  O141  1  0.92502572  0.25408099  0.61332808  1
  O2-  O142  1  0.93039343  0.23066867  0.87864866  1
  O2-  O143  1  0.85959897  0.74085436  0.12410966  1
  O2-  O144  1  0.84489787  0.75911029  0.35282930  1
  O2-  O145  1  0.89373779  0.76651085  0.60359416  1
  O2-  O146  1  0.89620873  0.74663630  0.90113948  1
  O2-  O147  1  0.11499181  0.13254891  -0.01067163  1
  O2-  O148  1  0.13319256  0.14658969  0.26629870  1
  O2-  O149  1  0.12269291  0.14141857  0.51038278  1
  O2-  O150  1  0.08667067  0.11519787  0.74712950  1
  O2-  O151  1  0.15736544  0.64214253  -0.05355413  1
  O2-  O152  1  0.16877806  0.63751207  0.25306595  1
  O2-  O153  1  0.15732989  0.65084443  0.51238730  1
  O2-  O154  1  0.19621701  0.64334070  0.72772518  1
  O2-  O155  1  0.41804694  0.12714740  -0.00784726  1
  O2-  O156  1  0.37115818  0.14238269  0.25213028  1
  O2-  O157  1  0.38568150  0.12787100  0.50839883  1
  O2-  O158  1  0.42794391  0.13057932  0.75871077  1
  O2-  O159  1  0.36819788  0.62656640  -0.00065258  1
  O2-  O160  1  0.37390664  0.63641647  0.25783165  1
  O2-  O161  1  0.34122212  0.63125005  0.50871443  1
  O2-  O162  1  0.41314981  0.64871379  0.76241537  1
  O2-  O163  1  0.63082037  0.10883337  -0.00082858  1
  O2-  O164  1  0.64436916  0.15181608  0.25360659  1
  O2-  O165  1  0.51993414  0.12342667  0.60654134  1
  O2-  O166  1  0.62396681  0.14782475  0.74380979  1
  O2-  O167  1  0.63639519  0.62018932  0.02892262  1
  O2-  O168  1  0.62059618  0.64157123  0.23485030  1
  O2-  O169  1  0.61605971  0.60634101  0.49672559  1
  O2-  O170  1  0.59859033  0.66089280  0.74822617  1
  O2-  O171  1  0.83775480  0.12480309  -0.00351039  1
  O2-  O172  1  0.88684451  0.14885347  0.26481813  1
  O2-  O173  1  0.89518210  0.09396850  0.51934748  1
  O2-  O174  1  0.87028051  0.12841667  0.73272653  1
  O2-  O175  1  0.83483553  0.60341381  0.01685021  1
  O2-  O176  1  0.81194009  0.61889906  0.23451854  1
  O2-  O177  1  0.85856241  0.64850190  0.48778264  1
  O2-  O178  1  0.87243230  0.65936773  0.74362498  1
  O2-  O179  1  0.10572876  0.38717725  -0.02187073  1
  O2-  O180  1  0.01785039  0.34455053  0.15321457  1
  O2-  O181  1  0.10493874  0.37038889  0.52329107  1
  O2-  O182  1  0.06332848  0.37656599  0.75459906  1
  O2-  O183  1  0.15184341  0.83387620  -0.04455628  1
  O2-  O184  1  0.16564487  0.83783723  0.24030441  1
  O2-  O185  1  0.14593071  0.86645811  0.49603105  1
  O2-  O186  1  0.18968067  0.87334219  0.74986051  1
  O2-  O187  1  0.41009344  0.38173613  -0.00253357  1
  O2-  O188  1  0.39741454  0.35325984  0.24808810  1
  O2-  O189  1  0.43397590  0.37418600  0.51163111  1
  O2-  O190  1  0.39599925  0.37053935  0.73998002  1
  O2-  O191  1  0.32757100  0.86777406  -0.01411739  1
  O2-  O192  1  0.38000992  0.84623704  0.25272391  1
  O2-  O193  1  0.33999272  0.87631419  0.50154151  1
  O2-  O194  1  0.36573670  0.85462281  0.76095721  1
  O2-  O195  1  0.60190931  0.38435422  0.00053095  1
  O2-  O196  1  0.63725730  0.33979701  0.25343837  1
  O2-  O197  1  0.62674734  0.41235921  0.49973520  1
  O2-  O198  1  0.65458947  0.34970757  0.75349907  1
  O2-  O199  1  0.62073995  0.91224802  -0.00496441  1
  O2-  O200  1  0.60234968  0.84576297  0.24537934  1
  O2-  O201  1  0.60621863  0.89187891  0.49723780  1
  O2-  O202  1  0.64194744  0.84184706  0.74914562  1
  O2-  O203  1  0.90879241  0.34916812  0.01077768  1
  O2-  O204  1  0.89966668  0.35464479  0.26879329  1
  O2-  O205  1  0.93309778  0.39396860  0.49475949  1
  O2-  O206  1  0.86629819  0.33280550  0.76077106  1
  O2-  O207  1  0.82577435  0.87078410  0.00204367  1
  O2-  O208  1  0.80494617  0.87860223  0.22527985  1
  O2-  O209  1  0.83078835  0.87172494  0.48801982  1
  O2-  O210  1  0.83244758  0.84489933  0.76107588  1
  O2-  O211  1  -0.00548089  -0.14840346  0.05396265  1
  O2-  O212  1  -0.01776721  -0.13308205  0.21645949  1
  O2-  O213  1  0.01744909  0.12718351  0.38779808  1
  O2-  O214  1  -0.00687114  -0.11252713  0.84050657  1
  O2-  O215  1  -0.00003309  0.61508195  0.05997128  1
  O2-  O216  1  -0.01169339  0.62269546  0.22268932  1
  O2-  O217  1  -0.00427521  0.62838303  0.61286910  1
  O2-  O218  1  0.00903483  0.59948678  0.83899922  1
  O2-  O219  1  0.25658253  0.14808713  -0.13916711  1
  O2-  O220  1  0.25189546  0.17962992  0.36837316  1
  O2-  O221  1  0.25316394  0.04746470  0.44623924  1
  O2-  O222  1  0.26541522  0.14205164  0.65667758  1
  O2-  O223  1  0.26221817  0.35588847  -0.13043016  1
  O2-  O224  1  0.25837993  0.37009395  0.32900274  1
  O2-  O225  1  0.27723312  0.37942036  0.48981814  1
  O2-  O226  1  0.24174936  0.35665736  0.66367324  1
  O2-  O227  1  0.48231905  -0.13484423  0.10953086  1
  O2-  O228  1  0.51119414  0.12040180  0.14706407  1
  O2-  O229  1  0.49592459  0.11372054  0.37476333  1
  O2-  O230  1  0.51070445  -0.09767020  0.85526969  1
  O2-  O231  1  0.48837551  0.65042144  0.13174462  1
  O2-  O232  1  0.51584177  0.46412613  0.14699469  1
  O2-  O233  1  0.50520735  0.39339424  0.36301299  1
  O2-  O234  1  0.51303330  0.38703475  0.85046914  1
  O2-  O235  1  0.75413465  0.17863024  -0.15107802  1
  O2-  O236  1  0.76604090  0.13712526  0.39238148  1
  O2-  O237  1  0.73483315  0.13842294  0.60634083  1
  O2-  O238  1  0.73872067  -0.01707909  0.65688433  1
  O2-  O239  1  0.75274694  0.34602078  -0.09018551  1
  O2-  O240  1  0.75446614  0.34817685  0.38990354  1
  O2-  O241  1  0.75599324  0.35057824  0.60875696  1
  O2-  O242  1  0.73807416  0.64966995  0.62867455  1
