# generated using pymatgen
data_Gd19Ta56(WO20)8
_symmetry_space_group_name_H-M   'P 1'
_cell_length_a   15.55830528
_cell_length_b   15.50645861
_cell_length_c   15.24247668
_cell_angle_alpha   89.96850753
_cell_angle_beta   89.91637877
_cell_angle_gamma   89.97128213
_symmetry_Int_Tables_number   1
_chemical_formula_structural   Gd19Ta56(WO20)8
_chemical_formula_sum   'Gd19 Ta56 W8 O160'
_cell_volume   3677.30684220
_cell_formula_units_Z   1
loop_
 _symmetry_equiv_pos_site_id
 _symmetry_equiv_pos_as_xyz
  1  'x, y, z'
loop_
 _atom_type_symbol
 _atom_type_oxidation_number
  Gd3+  3.0
  Ta5+  5.0
  W6+  6.0
  O2-  -2.0
loop_
 _atom_site_type_symbol
 _atom_site_label
 _atom_site_symmetry_multiplicity
 _atom_site_fract_x
 _atom_site_fract_y
 _atom_site_fract_z
 _atom_site_occupancy
  Gd3+  Gd0  1  -0.01317451  0.73454240  0.46463670  1
  Gd3+  Gd1  1  0.56237387  0.73288898  -0.00560313  1
  Gd3+  Gd2  1  0.23453549  0.26171836  0.24499001  1
  Gd3+  Gd3  1  0.27062799  0.77101618  0.26534525  1
  Gd3+  Gd4  1  0.50226552  0.74184981  0.51690231  1
  Gd3+  Gd5  1  0.51124612  0.25394264  0.75841254  1
  Gd3+  Gd6  1  0.74499049  0.74789241  0.74273818  1
  Gd3+  Gd7  1  0.27917873  0.78689852  0.50741918  1
  Gd3+  Gd8  1  -0.05233267  0.24399126  0.22586673  1
  Gd3+  Gd9  1  0.24259029  0.26137679  0.49328519  1
  Gd3+  Gd10  1  -0.02995942  0.23936225  0.00767348  1
  Gd3+  Gd11  1  0.48919589  0.24829657  0.02162978  1
  Gd3+  Gd12  1  -0.01126811  0.73583988  0.74569802  1
  Gd3+  Gd13  1  0.73199869  0.23948203  0.24240969  1
  Gd3+  Gd14  1  0.25659348  0.25237975  0.74869284  1
  Gd3+  Gd15  1  0.22885026  0.24943654  0.00385535  1
  Gd3+  Gd16  1  0.73934830  0.24170269  0.48953723  1
  Gd3+  Gd17  1  0.72699824  0.76347528  0.49110727  1
  Gd3+  Gd18  1  -0.03361756  0.25195688  0.75479856  1
  Ta5+  Ta19  1  0.11418335  0.11686684  0.13201223  1
  Ta5+  Ta20  1  0.88853761  0.63378245  0.12866429  1
  Ta5+  Ta21  1  0.62281042  0.61532452  0.63947278  1
  Ta5+  Ta22  1  0.68911602  0.60631006  0.88817538  1
  Ta5+  Ta23  1  0.60305776  0.61823782  0.38038955  1
  Ta5+  Ta24  1  0.10232909  0.12957185  0.62541081  1
  Ta5+  Ta25  1  0.60462394  0.07386504  0.37827981  1
  Ta5+  Ta26  1  0.46781805  0.88706636  0.87272365  1
  Ta5+  Ta27  1  0.08926520  0.13474089  0.37822097  1
  Ta5+  Ta28  1  0.88540157  0.11540450  0.37426996  1
  Ta5+  Ta29  1  0.11024008  0.88002710  0.61336083  1
  Ta5+  Ta30  1  0.87018076  0.43606630  0.13207225  1
  Ta5+  Ta31  1  0.37551083  0.12764574  0.37106631  1
  Ta5+  Ta32  1  0.59956525  0.87335452  0.64523866  1
  Ta5+  Ta33  1  0.86392860  0.11833874  0.62372692  1
  Ta5+  Ta34  1  0.13530890  0.39009437  0.87230974  1
  Ta5+  Ta35  1  0.85744436  0.86564296  0.88199414  1
  Ta5+  Ta36  1  0.86661595  0.37710390  0.61991825  1
  Ta5+  Ta37  1  0.63258884  0.08418044  0.87988171  1
  Ta5+  Ta38  1  0.34672778  0.39763447  0.86872558  1
  Ta5+  Ta39  1  0.13239843  0.63606190  0.88000723  1
  Ta5+  Ta40  1  0.42921895  0.88354680  0.63857398  1
  Ta5+  Ta41  1  0.88562203  0.38938962  0.37711677  1
  Ta5+  Ta42  1  0.87661664  0.86360813  0.13339994  1
  Ta5+  Ta43  1  0.09252317  0.39471887  0.38248977  1
  Ta5+  Ta44  1  0.86778965  0.87192335  0.61622723  1
  Ta5+  Ta45  1  0.62413873  0.37297587  0.62572928  1
  Ta5+  Ta46  1  0.60237029  0.37369698  0.37244545  1
  Ta5+  Ta47  1  0.17194110  0.62640084  0.40290511  1
  Ta5+  Ta48  1  0.34967863  0.11206132  0.87322536  1
  Ta5+  Ta49  1  0.40485613  0.63161588  0.12437649  1
  Ta5+  Ta50  1  0.10596951  0.39107883  0.12472084  1
  Ta5+  Ta51  1  0.63056690  0.38633741  0.89345305  1
  Ta5+  Ta52  1  0.36609495  0.11706050  0.12284000  1
  Ta5+  Ta53  1  0.86451129  0.61381215  0.87770506  1
  Ta5+  Ta54  1  0.85317368  0.86960817  0.35486862  1
  Ta5+  Ta55  1  0.64008982  0.86702914  0.14163265  1
  Ta5+  Ta56  1  0.10602599  0.38607202  0.63276273  1
  Ta5+  Ta57  1  0.67378551  0.61110159  0.14537200  1
  Ta5+  Ta58  1  0.35677119  0.62578502  0.62149788  1
  Ta5+  Ta59  1  0.35763471  0.38974685  0.11356608  1
  Ta5+  Ta60  1  0.68674523  0.87777386  0.88911748  1
  Ta5+  Ta61  1  0.15054176  0.63380295  0.62076337  1
  Ta5+  Ta62  1  0.43322548  0.62279333  0.37267956  1
  Ta5+  Ta63  1  0.86629215  0.62179488  0.60647199  1
  Ta5+  Ta64  1  0.40370265  0.37981823  0.36067147  1
  Ta5+  Ta65  1  0.59044356  0.87003734  0.37188008  1
  Ta5+  Ta66  1  0.80589227  0.62199429  0.35467074  1
  Ta5+  Ta67  1  0.38007867  0.38408386  0.61450951  1
  Ta5+  Ta68  1  0.13736443  0.11467621  0.86926250  1
  Ta5+  Ta69  1  0.38563739  0.12620491  0.62054170  1
  Ta5+  Ta70  1  0.42337368  0.89210866  0.37765768  1
  Ta5+  Ta71  1  0.13073842  0.89084897  0.39831500  1
  Ta5+  Ta72  1  0.85975895  0.40894515  0.87901743  1
  Ta5+  Ta73  1  0.61592676  0.11364756  0.62912553  1
  Ta5+  Ta74  1  0.59925942  0.38641613  0.14763859  1
  W6+  W75  1  0.61256463  0.11612405  0.12761942  1
  W6+  W76  1  0.41356919  0.87202276  0.12683013  1
  W6+  W77  1  0.06519278  0.87434717  0.88051251  1
  W6+  W78  1  0.16497248  0.63417043  0.13350520  1
  W6+  W79  1  0.82740617  0.06747436  0.86324858  1
  W6+  W80  1  0.42865541  0.63812669  0.86221418  1
  W6+  W81  1  0.85573866  0.09963174  0.11110758  1
  W6+  W82  1  0.11451384  0.86669492  0.12985873  1
  O2-  O83  1  0.10971994  -0.00168991  0.13444704  1
  O2-  O84  1  0.10954452  0.01487204  0.39042331  1
  O2-  O85  1  0.10450175  0.01042765  0.62830808  1
  O2-  O86  1  0.10334749  0.00377196  0.86966161  1
  O2-  O87  1  0.11962497  0.50742679  0.11767431  1
  O2-  O88  1  0.15344201  0.50138551  0.38922322  1
  O2-  O89  1  0.13495071  0.50110883  0.63027475  1
  O2-  O90  1  0.11834742  0.51169467  0.86882152  1
  O2-  O91  1  0.38053305  -0.00016300  0.12358954  1
  O2-  O92  1  0.35499629  0.01048596  0.37386895  1
  O2-  O93  1  0.39370455  0.00868602  0.63106414  1
  O2-  O94  1  0.39671847  0.00228898  0.87049255  1
  O2-  O95  1  0.36346628  0.51112486  0.11343338  1
  O2-  O96  1  0.39276526  0.49835660  0.37300131  1
  O2-  O97  1  0.34192540  0.49546407  0.62974811  1
  O2-  O98  1  0.37879125  0.51006459  0.86372175  1
  O2-  O99  1  0.61950529  -0.01674123  0.12780026  1
  O2-  O100  1  0.67460274  -0.02625200  0.37721011  1
  O2-  O101  1  0.63496872  -0.00388714  0.63289121  1
  O2-  O102  1  0.56564930  -0.03541499  0.87565226  1
  O2-  O103  1  0.60079610  0.51220147  0.15423981  1
  O2-  O104  1  0.62199733  0.49219024  0.39068979  1
  O2-  O105  1  0.64763535  0.49205712  0.62843401  1
  O2-  O106  1  0.60358543  0.50244163  0.88091206  1
  O2-  O107  1  0.90481779  -0.02019374  0.13685052  1
  O2-  O108  1  0.87467065  -0.00549805  0.37564267  1
  O2-  O109  1  0.87290907  -0.00592464  0.62049024  1
  O2-  O110  1  0.92020671  -0.03135600  0.86349061  1
  O2-  O111  1  0.95268372  0.52256892  0.14437815  1
  O2-  O112  1  0.82457664  0.49385432  0.36465605  1
  O2-  O113  1  0.86462310  0.49951791  0.60328950  1
  O2-  O114  1  0.93631515  0.50333460  0.86793328  1
  O2-  O115  1  0.12614363  0.25479497  0.13076945  1
  O2-  O116  1  0.14694862  0.25631847  0.37360534  1
  O2-  O117  1  0.15369505  0.26035895  0.63695210  1
  O2-  O118  1  0.15521954  0.25726340  0.86529260  1
  O2-  O119  1  0.18840305  0.76796805  0.14434719  1
  O2-  O120  1  0.16034429  0.75776559  0.41071686  1
  O2-  O121  1  0.15677533  0.76244902  0.60522730  1
  O2-  O122  1  0.05733087  0.73320425  0.87885856  1
  O2-  O123  1  0.34812689  0.25604828  0.10202370  1
  O2-  O124  1  0.33290666  0.25905396  0.37133426  1
  O2-  O125  1  0.33636131  0.26030053  0.61970414  1
  O2-  O126  1  0.33460052  0.25054531  0.88123825  1
  O2-  O127  1  0.36688075  0.74661175  0.13980374  1
  O2-  O128  1  0.38558710  0.74938939  0.39008994  1
  O2-  O129  1  0.38083714  0.75685209  0.61291937  1
  O2-  O130  1  0.49231245  0.76178829  0.86483831  1
  O2-  O131  1  0.62250869  0.25802214  0.13787853  1
  O2-  O132  1  0.65870203  0.25946979  0.36945060  1
  O2-  O133  1  0.65049223  0.24309267  0.62782767  1
  O2-  O134  1  0.54401743  0.29491939  0.89279961  1
  O2-  O135  1  0.63045683  0.72634402  0.14162664  1
  O2-  O136  1  0.61691034  0.74756171  0.37711483  1
  O2-  O137  1  0.58658173  0.73885955  0.64935675  1
  O2-  O138  1  0.67987272  0.73616407  0.88833505  1
  O2-  O139  1  0.84353784  0.23426924  0.11939440  1
  O2-  O140  1  0.84265198  0.25031256  0.36374250  1
  O2-  O141  1  0.83890032  0.25027148  0.62295525  1
  O2-  O142  1  0.93153607  0.30543904  0.88365995  1
  O2-  O143  1  0.93115357  0.74612323  0.12202217  1
  O2-  O144  1  0.79757163  0.75537405  0.35430099  1
  O2-  O145  1  0.92292100  0.74424799  0.60385150  1
  O2-  O146  1  0.87618877  0.73769430  0.86726492  1
  O2-  O147  1  0.09547225  0.15214528  -0.01060469  1
  O2-  O148  1  0.14649906  0.13624054  0.25510795  1
  O2-  O149  1  0.14745181  0.14350689  0.50739718  1
  O2-  O150  1  0.07926813  0.15105544  0.75597477  1
  O2-  O151  1  0.16850040  0.64066314  -0.00628040  1
  O2-  O152  1  0.19140280  0.64059917  0.28039578  1
  O2-  O153  1  0.08066585  0.63013007  0.50340472  1
  O2-  O154  1  0.13181068  0.64872197  0.74289737  1
  O2-  O155  1  0.39886193  0.13298832  -0.00805903  1
  O2-  O156  1  0.33733794  0.14340438  0.24966766  1
  O2-  O157  1  0.34019590  0.13871366  0.49910178  1
  O2-  O158  1  0.39552368  0.15472428  0.75037869  1
  O2-  O159  1  0.44962184  0.63755826  0.00561217  1
  O2-  O160  1  0.43866111  0.62314799  0.24395247  1
  O2-  O161  1  0.41812392  0.61607416  0.50870154  1
  O2-  O162  1  0.40850883  0.63146825  0.72883683  1
  O2-  O163  1  0.58607902  0.13043112  -0.01608668  1
  O2-  O164  1  0.64103483  0.11613923  0.26760081  1
  O2-  O165  1  0.63529712  0.11840858  0.49317879  1
  O2-  O166  1  0.58376612  0.12081726  0.75986681  1
  O2-  O167  1  0.67407003  0.60905452  0.01644166  1
  O2-  O168  1  0.69957835  0.61681121  0.27563191  1
  O2-  O169  1  0.60886003  0.63100600  0.51000456  1
  O2-  O170  1  0.66655142  0.61869321  0.75827443  1
  O2-  O171  1  0.88312533  0.12353185  -0.02078199  1
  O2-  O172  1  0.83209814  0.12486372  0.25597833  1
  O2-  O173  1  0.82875838  0.12159256  0.49617531  1
  O2-  O174  1  0.88106992  0.13269809  0.75101685  1
  O2-  O175  1  0.87348902  0.61740397  0.00385890  1
  O2-  O176  1  0.87804160  0.63470460  0.25894263  1
  O2-  O177  1  0.86636491  0.64030109  0.47230980  1
  O2-  O178  1  0.86998985  0.62959879  0.73613157  1
  O2-  O179  1  0.08599476  0.36246895  -0.01014191  1
  O2-  O180  1  0.12874349  0.38265566  0.25474212  1
  O2-  O181  1  0.13172037  0.36601377  0.50247207  1
  O2-  O182  1  0.06998092  0.36923806  0.75743104  1
  O2-  O183  1  0.06943552  0.86694529  0.01715731  1
  O2-  O184  1  0.16110136  0.87494789  0.27822952  1
  O2-  O185  1  0.04432693  0.86706531  0.49901171  1
  O2-  O186  1  0.07244384  0.85963311  0.73029579  1
  O2-  O187  1  0.39814769  0.37711152  -0.01413557  1
  O2-  O188  1  0.34393619  0.37025052  0.24362254  1
  O2-  O189  1  0.34382017  0.37752984  0.49400549  1
  O2-  O190  1  0.39690102  0.35409971  0.75167514  1
  O2-  O191  1  0.45464679  0.86389442  -0.00430618  1
  O2-  O192  1  0.37857969  0.87096723  0.26111144  1
  O2-  O193  1  0.40028810  0.88117491  0.50464331  1
  O2-  O194  1  0.41192819  0.87149480  0.76049524  1
  O2-  O195  1  0.62985860  0.38889384  0.02321819  1
  O2-  O196  1  0.67103673  0.37865653  0.25268887  1
  O2-  O197  1  0.65445474  0.36413180  0.50304388  1
  O2-  O198  1  0.61541298  0.36235058  0.75533838  1
  O2-  O199  1  0.64773801  0.85154191  0.01275564  1
  O2-  O200  1  0.57189496  0.85898609  0.24586330  1
  O2-  O201  1  0.60849520  0.85576174  0.51085347  1
  O2-  O202  1  0.65231823  0.86396587  0.76506259  1
  O2-  O203  1  0.85657897  0.40949434  0.01122325  1
  O2-  O204  1  0.85236438  0.37268927  0.24276010  1
  O2-  O205  1  0.83793723  0.36131240  0.49058983  1
  O2-  O206  1  0.86416811  0.38161900  0.74537771  1
  O2-  O207  1  0.85803534  0.86166955  0.00927686  1
  O2-  O208  1  0.92460422  0.85038673  0.26052022  1
  O2-  O209  1  0.86228654  0.84955211  0.48505047  1
  O2-  O210  1  0.87503445  0.84374743  0.74139339  1
  O2-  O211  1  -0.00778012  0.14404829  0.12429591  1
  O2-  O212  1  -0.00853676  0.11744373  0.29655606  1
  O2-  O213  1  -0.01277739  0.16025597  0.44469408  1
  O2-  O214  1  -0.01469667  0.15529276  0.61415763  1
  O2-  O215  1  -0.01795698  0.35510790  0.12778396  1
  O2-  O216  1  -0.00715124  0.32483605  0.33687945  1
  O2-  O217  1  -0.01311403  0.45057517  0.42453227  1
  O2-  O218  1  -0.01261347  0.35518398  0.60803859  1
  O2-  O219  1  0.24416377  0.10636107  -0.05855210  1
  O2-  O220  1  0.23875726  0.12978966  0.10624158  1
  O2-  O221  1  0.20073587  -0.09179769  0.50885178  1
  O2-  O222  1  0.24176129  0.11032609  0.78396836  1
  O2-  O223  1  0.24194652  0.39464017  -0.05773182  1
  O2-  O224  1  0.23391558  0.37455016  0.10943069  1
  O2-  O225  1  0.24665435  0.63094488  0.52151439  1
  O2-  O226  1  0.23831423  0.39398234  0.78287888  1
  O2-  O227  1  0.48239062  0.15261710  0.14450500  1
  O2-  O228  1  0.51616883  -0.01655949  0.39564564  1
  O2-  O229  1  0.49249091  0.14510509  0.37290886  1
  O2-  O230  1  0.49837159  0.16665424  0.60424444  1
  O2-  O231  1  0.48198384  0.36172761  0.12534713  1
  O2-  O232  1  0.50993453  0.38954107  0.28460388  1
  O2-  O233  1  0.49715730  0.33539607  0.43319020  1
  O2-  O234  1  0.50148112  0.37211054  0.61347046  1
  O2-  O235  1  0.71698301  0.00097269  -0.07141770  1
  O2-  O236  1  0.75970462  -0.14512718  0.16885403  1
  O2-  O237  1  0.74525623  -0.16003630  0.61924474  1
  O2-  O238  1  0.72347135  0.15744728  0.85886312  1
  O2-  O239  1  0.74506937  0.35245857  -0.11815587  1
  O2-  O240  1  0.78515537  0.53032732  0.14089694  1
  O2-  O241  1  0.74531652  0.66059637  0.60590269  1
  O2-  O242  1  0.77568317  0.51422138  0.86294297  1
