# generated using pymatgen
data_Gd19Ta56(WO20)8
_symmetry_space_group_name_H-M   'P 1'
_cell_length_a   15.53806197
_cell_length_b   15.46451911
_cell_length_c   15.20461022
_cell_angle_alpha   90.18045624
_cell_angle_beta   90.11320422
_cell_angle_gamma   90.22450690
_symmetry_Int_Tables_number   1
_chemical_formula_structural   Gd19Ta56(WO20)8
_chemical_formula_sum   'Gd19 Ta56 W8 O160'
_cell_volume   3653.44197103
_cell_formula_units_Z   1
loop_
 _symmetry_equiv_pos_site_id
 _symmetry_equiv_pos_as_xyz
  1  'x, y, z'
loop_
 _atom_type_symbol
 _atom_type_oxidation_number
  Gd3+  3.0
  Ta5+  5.0
  W6+  6.0
  O2-  -2.0
loop_
 _atom_site_type_symbol
 _atom_site_label
 _atom_site_symmetry_multiplicity
 _atom_site_fract_x
 _atom_site_fract_y
 _atom_site_fract_z
 _atom_site_occupancy
  Gd3+  Gd0  1  0.48607157  0.23800661  0.49807025  1
  Gd3+  Gd1  1  0.02494113  0.27254188  0.75201908  1
  Gd3+  Gd2  1  -0.02581395  0.24707643  0.48615246  1
  Gd3+  Gd3  1  0.51423302  0.74257032  0.50001423  1
  Gd3+  Gd4  1  0.71936736  0.21533190  0.75402933  1
  Gd3+  Gd5  1  -0.03137148  0.73326028  0.47715190  1
  Gd3+  Gd6  1  -0.01643791  0.25685072  0.23769289  1
  Gd3+  Gd7  1  0.25016750  0.75894292  0.00769200  1
  Gd3+  Gd8  1  0.73406469  0.77464103  0.51383974  1
  Gd3+  Gd9  1  0.75591036  0.74669740  0.02543379  1
  Gd3+  Gd10  1  0.27089281  0.74684497  0.24748994  1
  Gd3+  Gd11  1  0.27174644  0.77345881  0.75165373  1
  Gd3+  Gd12  1  0.50014647  0.24135140  0.75567065  1
  Gd3+  Gd13  1  0.26250835  0.24816524  0.76884801  1
  Gd3+  Gd14  1  0.21515413  0.25578165  0.52795930  1
  Gd3+  Gd15  1  0.28582031  0.78487483  0.48825254  1
  Gd3+  Gd16  1  0.52633504  0.25492394  0.02885131  1
  Gd3+  Gd17  1  0.76793532  0.23168830  0.00851834  1
  Gd3+  Gd18  1  0.72164737  0.23345359  0.51328345  1
  Ta5+  Ta19  1  0.58971091  0.08747210  0.62278252  1
  Ta5+  Ta20  1  0.11584322  0.87290881  0.63254541  1
  Ta5+  Ta21  1  0.14310632  0.38925293  0.89246989  1
  Ta5+  Ta22  1  0.86101057  0.63219294  0.63035048  1
  Ta5+  Ta23  1  0.13935734  0.12407290  0.12356310  1
  Ta5+  Ta24  1  0.91415918  0.86592715  0.67430824  1
  Ta5+  Ta25  1  0.56945355  0.61711402  0.13710435  1
  Ta5+  Ta26  1  0.61020228  0.38163686  0.62969029  1
  Ta5+  Ta27  1  0.59270289  0.86510525  0.14819564  1
  Ta5+  Ta28  1  0.42866322  0.88336489  0.63109822  1
  Ta5+  Ta29  1  0.63080367  0.11575725  0.35706482  1
  Ta5+  Ta30  1  0.38250186  0.62630180  0.87994135  1
  Ta5+  Ta31  1  0.12615399  0.12870793  0.37906762  1
  Ta5+  Ta32  1  0.34979028  0.10916887  0.62898839  1
  Ta5+  Ta33  1  0.34797465  0.36775793  0.36440112  1
  Ta5+  Ta34  1  0.43103457  0.87900079  0.34675691  1
  Ta5+  Ta35  1  0.93977464  0.86446772  0.10763201  1
  Ta5+  Ta36  1  0.35933364  0.62152145  0.62447403  1
  Ta5+  Ta37  1  0.87307622  0.38923390  0.10939763  1
  Ta5+  Ta38  1  0.85732881  0.38250316  0.61191845  1
  Ta5+  Ta39  1  0.36831931  0.38017862  0.62579178  1
  Ta5+  Ta40  1  0.13454800  0.61791154  0.13423723  1
  Ta5+  Ta41  1  0.64931677  0.38149796  0.15945846  1
  Ta5+  Ta42  1  0.39030935  0.38022284  0.89386045  1
  Ta5+  Ta43  1  0.63730657  0.37296783  0.36761855  1
  Ta5+  Ta44  1  0.65136223  0.11214939  0.15583341  1
  Ta5+  Ta45  1  0.12670607  0.88350134  0.37759187  1
  Ta5+  Ta46  1  0.64651637  0.62063440  0.37394575  1
  Ta5+  Ta47  1  0.90036055  0.61445649  0.11975073  1
  Ta5+  Ta48  1  0.81794957  0.62887618  0.35373125  1
  Ta5+  Ta49  1  0.88834711  0.86583599  0.33172971  1
  Ta5+  Ta50  1  0.60824935  0.10566289  0.89710271  1
  Ta5+  Ta51  1  0.14821362  0.11763811  0.88321796  1
  Ta5+  Ta52  1  0.82241330  0.37373318  0.85663267  1
  Ta5+  Ta53  1  0.10738711  0.87973186  0.12176936  1
  Ta5+  Ta54  1  0.62272971  0.62428003  0.89482249  1
  Ta5+  Ta55  1  0.17103731  0.46496076  0.53499633  1
  Ta5+  Ta56  1  0.36915821  0.90167779  0.13494730  1
  Ta5+  Ta57  1  0.65616502  0.37636386  0.88894604  1
  Ta5+  Ta58  1  0.39643203  0.61486722  0.37035838  1
  Ta5+  Ta59  1  0.13590338  0.10943026  0.64718602  1
  Ta5+  Ta60  1  0.87191319  0.61710725  0.88052422  1
  Ta5+  Ta61  1  0.59769570  0.88730593  0.64429314  1
  Ta5+  Ta62  1  0.60811535  0.62984993  0.64185599  1
  Ta5+  Ta63  1  0.10910335  0.62839798  0.62494228  1
  Ta5+  Ta64  1  0.39555230  0.12567043  0.90312415  1
  Ta5+  Ta65  1  0.37086261  0.38657806  0.12665686  1
  Ta5+  Ta66  1  0.89536535  0.10758461  0.10575421  1
  Ta5+  Ta67  1  0.30981829  0.14569483  0.12235896  1
  Ta5+  Ta68  1  0.40312394  0.62852148  0.11949214  1
  Ta5+  Ta69  1  0.59747623  0.87109831  0.36619316  1
  Ta5+  Ta70  1  0.40237474  0.87951825  0.89114237  1
  Ta5+  Ta71  1  0.84994123  0.11108807  0.35766864  1
  Ta5+  Ta72  1  0.11722800  0.62005831  0.87790472  1
  Ta5+  Ta73  1  0.13672851  0.37461873  0.36362432  1
  Ta5+  Ta74  1  0.89297683  0.87035345  0.89682715  1
  W6+  W75  1  0.84607434  0.38181934  0.35848032  1
  W6+  W76  1  0.63605023  0.87521693  0.89842360  1
  W6+  W77  1  0.12259616  0.37456667  0.12424902  1
  W6+  W78  1  0.35787762  0.11334695  0.36735426  1
  W6+  W79  1  0.87583607  0.11252877  0.84483390  1
  W6+  W80  1  0.14858848  0.62965542  0.37802291  1
  W6+  W81  1  0.11426324  0.87268741  0.86343346  1
  W6+  W82  1  0.86948005  0.10939900  0.62474075  1
  O2-  O83  1  0.12049653  0.00264638  0.11610650  1
  O2-  O84  1  0.12924903  0.00679934  0.39790641  1
  O2-  O85  1  0.09380451  -0.00342306  0.62269188  1
  O2-  O86  1  0.14448256  -0.00033286  0.88258273  1
  O2-  O87  1  0.15793891  0.50298731  0.11051294  1
  O2-  O88  1  0.12726052  0.49389598  0.41025431  1
  O2-  O89  1  0.22947469  0.57985318  0.59743467  1
  O2-  O90  1  0.17772400  0.51423505  0.89197208  1
  O2-  O91  1  0.34114856  0.01683461  0.12196065  1
  O2-  O92  1  0.41100809  -0.00225245  0.36391724  1
  O2-  O93  1  0.35077703  -0.01024092  0.63622058  1
  O2-  O94  1  0.40218857  0.00490794  0.89208880  1
  O2-  O95  1  0.36293545  0.50931178  0.11369902  1
  O2-  O96  1  0.37445714  0.49341378  0.37715087  1
  O2-  O97  1  0.39045267  0.50050862  0.63157644  1
  O2-  O98  1  0.39007575  0.50095530  0.87766398  1
  O2-  O99  1  0.62129109  -0.00422053  0.14895992  1
  O2-  O100  1  0.61164711  -0.00341986  0.36128140  1
  O2-  O101  1  0.67238079  -0.00066205  0.62165991  1
  O2-  O102  1  0.66730749  0.00333641  0.90184547  1
  O2-  O103  1  0.59295927  0.48730234  0.13658226  1
  O2-  O104  1  0.62953794  0.49174913  0.38749598  1
  O2-  O105  1  0.60036591  0.50036856  0.63329978  1
  O2-  O106  1  0.64525745  0.50409149  0.88956912  1
  O2-  O107  1  0.92640795  -0.00658908  0.10451215  1
  O2-  O108  1  0.87130284  -0.00695578  0.33942781  1
  O2-  O109  1  0.89072700  -0.02662284  0.63478529  1
  O2-  O110  1  0.91480189  -0.01316243  0.87423061  1
  O2-  O111  1  0.93741514  0.49231637  0.08912544  1
  O2-  O112  1  0.83573827  0.51360861  0.37035387  1
  O2-  O113  1  0.85455146  0.50958177  0.62100387  1
  O2-  O114  1  0.84245171  0.49942311  0.85937987  1
  O2-  O115  1  0.08984180  0.24578085  0.13665984  1
  O2-  O116  1  0.07194643  0.25306971  0.36426894  1
  O2-  O117  1  0.13870951  0.24125007  0.66036937  1
  O2-  O118  1  0.13692318  0.26108209  0.85436836  1
  O2-  O119  1  0.16475775  0.75156173  0.13855519  1
  O2-  O120  1  0.18499186  0.76729933  0.37340741  1
  O2-  O121  1  0.15937899  0.74700545  0.64048351  1
  O2-  O122  1  0.16514845  0.73394413  0.85827244  1
  O2-  O123  1  0.31161649  0.27888630  0.10799738  1
  O2-  O124  1  0.39785865  0.25396483  0.37694958  1
  O2-  O125  1  0.32686847  0.24886843  0.62899376  1
  O2-  O126  1  0.44123555  0.25803377  0.89666509  1
  O2-  O127  1  0.35937706  0.75810630  0.12167560  1
  O2-  O128  1  0.37877985  0.75488307  0.36496827  1
  O2-  O129  1  0.34775978  0.75870131  0.62438393  1
  O2-  O130  1  0.34867841  0.75613649  0.88265102  1
  O2-  O131  1  0.66122501  0.25054144  0.13416375  1
  O2-  O132  1  0.61490584  0.24129809  0.39165007  1
  O2-  O133  1  0.63095719  0.22707600  0.63085514  1
  O2-  O134  1  0.63268871  0.23627697  0.88749400  1
  O2-  O135  1  0.55276985  0.74671903  0.13543877  1
  O2-  O136  1  0.63628325  0.74826568  0.39193929  1
  O2-  O137  1  0.62681113  0.75997839  0.63026566  1
  O2-  O138  1  0.67395275  0.73892926  0.89809451  1
  O2-  O139  1  0.87668771  0.25690566  0.11653727  1
  O2-  O140  1  0.88003675  0.24275921  0.36144185  1
  O2-  O141  1  0.85194076  0.24770460  0.58774585  1
  O2-  O142  1  0.82079245  0.24134531  0.85841336  1
  O2-  O143  1  0.91017177  0.73596568  0.09182877  1
  O2-  O144  1  0.89947747  0.73041077  0.34140491  1
  O2-  O145  1  0.84714046  0.76917666  0.61887747  1
  O2-  O146  1  0.84794882  0.73689777  0.90631168  1
  O2-  O147  1  0.10444756  0.13985001  -0.00605518  1
  O2-  O148  1  0.11975994  0.12124005  0.25616914  1
  O2-  O149  1  0.09102980  0.15520808  0.51156807  1
  O2-  O150  1  0.08428865  0.12293724  0.77036080  1
  O2-  O151  1  0.13391729  0.64726566  0.00486890  1
  O2-  O152  1  0.19265677  0.61690420  0.24565460  1
  O2-  O153  1  0.09054209  0.66233451  0.49980275  1
  O2-  O154  1  0.11622318  0.60908430  0.74919465  1
  O2-  O155  1  0.40628349  0.15305189  0.02740658  1
  O2-  O156  1  0.32220319  0.14417107  0.24212852  1
  O2-  O157  1  0.38531459  0.12529274  0.50443292  1
  O2-  O158  1  0.38478912  0.15224866  0.77055843  1
  O2-  O159  1  0.33758048  0.63043170  -0.00461585  1
  O2-  O160  1  0.38373826  0.63209243  0.24612971  1
  O2-  O161  1  0.35982163  0.64281683  0.49694778  1
  O2-  O162  1  0.33595915  0.63072016  0.75451632  1
  O2-  O163  1  0.60548005  0.12689494  0.02809503  1
  O2-  O164  1  0.56710433  0.13807114  0.24847454  1
  O2-  O165  1  0.58915985  0.11798244  0.49806859  1
  O2-  O166  1  0.59562284  0.11639774  0.76055814  1
  O2-  O167  1  0.63457752  0.63002564  0.02282770  1
  O2-  O168  1  0.60632479  0.62409404  0.25581651  1
  O2-  O169  1  0.65113475  0.63525684  0.51925411  1
  O2-  O170  1  0.63681777  0.62886315  0.76096141  1
  O2-  O171  1  0.89114227  0.13779227  -0.01775461  1
  O2-  O172  1  0.90993585  0.12743007  0.23613212  1
  O2-  O173  1  0.90791168  0.11312387  0.47178057  1
  O2-  O174  1  0.92788621  0.16766919  0.73250964  1
  O2-  O175  1  0.83237243  0.60522407  0.00881974  1
  O2-  O176  1  0.83035441  0.61593524  0.21711746  1
  O2-  O177  1  0.83871295  0.65218569  0.49563386  1
  O2-  O178  1  0.84634994  0.63993179  0.75453214  1
  O2-  O179  1  0.08167215  0.38003980  -0.00584048  1
  O2-  O180  1  0.08269248  0.39051362  0.25426358  1
  O2-  O181  1  0.10245310  0.35318301  0.49809860  1
  O2-  O182  1  0.07045578  0.40664845  0.79773619  1
  O2-  O183  1  0.14590175  0.86029055  -0.00080067  1
  O2-  O184  1  0.12276292  0.88218011  0.25477151  1
  O2-  O185  1  0.16878141  0.87277662  0.51277283  1
  O2-  O186  1  0.18925730  0.88998237  0.73592011  1
  O2-  O187  1  0.43921538  0.38008531  0.01443674  1
  O2-  O188  1  0.39446453  0.38096831  0.24796435  1
  O2-  O189  1  0.39460982  0.36195049  0.50371571  1
  O2-  O190  1  0.37342299  0.35409639  0.76059382  1
  O2-  O191  1  0.33948493  0.88122182  0.00589894  1
  O2-  O192  1  0.32034801  0.88417529  0.25114763  1
  O2-  O193  1  0.41603365  0.86125390  0.49720033  1
  O2-  O194  1  0.39691475  0.86765007  0.76157422  1
  O2-  O195  1  0.63683852  0.36034275  0.01652112  1
  O2-  O196  1  0.57084813  0.35932326  0.25966856  1
  O2-  O197  1  0.59075111  0.35675772  0.50502762  1
  O2-  O198  1  0.61668050  0.35480201  0.75909212  1
  O2-  O199  1  0.65525718  0.85482841  0.03865295  1
  O2-  O200  1  0.65714595  0.84943163  0.24932887  1
  O2-  O201  1  0.60691018  0.86971941  0.50026293  1
  O2-  O202  1  0.60800350  0.88325108  0.76484555  1
  O2-  O203  1  0.85001019  0.36073542  -0.01714601  1
  O2-  O204  1  0.90718233  0.38270156  0.23274996  1
  O2-  O205  1  0.91456925  0.38319613  0.50015647  1
  O2-  O206  1  0.89038372  0.36217746  0.73231303  1
  O2-  O207  1  0.83664169  0.87559623  0.00905043  1
  O2-  O208  1  0.86039384  0.85752284  0.21350097  1
  O2-  O209  1  0.82288096  0.85238473  0.43587015  1
  O2-  O210  1  0.84592181  0.85292932  0.77776963  1
  O2-  O211  1  0.00079489  -0.17741534  -0.08546442  1
  O2-  O212  1  0.00603625  -0.14091170  0.39321401  1
  O2-  O213  1  0.00465835  -0.16612464  0.57891645  1
  O2-  O214  1  0.02488250  -0.13541061  0.73779903  1
  O2-  O215  1  -0.00597675  0.61180188  -0.11442295  1
  O2-  O216  1  0.01851193  0.62359893  0.16495660  1
  O2-  O217  1  0.07597879  0.50457151  0.59945578  1
  O2-  O218  1  -0.01932001  0.65214091  0.62822066  1
  O2-  O219  1  0.26751444  0.15201780  -0.10302152  1
  O2-  O220  1  0.23598332  0.17515447  0.39814522  1
  O2-  O221  1  0.23557349  0.11004275  0.56584127  1
  O2-  O222  1  0.23862880  0.10611382  0.72316757  1
  O2-  O223  1  0.26879897  0.35625369  -0.10214352  1
  O2-  O224  1  0.24112375  0.33865884  0.30176465  1
  O2-  O225  1  0.24710764  0.39116832  0.44867764  1
  O2-  O226  1  0.24170524  0.39662959  0.62003165  1
  O2-  O227  1  0.50808279  -0.15632256  -0.07486519  1
  O2-  O228  1  0.47642242  -0.10864536  0.20937067  1
  O2-  O229  1  0.51172385  -0.01155752  0.62153695  1
  O2-  O230  1  0.47437672  0.15632031  0.63333469  1
  O2-  O231  1  0.50136888  0.64313806  -0.11380783  1
  O2-  O232  1  0.51043136  0.62714086  0.40826406  1
  O2-  O233  1  0.48605613  0.64840110  0.62930967  1
  O2-  O234  1  0.49012211  0.33675703  0.64079196  1
  O2-  O235  1  0.76940213  0.10915368  0.10240804  1
  O2-  O236  1  0.72834145  0.11867355  0.27106974  1
  O2-  O237  1  0.74446448  0.11580522  0.42911269  1
  O2-  O238  1  0.79124967  0.09560233  0.73802418  1
  O2-  O239  1  0.76198892  0.42947888  0.12213655  1
  O2-  O240  1  0.72714815  0.37213942  0.27539399  1
  O2-  O241  1  0.74474898  0.35296901  0.44052515  1
  O2-  O242  1  0.73538502  0.36916701  0.62305754  1
