# generated using pymatgen
data_Gd19Ta56(WO20)8
_symmetry_space_group_name_H-M   'P 1'
_cell_length_a   15.56152666
_cell_length_b   15.49296783
_cell_length_c   15.34366019
_cell_angle_alpha   89.91670406
_cell_angle_beta   89.95244938
_cell_angle_gamma   89.90119290
_symmetry_Int_Tables_number   1
_chemical_formula_structural   Gd19Ta56(WO20)8
_chemical_formula_sum   'Gd19 Ta56 W8 O160'
_cell_volume   3699.25728945
_cell_formula_units_Z   1
loop_
 _symmetry_equiv_pos_site_id
 _symmetry_equiv_pos_as_xyz
  1  'x, y, z'
loop_
 _atom_type_symbol
 _atom_type_oxidation_number
  Gd3+  3.0
  Ta5+  5.0
  W6+  6.0
  O2-  -2.0
loop_
 _atom_site_type_symbol
 _atom_site_label
 _atom_site_symmetry_multiplicity
 _atom_site_fract_x
 _atom_site_fract_y
 _atom_site_fract_z
 _atom_site_occupancy
  Gd3+  Gd0  1  0.74590218  0.76822577  0.51284558  1
  Gd3+  Gd1  1  0.24066794  0.24786617  0.27130634  1
  Gd3+  Gd2  1  0.24508185  0.25702549  0.74419313  1
  Gd3+  Gd3  1  0.01444385  0.26370575  0.02722329  1
  Gd3+  Gd4  1  0.26306481  0.75521207  0.24121841  1
  Gd3+  Gd5  1  0.48341990  0.73817354  0.77423894  1
  Gd3+  Gd6  1  0.23522400  0.24068003  0.50192348  1
  Gd3+  Gd7  1  0.75284730  0.24905247  0.26600464  1
  Gd3+  Gd8  1  0.25394207  0.76000750  0.00042016  1
  Gd3+  Gd9  1  0.76215134  0.25859235  0.74035229  1
  Gd3+  Gd10  1  0.52847773  0.71580198  0.24419642  1
  Gd3+  Gd11  1  0.25940550  0.75211656  0.51010076  1
  Gd3+  Gd12  1  0.51158445  0.73659834  0.01163087  1
  Gd3+  Gd13  1  0.00609716  0.74392916  0.77831049  1
  Gd3+  Gd14  1  0.48725947  0.22796584  0.48016350  1
  Gd3+  Gd15  1  0.47988345  0.24985713  0.00834486  1
  Gd3+  Gd16  1  0.77193200  0.73655918  0.74489920  1
  Gd3+  Gd17  1  0.74163452  0.23965571  0.50262886  1
  Gd3+  Gd18  1  0.75284730  0.74047439  0.00882312  1
  Ta5+  Ta19  1  0.61309148  0.36036758  0.12707644  1
  Ta5+  Ta20  1  0.90825367  0.87290723  0.62140738  1
  Ta5+  Ta21  1  0.16847688  0.12499605  0.12354829  1
  Ta5+  Ta22  1  0.37379678  0.60789057  0.11757672  1
  Ta5+  Ta23  1  0.40287918  0.87008406  0.38091383  1
  Ta5+  Ta24  1  0.89512530  0.62835035  0.12818138  1
  Ta5+  Ta25  1  0.85234981  0.12595543  0.12003662  1
  Ta5+  Ta26  1  0.61376163  0.10659926  0.63318145  1
  Ta5+  Ta27  1  0.07536102  0.86763973  0.62371532  1
  Ta5+  Ta28  1  0.62244980  0.87665831  0.13031864  1
  Ta5+  Ta29  1  0.34172172  0.37024323  0.12190317  1
  Ta5+  Ta30  1  0.88436703  0.37990618  0.88463137  1
  Ta5+  Ta31  1  0.37988116  0.11032652  0.62670853  1
  Ta5+  Ta32  1  0.36398653  0.10005897  0.37019303  1
  Ta5+  Ta33  1  0.88041008  0.87420059  0.37428789  1
  Ta5+  Ta34  1  0.10733727  0.39625809  0.62259454  1
  Ta5+  Ta35  1  0.89338095  0.08183391  0.63689289  1
  Ta5+  Ta36  1  0.57723131  0.85929899  0.62588241  1
  Ta5+  Ta37  1  0.62793035  0.87848028  0.87294201  1
  Ta5+  Ta38  1  0.61559424  0.11935054  0.11783482  1
  Ta5+  Ta39  1  0.33762135  0.12383221  0.12006805  1
  Ta5+  Ta40  1  0.86972534  0.39041622  0.37857704  1
  Ta5+  Ta41  1  0.10682945  0.86920334  0.38200283  1
  Ta5+  Ta42  1  0.10426499  0.07754162  0.63751175  1
  Ta5+  Ta43  1  0.10218529  0.39145654  0.37044339  1
  Ta5+  Ta44  1  0.85941453  0.88561010  0.87221657  1
  Ta5+  Ta45  1  0.08866667  0.61485459  0.62234430  1
  Ta5+  Ta46  1  0.36779876  0.89811073  0.86690301  1
  Ta5+  Ta47  1  0.62270993  0.56385748  0.12036352  1
  Ta5+  Ta48  1  0.60434333  0.61783032  0.42381763  1
  Ta5+  Ta49  1  0.60914699  0.37773953  0.63241411  1
  Ta5+  Ta50  1  0.12797669  0.89101704  0.87212548  1
  Ta5+  Ta51  1  0.64211803  0.36958401  0.87885343  1
  Ta5+  Ta52  1  0.37295400  0.61516239  0.37362799  1
  Ta5+  Ta53  1  0.17338147  0.38065113  0.12392660  1
  Ta5+  Ta54  1  0.88406400  0.41074597  0.62470615  1
  Ta5+  Ta55  1  0.61930691  0.37671764  0.37850367  1
  Ta5+  Ta56  1  0.38695319  0.37948478  0.86235099  1
  Ta5+  Ta57  1  0.65263492  0.11735635  0.87955969  1
  Ta5+  Ta58  1  0.41081984  0.86766715  0.61650755  1
  Ta5+  Ta59  1  0.59668837  0.62820157  0.62418321  1
  Ta5+  Ta60  1  0.14324049  0.38821853  0.87759141  1
  Ta5+  Ta61  1  0.86589604  0.63254680  0.37019957  1
  Ta5+  Ta62  1  0.37439951  0.12577533  0.87364787  1
  Ta5+  Ta63  1  0.82542545  0.39607797  0.12292325  1
  Ta5+  Ta64  1  0.12826395  0.62343877  0.12634416  1
  Ta5+  Ta65  1  0.58505475  0.87048127  0.38515426  1
  Ta5+  Ta66  1  0.16009408  0.63085302  0.86974683  1
  Ta5+  Ta67  1  0.38120930  0.37921552  0.59991729  1
  Ta5+  Ta68  1  0.63304976  0.60992694  0.87159296  1
  Ta5+  Ta69  1  0.91022717  0.62502951  0.61523823  1
  Ta5+  Ta70  1  0.13646428  0.12773680  0.88079623  1
  Ta5+  Ta71  1  0.61975221  0.10605332  0.36711506  1
  Ta5+  Ta72  1  0.42538320  0.62390255  0.60714866  1
  Ta5+  Ta73  1  0.37965447  0.89108397  0.12362152  1
  Ta5+  Ta74  1  0.12025415  0.88227005  0.12634799  1
  W6+  W75  1  0.35373300  0.38093221  0.38122234  1
  W6+  W76  1  0.86890436  0.87819115  0.12444074  1
  W6+  W77  1  0.88052086  0.61547211  0.88160287  1
  W6+  W78  1  0.87929990  0.12708122  0.38455694  1
  W6+  W79  1  0.36492449  0.58890395  0.85718608  1
  W6+  W80  1  0.90122599  0.13369886  0.87551261  1
  W6+  W81  1  0.11330977  0.12097864  0.38150391  1
  W6+  W82  1  0.12650313  0.63996281  0.38189579  1
  O2-  O83  1  0.13889990  0.00289531  0.11561572  1
  O2-  O84  1  0.10325795  -0.01291844  0.39121256  1
  O2-  O85  1  0.16009154  -0.02901502  0.63868996  1
  O2-  O86  1  0.09524029  0.00908521  0.88315600  1
  O2-  O87  1  0.13031962  0.50284476  0.12039370  1
  O2-  O88  1  0.11396677  0.50812527  0.37736795  1
  O2-  O89  1  0.16270885  0.50445479  0.62347374  1
  O2-  O90  1  0.14049106  0.50972908  0.89084919  1
  O2-  O91  1  0.39523451  0.00803352  0.14148398  1
  O2-  O92  1  0.34923361  -0.01678645  0.34590359  1
  O2-  O93  1  0.38494269  -0.00735125  0.64524499  1
  O2-  O94  1  0.41721757  0.00800966  0.85193516  1
  O2-  O95  1  0.37760284  0.49069650  0.13936967  1
  O2-  O96  1  0.32241766  0.50989764  0.35178445  1
  O2-  O97  1  0.40697536  0.49596401  0.60538008  1
  O2-  O98  1  0.44688361  0.47862922  0.84560123  1
  O2-  O99  1  0.59541130  0.00083833  0.11812721  1
  O2-  O100  1  0.64560906  -0.00991002  0.37485635  1
  O2-  O101  1  0.59916320  -0.01210959  0.62123636  1
  O2-  O102  1  0.60935742  -0.00078677  0.88395086  1
  O2-  O103  1  0.54982249  0.46785997  0.11944912  1
  O2-  O104  1  0.62678619  0.49763349  0.40084666  1
  O2-  O105  1  0.60265649  0.49638600  0.61850483  1
  O2-  O106  1  0.61574947  0.48866178  0.88384336  1
  O2-  O107  1  0.88357116  0.01365366  0.12601211  1
  O2-  O108  1  0.88272713  -0.00717296  0.38087056  1
  O2-  O109  1  0.83525879  -0.02132382  0.65643740  1
  O2-  O110  1  0.89424494  -0.00181862  0.86407471  1
  O2-  O111  1  0.88377795  0.50599353  0.14514823  1
  O2-  O112  1  0.83441337  0.51308746  0.36100004  1
  O2-  O113  1  0.83229967  0.52037165  0.63730221  1
  O2-  O114  1  0.93163660  0.48785612  0.88409267  1
  O2-  O115  1  0.15415040  0.25585525  0.12931222  1
  O2-  O116  1  0.14392081  0.26262689  0.38207331  1
  O2-  O117  1  0.17196333  0.29025433  0.62702926  1
  O2-  O118  1  0.14546862  0.25276314  0.86067283  1
  O2-  O119  1  0.16269841  0.75718858  0.12086091  1
  O2-  O120  1  0.18815653  0.76598152  0.37180680  1
  O2-  O121  1  0.08357030  0.74644485  0.64732152  1
  O2-  O122  1  0.11349617  0.75984225  0.87548858  1
  O2-  O123  1  0.37143971  0.24504171  0.11075895  1
  O2-  O124  1  0.36115616  0.24145836  0.39925510  1
  O2-  O125  1  0.35352208  0.24048320  0.59643603  1
  O2-  O126  1  0.42155804  0.24746386  0.86579189  1
  O2-  O127  1  0.37126013  0.74921408  0.09108510  1
  O2-  O128  1  0.35868347  0.74699254  0.38715370  1
  O2-  O129  1  0.38316287  0.74494711  0.59941501  1
  O2-  O130  1  0.43426458  0.79474495  0.90100618  1
  O2-  O131  1  0.57018689  0.24329289  0.13521836  1
  O2-  O132  1  0.59342944  0.25090250  0.37558225  1
  O2-  O133  1  0.66068322  0.23541187  0.63607733  1
  O2-  O134  1  0.64691401  0.24366090  0.84893565  1
  O2-  O135  1  0.63049041  0.74780751  0.12243415  1
  O2-  O136  1  0.60825436  0.73599100  0.37221157  1
  O2-  O137  1  0.65524071  0.74690519  0.64259666  1
  O2-  O138  1  0.61265388  0.74197321  0.88748927  1
  O2-  O139  1  0.79341867  0.27063340  0.12077507  1
  O2-  O140  1  0.86965658  0.26444172  0.39457807  1
  O2-  O141  1  0.80580517  0.31800592  0.60982847  1
  O2-  O142  1  0.95183758  0.27560387  0.88780037  1
  O2-  O143  1  0.83749977  0.74147343  0.12569274  1
  O2-  O144  1  0.81498279  0.74931105  0.38080553  1
  O2-  O145  1  0.85538195  0.74501754  0.61486018  1
  O2-  O146  1  0.83918914  0.74737050  0.88281576  1
  O2-  O147  1  0.11008828  0.14934390  0.00238071  1
  O2-  O148  1  0.14796894  0.12880023  0.24849355  1
  O2-  O149  1  0.12565433  0.13008686  0.52959036  1
  O2-  O150  1  0.15785596  0.12432582  0.74020704  1
  O2-  O151  1  0.16325052  0.64306695  -0.00172334  1
  O2-  O152  1  0.11616859  0.64706692  0.24614984  1
  O2-  O153  1  0.14462866  0.65172779  0.51826638  1
  O2-  O154  1  0.10524616  0.62383232  0.75564956  1
  O2-  O155  1  0.39202965  0.12316712  -0.00214133  1
  O2-  O156  1  0.34365431  0.13826811  0.25121748  1
  O2-  O157  1  0.39667383  0.10188869  0.50041518  1
  O2-  O158  1  0.34292476  0.14444226  0.74519418  1
  O2-  O159  1  0.36488307  0.60442507  -0.00439401  1
  O2-  O160  1  0.38617234  0.65775199  0.24502073  1
  O2-  O161  1  0.34248653  0.61945684  0.49584168  1
  O2-  O162  1  0.39781492  0.62624350  0.72809634  1
  O2-  O163  1  0.58932228  0.14284696  -0.01058526  1
  O2-  O164  1  0.64150848  0.12958960  0.24438185  1
  O2-  O165  1  0.61777815  0.13259434  0.50368558  1
  O2-  O166  1  0.66009347  0.10414740  0.74968874  1
  O2-  O167  1  0.64846428  0.61815214  0.00739461  1
  O2-  O168  1  0.63485436  0.60327305  0.23391732  1
  O2-  O169  1  0.68991641  0.63086106  0.51492107  1
  O2-  O170  1  0.58976407  0.62381503  0.75342872  1
  O2-  O171  1  0.91543338  0.15658571  0.01783016  1
  O2-  O172  1  0.86393570  0.15508058  0.24146437  1
  O2-  O173  1  0.85115950  0.13047716  0.53252060  1
  O2-  O174  1  0.84733019  0.14141783  0.73593698  1
  O2-  O175  1  0.83908840  0.61543982  0.01471828  1
  O2-  O176  1  0.91190721  0.64576868  0.25675690  1
  O2-  O177  1  0.91028559  0.63145868  0.48510375  1
  O2-  O178  1  0.90076551  0.64320196  0.74649667  1
  O2-  O179  1  0.11801904  0.36644804  0.00107722  1
  O2-  O180  1  0.16000785  0.37990621  0.25561598  1
  O2-  O181  1  0.09577038  0.37995528  0.49761235  1
  O2-  O182  1  0.12126631  0.38929708  0.75566137  1
  O2-  O183  1  0.15665810  0.87334328  -0.00391146  1
  O2-  O184  1  0.11740601  0.86868838  0.25425713  1
  O2-  O185  1  0.13227913  0.84999983  0.50769243  1
  O2-  O186  1  0.07063047  0.88114281  0.75903614  1
  O2-  O187  1  0.39086530  0.37208096  -0.00768850  1
  O2-  O188  1  0.34665938  0.35113746  0.24942387  1
  O2-  O189  1  0.45027008  0.36690153  0.48538978  1
  O2-  O190  1  0.34848180  0.36368872  0.72613103  1
  O2-  O191  1  0.34682571  0.89999129  -0.00408504  1
  O2-  O192  1  0.40548078  0.84171422  0.24675198  1
  O2-  O193  1  0.34713280  0.87867444  0.49905431  1
  O2-  O194  1  0.38920121  0.85253670  0.74798356  1
  O2-  O195  1  0.60592875  0.34514850  -0.00356925  1
  O2-  O196  1  0.64100497  0.37115739  0.25317096  1
  O2-  O197  1  0.62933148  0.34813899  0.51187074  1
  O2-  O198  1  0.66722680  0.37899521  0.74477947  1
  O2-  O199  1  0.65030537  0.86447982  -0.00069531  1
  O2-  O200  1  0.59464237  0.86397453  0.25196861  1
  O2-  O201  1  0.62558404  0.84992012  0.50443040  1
  O2-  O202  1  0.57397207  0.86182937  0.75965092  1
  O2-  O203  1  0.90163853  0.37069077  0.02539021  1
  O2-  O204  1  0.83753232  0.37194587  0.24555925  1
  O2-  O205  1  0.89514333  0.41425345  0.49802714  1
  O2-  O206  1  0.86118167  0.37265386  0.76047546  1
  O2-  O207  1  0.83164770  0.87723471  -0.00692539  1
  O2-  O208  1  0.88236681  0.86348941  0.25500250  1
  O2-  O209  1  0.85598654  0.86918483  0.50490702  1
  O2-  O210  1  0.89258939  0.84150079  0.75032551  1
  O2-  O211  1  0.00555015  -0.13261006  0.10601418  1
  O2-  O212  1  -0.00616029  -0.17327925  0.39271996  1
  O2-  O213  1  -0.00580539  -0.01152600  0.60768519  1
  O2-  O214  1  -0.00034239  0.14006150  0.66854967  1
  O2-  O215  1  0.00778828  0.64470217  0.09289074  1
  O2-  O216  1  -0.01353975  0.38720126  0.33613786  1
  O2-  O217  1  -0.00235641  0.52271385  0.62161252  1
  O2-  O218  1  -0.00771607  0.35746738  0.64707766  1
  O2-  O219  1  0.25613272  0.10654140  -0.10680902  1
  O2-  O220  1  0.26133159  -0.12073796  0.15635836  1
  O2-  O221  1  0.24698902  0.11964068  0.40500239  1
  O2-  O222  1  0.24769748  -0.09936623  0.84119908  1
  O2-  O223  1  0.26378800  0.37473266  -0.12517853  1
  O2-  O224  1  0.25617676  0.62553657  0.14905178  1
  O2-  O225  1  0.28920969  0.38152153  0.51450290  1
  O2-  O226  1  0.26779294  0.69063916  0.86198613  1
  O2-  O227  1  0.50070900  -0.14155979  0.09175275  1
  O2-  O228  1  0.49471770  0.11442384  0.36263107  1
  O2-  O229  1  0.49459703  -0.05826153  0.42539970  1
  O2-  O230  1  0.49985325  0.14493252  0.64802660  1
  O2-  O231  1  0.50531871  0.62930030  0.11653429  1
  O2-  O232  1  0.49333422  0.60215749  0.35849438  1
  O2-  O233  1  0.52261121  0.65631238  0.51623506  1
  O2-  O234  1  0.49901493  0.33635712  0.64787709  1
  O2-  O235  1  0.76552917  0.11527902  -0.09433409  1
  O2-  O236  1  0.73470491  0.11214180  0.09219724  1
  O2-  O237  1  0.73985238  0.15169884  0.38170930  1
  O2-  O238  1  0.74021848  -0.12447876  0.82066127  1
  O2-  O239  1  0.76402791  0.37523646  -0.09038322  1
  O2-  O240  1  0.71516904  0.45777038  0.10734108  1
  O2-  O241  1  0.74192649  0.35596903  0.39246148  1
  O2-  O242  1  0.74802247  0.61237756  0.83295220  1
