# generated using pymatgen
data_Gd19Ta56(WO20)8
_symmetry_space_group_name_H-M   'P 1'
_cell_length_a   15.38944107
_cell_length_b   15.47484006
_cell_length_c   15.26131598
_cell_angle_alpha   89.81852654
_cell_angle_beta   90.08508049
_cell_angle_gamma   90.15820206
_symmetry_Int_Tables_number   1
_chemical_formula_structural   Gd19Ta56(WO20)8
_chemical_formula_sum   'Gd19 Ta56 W8 O160'
_cell_volume   3634.43321788
_cell_formula_units_Z   1
loop_
 _symmetry_equiv_pos_site_id
 _symmetry_equiv_pos_as_xyz
  1  'x, y, z'
loop_
 _atom_type_symbol
 _atom_type_oxidation_number
  Gd3+  3.0
  Ta5+  5.0
  W6+  6.0
  O2-  -2.0
loop_
 _atom_site_type_symbol
 _atom_site_label
 _atom_site_symmetry_multiplicity
 _atom_site_fract_x
 _atom_site_fract_y
 _atom_site_fract_z
 _atom_site_occupancy
  Gd3+  Gd0  1  0.01187720  0.25036680  -0.01530922  1
  Gd3+  Gd1  1  0.74192426  0.24952394  0.24562655  1
  Gd3+  Gd2  1  0.51200519  0.26075767  0.24626448  1
  Gd3+  Gd3  1  0.00446200  0.77029630  0.00529343  1
  Gd3+  Gd4  1  0.48294363  0.74540498  0.23164652  1
  Gd3+  Gd5  1  0.50757190  0.25336806  -0.01349590  1
  Gd3+  Gd6  1  0.75866337  0.75101239  0.02399625  1
  Gd3+  Gd7  1  0.52551247  0.72839284  0.76081099  1
  Gd3+  Gd8  1  0.00902719  0.28214173  0.74622023  1
  Gd3+  Gd9  1  0.73814474  0.25305223  0.00311382  1
  Gd3+  Gd10  1  0.01170324  0.27324461  0.50991740  1
  Gd3+  Gd11  1  0.73365497  0.74605641  0.49570758  1
  Gd3+  Gd12  1  0.01034996  0.26383761  0.24593154  1
  Gd3+  Gd13  1  0.23653874  0.24878334  0.74814112  1
  Gd3+  Gd14  1  0.46662364  0.21680023  0.72964299  1
  Gd3+  Gd15  1  0.26385585  0.23497816  0.28008360  1
  Gd3+  Gd16  1  0.02656357  0.76556904  0.27007419  1
  Gd3+  Gd17  1  0.27230842  0.24855573  -0.00820018  1
  Gd3+  Gd18  1  0.24859115  0.24707927  0.51940285  1
  Ta5+  Ta19  1  0.85772239  0.37412523  0.62845846  1
  Ta5+  Ta20  1  0.19628787  0.66202075  0.38676772  1
  Ta5+  Ta21  1  0.11981993  0.09150477  0.64669761  1
  Ta5+  Ta22  1  0.60516415  0.10443839  0.61619384  1
  Ta5+  Ta23  1  0.83680409  0.87860585  0.36505785  1
  Ta5+  Ta24  1  0.32935748  0.05970309  0.87665194  1
  Ta5+  Ta25  1  0.81117274  0.61785094  0.63050904  1
  Ta5+  Ta26  1  0.14503923  0.42829315  0.84909324  1
  Ta5+  Ta27  1  0.88094444  0.88723735  0.14344481  1
  Ta5+  Ta28  1  0.10079817  0.46547907  0.59803764  1
  Ta5+  Ta29  1  0.87186414  0.12866520  0.86269361  1
  Ta5+  Ta30  1  0.63817355  0.61711337  0.35892319  1
  Ta5+  Ta31  1  0.62455074  0.35013593  0.62270572  1
  Ta5+  Ta32  1  0.38276194  0.10252250  0.12070234  1
  Ta5+  Ta33  1  0.60012212  0.11566465  0.11703357  1
  Ta5+  Ta34  1  0.63244332  0.87013618  0.13281567  1
  Ta5+  Ta35  1  0.34498990  0.82757330  0.38108703  1
  Ta5+  Ta36  1  0.13706546  0.13078394  0.12312059  1
  Ta5+  Ta37  1  0.37806298  0.41567562  0.82079581  1
  Ta5+  Ta38  1  0.67264482  0.61308111  0.87601965  1
  Ta5+  Ta39  1  0.85593680  0.63401915  0.87698359  1
  Ta5+  Ta40  1  0.91127080  0.11018295  0.62913008  1
  Ta5+  Ta41  1  0.60900139  0.40999497  0.83988407  1
  Ta5+  Ta42  1  0.18165800  0.39283775  0.14342876  1
  Ta5+  Ta43  1  0.38977586  0.84529784  0.88883795  1
  Ta5+  Ta44  1  0.87368038  0.62975648  0.37085879  1
  Ta5+  Ta45  1  0.35091995  0.81648396  0.63053367  1
  Ta5+  Ta46  1  0.32796799  0.85703608  0.12176477  1
  Ta5+  Ta47  1  0.18009053  0.86933090  0.38753419  1
  Ta5+  Ta48  1  0.84369926  0.43443620  0.86538992  1
  Ta5+  Ta49  1  0.10667783  0.08823067  0.43781258  1
  Ta5+  Ta50  1  0.63490592  0.37635612  0.38182510  1
  Ta5+  Ta51  1  0.32656362  0.63901186  0.11842133  1
  Ta5+  Ta52  1  0.63304677  0.61078864  0.13131345  1
  Ta5+  Ta53  1  0.65920627  0.86675784  0.87086706  1
  Ta5+  Ta54  1  0.39020206  0.38684851  0.40576293  1
  Ta5+  Ta55  1  0.38685817  0.40001110  0.10903256  1
  Ta5+  Ta56  1  0.11361414  0.09699836  0.86897291  1
  Ta5+  Ta57  1  0.62626162  0.11973892  0.37469113  1
  Ta5+  Ta58  1  0.36394867  0.62615457  0.37586486  1
  Ta5+  Ta59  1  0.17578622  0.85981335  0.63897333  1
  Ta5+  Ta60  1  0.37723774  0.07276575  0.37719492  1
  Ta5+  Ta61  1  0.87290279  0.12223321  0.38563067  1
  Ta5+  Ta62  1  0.14290063  0.42439371  0.39645857  1
  Ta5+  Ta63  1  0.34527391  0.64839597  0.86593077  1
  Ta5+  Ta64  1  0.86904166  0.12896919  0.12133605  1
  Ta5+  Ta65  1  0.83030582  0.88509878  0.87462448  1
  Ta5+  Ta66  1  0.15707227  0.64304324  0.13224636  1
  Ta5+  Ta67  1  0.38189606  0.61878036  0.62501338  1
  Ta5+  Ta68  1  0.63877955  0.11614924  0.85915793  1
  Ta5+  Ta69  1  0.63956680  0.60070789  0.62085741  1
  Ta5+  Ta70  1  0.35592257  0.05567916  0.62690685  1
  Ta5+  Ta71  1  0.14748866  0.67117775  0.87824910  1
  Ta5+  Ta72  1  0.88490563  0.38101289  0.37638943  1
  Ta5+  Ta73  1  0.13734439  0.88975545  0.87049468  1
  Ta5+  Ta74  1  0.65588006  0.87319178  0.35725888  1
  W6+  W75  1  0.87959650  0.39245781  0.11599073  1
  W6+  W76  1  0.45387642  0.41961906  0.63885493  1
  W6+  W77  1  0.90540507  0.63448115  0.14156011  1
  W6+  W78  1  0.22580207  0.68384966  0.64045654  1
  W6+  W79  1  0.58346856  0.43971082  0.14502004  1
  W6+  W80  1  0.61275586  0.86039764  0.61803940  1
  W6+  W81  1  0.16167971  0.87834210  0.12924734  1
  W6+  W82  1  0.86266337  0.86821897  0.62526380  1
  O2-  O83  1  0.15107771  0.01487407  0.13031957  1
  O2-  O84  1  0.16487443  0.00134238  0.37821892  1
  O2-  O85  1  0.10891730  -0.02792672  0.64996779  1
  O2-  O86  1  0.06425820  -0.01978833  0.83616584  1
  O2-  O87  1  0.15266447  0.51107375  0.12747397  1
  O2-  O88  1  0.18421740  0.53107071  0.35991420  1
  O2-  O89  1  0.14849234  0.55784734  0.65689330  1
  O2-  O90  1  0.13890009  0.54813919  0.85655882  1
  O2-  O91  1  0.35971597  -0.01680899  0.12483869  1
  O2-  O92  1  0.34647311  -0.04408403  0.36539186  1
  O2-  O93  1  0.30171900  -0.05605172  0.63801609  1
  O2-  O94  1  0.41237131  -0.03012308  0.90107586  1
  O2-  O95  1  0.36010834  0.52079766  0.11472985  1
  O2-  O96  1  0.36291613  0.49835636  0.36373483  1
  O2-  O97  1  0.35014930  0.50126678  0.65921717  1
  O2-  O98  1  0.32851750  0.51917501  0.86344743  1
  O2-  O99  1  0.61526670  -0.00533836  0.12234778  1
  O2-  O100  1  0.64625565  0.00166891  0.35452914  1
  O2-  O101  1  0.63426787  -0.00915136  0.62206104  1
  O2-  O102  1  0.64155302  -0.00218139  0.86437529  1
  O2-  O103  1  0.70095872  0.51281887  0.14774338  1
  O2-  O104  1  0.65564243  0.49413914  0.35414639  1
  O2-  O105  1  0.59266185  0.47366338  0.62374842  1
  O2-  O106  1  0.59241344  0.51475108  0.90131472  1
  O2-  O107  1  0.89157211  0.01087467  0.11824641  1
  O2-  O108  1  0.83912054  0.00534368  0.36659462  1
  O2-  O109  1  0.90933798  -0.00807537  0.61622986  1
  O2-  O110  1  0.84243620  0.01291586  0.89585887  1
  O2-  O111  1  0.89289570  0.51084863  0.11538563  1
  O2-  O112  1  0.88311944  0.50043648  0.38273123  1
  O2-  O113  1  0.82978431  0.49029691  0.61544114  1
  O2-  O114  1  0.93014321  0.51893835  0.87412092  1
  O2-  O115  1  0.14759009  0.28427196  0.08703060  1
  O2-  O116  1  0.02463152  0.37527471  0.39538089  1
  O2-  O117  1  0.13727196  0.22906928  0.63444187  1
  O2-  O118  1  0.11464576  0.22294529  0.83977813  1
  O2-  O119  1  0.09654276  0.75968366  0.12749158  1
  O2-  O120  1  0.10820360  0.76192485  0.39601030  1
  O2-  O121  1  0.11262673  0.76082098  0.65462509  1
  O2-  O122  1  0.07511830  0.77427147  0.85993739  1
  O2-  O123  1  0.39683637  0.26415953  0.08886355  1
  O2-  O124  1  0.29468081  0.16143546  0.40905117  1
  O2-  O125  1  0.32311203  0.17860353  0.63656753  1
  O2-  O126  1  0.31280667  0.18580572  0.85568696  1
  O2-  O127  1  0.39580436  0.74808312  0.10478713  1
  O2-  O128  1  0.43918618  0.73080821  0.37380298  1
  O2-  O129  1  0.44852810  0.73401739  0.62844121  1
  O2-  O130  1  0.44569562  0.73006995  0.89990267  1
  O2-  O131  1  0.60472318  0.24776470  0.10543138  1
  O2-  O132  1  0.59824841  0.25135289  0.37133263  1
  O2-  O133  1  0.55934659  0.24401513  0.60551968  1
  O2-  O134  1  0.52467183  0.16679078  0.85523554  1
  O2-  O135  1  0.63887528  0.74091101  0.14559898  1
  O2-  O136  1  0.64333825  0.74518700  0.35494984  1
  O2-  O137  1  0.62485205  0.72720098  0.61825815  1
  O2-  O138  1  0.65319739  0.73548803  0.86972736  1
  O2-  O139  1  0.82201947  0.27331301  0.12495720  1
  O2-  O140  1  0.92818941  0.24486810  0.38357105  1
  O2-  O141  1  0.91991846  0.24785541  0.63165025  1
  O2-  O142  1  0.92346363  0.24629731  0.85655333  1
  O2-  O143  1  0.92480899  0.76689758  0.14657711  1
  O2-  O144  1  0.88338286  0.75707051  0.35974330  1
  O2-  O145  1  0.81252949  0.74709800  0.62645096  1
  O2-  O146  1  0.84772078  0.75613537  0.87072412  1
  O2-  O147  1  0.14736872  0.14463370  -0.01312921  1
  O2-  O148  1  0.12597550  0.21100360  0.42805368  1
  O2-  O149  1  0.02801444  0.11807106  0.54870210  1
  O2-  O150  1  0.01375592  0.12623337  0.71493855  1
  O2-  O151  1  0.12157266  0.65956046  -0.00128154  1
  O2-  O152  1  0.15246398  0.66201880  0.25345708  1
  O2-  O153  1  0.20786832  0.66390736  0.50682732  1
  O2-  O154  1  0.24469611  0.68267971  0.79455600  1
  O2-  O155  1  0.33822271  0.10813629  -0.00528170  1
  O2-  O156  1  0.34405680  0.10878288  0.25787303  1
  O2-  O157  1  0.38147541  0.05219595  0.50809133  1
  O2-  O158  1  0.37520451  0.06343667  0.75878464  1
  O2-  O159  1  0.31223263  0.64576121  -0.01383610  1
  O2-  O160  1  0.36584627  0.64285959  0.24371666  1
  O2-  O161  1  0.39408573  0.61117944  0.50255677  1
  O2-  O162  1  0.41759438  0.63002297  0.75928022  1
  O2-  O163  1  0.64166434  0.13677216  -0.01425834  1
  O2-  O164  1  0.63331890  0.14802904  0.24464743  1
  O2-  O165  1  0.64442543  0.12717635  0.50020221  1
  O2-  O166  1  0.64631179  0.13936141  0.72895305  1
  O2-  O167  1  0.66071344  0.63452803  0.01086569  1
  O2-  O168  1  0.56699064  0.61802384  0.24818617  1
  O2-  O169  1  0.63873387  0.61398119  0.48522519  1
  O2-  O170  1  0.62995050  0.60601953  0.75267104  1
  O2-  O171  1  0.86819784  0.16921610  -0.00117057  1
  O2-  O172  1  0.88600526  0.15813947  0.24533459  1
  O2-  O173  1  0.86125548  0.13141003  0.51083942  1
  O2-  O174  1  0.84814144  0.11623776  0.73784464  1
  O2-  O175  1  0.88354071  0.66265725  0.00700216  1
  O2-  O176  1  0.95563966  0.62919981  0.27289162  1
  O2-  O177  1  0.84226706  0.63596082  0.49524235  1
  O2-  O178  1  0.83834146  0.61773764  0.75012464  1
  O2-  O179  1  0.06146592  0.37763934  -0.08349151  1
  O2-  O180  1  0.12806357  0.37238796  0.26093345  1
  O2-  O181  1  0.15976112  0.37385328  0.52807155  1
  O2-  O182  1  0.12324050  0.39256123  0.73302795  1
  O2-  O183  1  0.12100367  0.87262786  -0.00441230  1
  O2-  O184  1  0.14388442  0.86442549  0.26250333  1
  O2-  O185  1  0.17300143  0.87683094  0.51300931  1
  O2-  O186  1  0.20579097  0.87070571  0.77155648  1
  O2-  O187  1  0.41548774  0.33489642  -0.09673726  1
  O2-  O188  1  0.39615946  0.28621187  0.33374836  1
  O2-  O189  1  0.37649009  0.35554307  0.52455728  1
  O2-  O190  1  0.36539695  0.33215648  0.72218843  1
  O2-  O191  1  0.31665901  0.84702935  -0.01107896  1
  O2-  O192  1  0.35776651  0.83553668  0.24378792  1
  O2-  O193  1  0.35712453  0.82709544  0.50649458  1
  O2-  O194  1  0.39044792  0.83312004  0.76333800  1
  O2-  O195  1  0.62645790  0.32800838  -0.07068601  1
  O2-  O196  1  0.63334617  0.35607691  0.24633113  1
  O2-  O197  1  0.65878753  0.36483263  0.50325851  1
  O2-  O198  1  0.57972163  0.32201690  0.74879246  1
  O2-  O199  1  0.64767330  0.85672195  0.00150268  1
  O2-  O200  1  0.57320662  0.86967587  0.24720245  1
  O2-  O201  1  0.64159371  0.86577559  0.48112312  1
  O2-  O202  1  0.60553468  0.85744241  0.75521465  1
  O2-  O203  1  0.84187346  0.37147453  -0.02767711  1
  O2-  O204  1  0.76541254  0.34751771  0.35991636  1
  O2-  O205  1  0.87723056  0.35521927  0.50436995  1
  O2-  O206  1  0.89133530  0.38440543  0.75670163  1
  O2-  O207  1  0.87576253  0.86075956  0.00647859  1
  O2-  O208  1  0.92725883  0.89333358  0.26139698  1
  O2-  O209  1  0.83491841  0.86276076  0.48978093  1
  O2-  O210  1  0.84715690  0.88931169  0.75428830  1
  O2-  O211  1  0.00972367  0.15428274  0.11067886  1
  O2-  O212  1  0.13006996  0.17274416  0.24161966  1
  O2-  O213  1  -0.00207749  0.08348015  0.38000390  1
  O2-  O214  1  -0.00395511  0.10798934  0.90685299  1
  O2-  O215  1  -0.00896522  0.32838420  0.10852926  1
  O2-  O216  1  -0.09391670  0.37001785  0.25197182  1
  O2-  O217  1  0.07780223  0.50767134  0.48690993  1
  O2-  O218  1  -0.00474353  0.39947549  0.61982440  1
  O2-  O219  1  0.21599075  0.00787831  -0.10413774  1
  O2-  O220  1  0.26386834  0.16584358  0.12740170  1
  O2-  O221  1  0.19422125  0.08995604  0.54179761  1
  O2-  O222  1  0.18670486  0.09961749  0.75636790  1
  O2-  O223  1  0.27249866  0.38998675  0.04168069  1
  O2-  O224  1  0.28837841  0.36521583  0.20328616  1
  O2-  O225  1  0.24854207  0.35244279  0.39186503  1
  O2-  O226  1  0.24937188  0.36097994  0.85760300  1
  O2-  O227  1  0.49095379  0.11228225  0.04124127  1
  O2-  O228  1  0.48875859  0.12522667  0.19213646  1
  O2-  O229  1  0.49687041  0.10388341  0.37746288  1
  O2-  O230  1  0.48409177  0.09335463  0.63967281  1
  O2-  O231  1  0.49443253  0.41048716  0.04510866  1
  O2-  O232  1  0.46462701  0.39682362  0.20910900  1
  O2-  O233  1  0.51201679  0.40274219  0.40242785  1
  O2-  O234  1  0.48955235  0.45373261  0.78070720  1
  O2-  O235  1  0.74477757  0.12575537  0.12281291  1
  O2-  O236  1  0.75895817  -0.12803518  0.13911751  1
  O2-  O237  1  0.75315524  0.15895071  0.36482723  1
  O2-  O238  1  0.75131097  0.17927726  0.86901997  1
  O2-  O239  1  0.77294140  0.53518488  -0.08394899  1
  O2-  O240  1  0.76081050  0.62879363  0.32557647  1
  O2-  O241  1  0.74503615  0.32425390  0.65039802  1
  O2-  O242  1  0.72692889  0.41948265  0.80801221  1
