# generated using pymatgen
data_Gd19Ta56(WO20)8
_symmetry_space_group_name_H-M   'P 1'
_cell_length_a   15.55377290
_cell_length_b   15.56872040
_cell_length_c   15.27483336
_cell_angle_alpha   89.89945598
_cell_angle_beta   90.18147705
_cell_angle_gamma   90.09054734
_symmetry_Int_Tables_number   1
_chemical_formula_structural   Gd19Ta56(WO20)8
_chemical_formula_sum   'Gd19 Ta56 W8 O160'
_cell_volume   3698.80783045
_cell_formula_units_Z   1
loop_
 _symmetry_equiv_pos_site_id
 _symmetry_equiv_pos_as_xyz
  1  'x, y, z'
loop_
 _atom_type_symbol
 _atom_type_oxidation_number
  Gd3+  3.0
  Ta5+  5.0
  W6+  6.0
  O2-  -2.0
loop_
 _atom_site_type_symbol
 _atom_site_label
 _atom_site_symmetry_multiplicity
 _atom_site_fract_x
 _atom_site_fract_y
 _atom_site_fract_z
 _atom_site_occupancy
  Gd3+  Gd0  1  0.53333728  0.23713834  0.47500433  1
  Gd3+  Gd1  1  0.50260085  0.74059574  0.01013589  1
  Gd3+  Gd2  1  0.49435912  0.75111910  0.49050449  1
  Gd3+  Gd3  1  0.24765646  0.25141881  0.75543845  1
  Gd3+  Gd4  1  -0.00940657  0.74852029  0.50429082  1
  Gd3+  Gd5  1  0.76565795  0.24516037  0.47487176  1
  Gd3+  Gd6  1  0.48271693  0.74230072  0.74087602  1
  Gd3+  Gd7  1  0.00981632  0.75152053  0.24412781  1
  Gd3+  Gd8  1  -0.00020320  0.24047530  0.01224424  1
  Gd3+  Gd9  1  0.76602005  0.74795540  -0.01343720  1
  Gd3+  Gd10  1  -0.01934531  0.23950295  0.24667857  1
  Gd3+  Gd11  1  0.00174911  0.74128098  0.76570786  1
  Gd3+  Gd12  1  0.23812870  0.25242921  0.00194604  1
  Gd3+  Gd13  1  0.76776726  0.25553730  0.76701511  1
  Gd3+  Gd14  1  0.71871233  0.78716852  0.46458107  1
  Gd3+  Gd15  1  0.49407118  0.26610662  0.75257263  1
  Gd3+  Gd16  1  0.23118465  0.74884844  0.51037700  1
  Gd3+  Gd17  1  0.25795683  0.74630038  0.02552580  1
  Gd3+  Gd18  1  0.20485269  0.25165794  0.49878040  1
  Ta5+  Ta19  1  0.62837397  0.62101027  0.86573238  1
  Ta5+  Ta20  1  0.61746754  0.12270345  0.86564101  1
  Ta5+  Ta21  1  0.37914942  0.62516082  0.15752617  1
  Ta5+  Ta22  1  0.87728534  0.12489236  0.62401989  1
  Ta5+  Ta23  1  0.14889368  0.61254022  0.37740541  1
  Ta5+  Ta24  1  0.37875957  0.87754929  0.88447874  1
  Ta5+  Ta25  1  0.86520991  0.38435557  0.61661233  1
  Ta5+  Ta26  1  0.11993800  0.62042790  0.13434732  1
  Ta5+  Ta27  1  0.86647698  0.88405884  0.85295586  1
  Ta5+  Ta28  1  0.06792802  0.37792094  0.39278984  1
  Ta5+  Ta29  1  0.35582505  0.61695021  0.37766767  1
  Ta5+  Ta30  1  0.62661585  0.38052715  0.86952087  1
  Ta5+  Ta31  1  0.62457204  0.89619416  0.08865881  1
  Ta5+  Ta32  1  0.12121407  0.11928278  0.13976742  1
  Ta5+  Ta33  1  0.63003845  0.87222829  0.63427676  1
  Ta5+  Ta34  1  0.63880831  0.38034592  0.35485481  1
  Ta5+  Ta35  1  0.34735429  0.12483833  0.38848981  1
  Ta5+  Ta36  1  0.93144018  0.37537982  0.86283267  1
  Ta5+  Ta37  1  0.83976876  0.62807467  0.62740956  1
  Ta5+  Ta38  1  0.35546559  0.88423408  0.37710906  1
  Ta5+  Ta39  1  0.65522289  0.11051574  0.34765631  1
  Ta5+  Ta40  1  0.62472354  0.62880549  0.36394059  1
  Ta5+  Ta41  1  0.39314635  0.12178505  0.62528585  1
  Ta5+  Ta42  1  0.10131745  0.37502678  0.87266281  1
  Ta5+  Ta43  1  0.63090098  0.88159893  0.87778106  1
  Ta5+  Ta44  1  0.38904898  0.37884143  0.60977896  1
  Ta5+  Ta45  1  0.07129611  0.11907816  0.39365126  1
  Ta5+  Ta46  1  0.88689645  0.62010154  0.11931385  1
  Ta5+  Ta47  1  0.09554616  0.37637774  0.65074306  1
  Ta5+  Ta48  1  0.13873517  0.88060877  0.13898026  1
  Ta5+  Ta49  1  0.37466072  0.12344858  0.88683921  1
  Ta5+  Ta50  1  0.35265912  0.61472717  0.62057309  1
  Ta5+  Ta51  1  0.35988001  0.88144872  0.62395156  1
  Ta5+  Ta52  1  0.63011199  0.61845752  0.11417552  1
  Ta5+  Ta53  1  0.90080361  0.37928878  0.37013049  1
  Ta5+  Ta54  1  0.09580220  0.12432489  0.65047756  1
  Ta5+  Ta55  1  0.15073671  0.88624885  0.37833504  1
  Ta5+  Ta56  1  0.87440317  0.87519783  0.35859490  1
  Ta5+  Ta57  1  0.10131879  0.38244432  0.13776745  1
  Ta5+  Ta58  1  0.34455412  0.37639330  0.14187483  1
  Ta5+  Ta59  1  0.37285530  0.38993007  0.88473042  1
  Ta5+  Ta60  1  0.92635490  0.12353957  0.86101803  1
  Ta5+  Ta61  1  0.10104866  0.12161091  0.87266256  1
  Ta5+  Ta62  1  0.13734939  0.87670133  0.88842815  1
  Ta5+  Ta63  1  0.60553803  0.11712559  0.62775120  1
  Ta5+  Ta64  1  0.38163010  0.87233750  0.15142825  1
  Ta5+  Ta65  1  0.60735864  0.38637721  0.61334398  1
  Ta5+  Ta66  1  0.89653623  0.87680333  0.10525142  1
  Ta5+  Ta67  1  0.11403950  0.88320484  0.63457152  1
  Ta5+  Ta68  1  0.86395993  0.37668508  0.11564232  1
  Ta5+  Ta69  1  0.11592066  0.61689317  0.89276769  1
  Ta5+  Ta70  1  0.70038524  0.13102415  0.10098188  1
  Ta5+  Ta71  1  0.86875611  0.11315408  0.11493501  1
  Ta5+  Ta72  1  0.87545063  0.60796411  0.86691252  1
  Ta5+  Ta73  1  0.86799778  0.62141600  0.37154891  1
  Ta5+  Ta74  1  0.39537686  0.37387169  0.38634197  1
  W6+  W75  1  0.90650142  0.11255576  0.37760233  1
  W6+  W76  1  0.31469524  0.11554435  0.14087800  1
  W6+  W77  1  0.37261800  0.62354253  0.88410365  1
  W6+  W78  1  0.10501648  0.62146687  0.63213129  1
  W6+  W79  1  0.63920808  0.62566965  0.61944170  1
  W6+  W80  1  0.70399446  0.38148433  0.10798528  1
  W6+  W81  1  0.88372423  0.87593184  0.62150454  1
  W6+  W82  1  0.64222311  0.93252393  0.31677350  1
  O2-  O83  1  0.15689349  0.00026853  0.14407597  1
  O2-  O84  1  0.11847184  0.00112033  0.38983876  1
  O2-  O85  1  0.08718731  0.00032464  0.63827427  1
  O2-  O86  1  0.11339810  -0.00449179  0.88861381  1
  O2-  O87  1  0.08684884  0.50353813  0.12125463  1
  O2-  O88  1  0.11423873  0.49871809  0.38564888  1
  O2-  O89  1  0.10462225  0.49214381  0.63426920  1
  O2-  O90  1  0.12740456  0.49611888  0.89109344  1
  O2-  O91  1  0.34381406  -0.01777390  0.14604138  1
  O2-  O92  1  0.37472152  0.00598313  0.39323885  1
  O2-  O93  1  0.35733959  0.00426053  0.63231968  1
  O2-  O94  1  0.39290626  -0.00165288  0.88197865  1
  O2-  O95  1  0.36546608  0.50632151  0.15336354  1
  O2-  O96  1  0.38534478  0.49622883  0.38839610  1
  O2-  O97  1  0.33968945  0.49181565  0.61610096  1
  O2-  O98  1  0.32574316  0.49577171  0.87037656  1
  O2-  O99  1  0.63971127  0.01325114  0.09414816  1
  O2-  O100  1  0.72593679  0.02237085  0.38968506  1
  O2-  O101  1  0.61949741  -0.00430145  0.63779018  1
  O2-  O102  1  0.60470410  0.00163956  0.85671119  1
  O2-  O103  1  0.69052663  0.51760147  0.10914418  1
  O2-  O104  1  0.63739780  0.49948181  0.36984394  1
  O2-  O105  1  0.66006470  0.49086725  0.60340051  1
  O2-  O106  1  0.63620474  0.49979650  0.84931696  1
  O2-  O107  1  0.84691440  -0.01420400  0.10935418  1
  O2-  O108  1  0.92462450  -0.02111020  0.38161280  1
  O2-  O109  1  0.88834425  0.00826492  0.62435341  1
  O2-  O110  1  0.89257690  0.00162985  0.85782852  1
  O2-  O111  1  0.88900781  0.50089978  0.12181917  1
  O2-  O112  1  0.86986720  0.50377722  0.36513846  1
  O2-  O113  1  0.86195776  0.50671420  0.61263642  1
  O2-  O114  1  0.87167742  0.48901842  0.87073109  1
  O2-  O115  1  0.09138604  0.25115443  0.14013413  1
  O2-  O116  1  0.07973451  0.24782182  0.39641569  1
  O2-  O117  1  0.14708268  0.24998239  0.64043815  1
  O2-  O118  1  0.14641444  0.24844013  0.86329391  1
  O2-  O119  1  0.15680581  0.75012071  0.14329458  1
  O2-  O120  1  0.14990829  0.75279898  0.38112637  1
  O2-  O121  1  0.08217147  0.75716068  0.63215735  1
  O2-  O122  1  0.10260436  0.75481801  0.90069665  1
  O2-  O123  1  0.32764912  0.25453935  0.12414608  1
  O2-  O124  1  0.40803397  0.23615303  0.39802030  1
  O2-  O125  1  0.40006583  0.25125344  0.62626808  1
  O2-  O126  1  0.34081850  0.25699156  0.88914269  1
  O2-  O127  1  0.33556879  0.74977081  0.15744714  1
  O2-  O128  1  0.35584997  0.75195543  0.40715635  1
  O2-  O129  1  0.38695328  0.75172031  0.61661194  1
  O2-  O130  1  0.43104820  0.75947369  0.88076276  1
  O2-  O131  1  0.69838200  0.24868307  0.10196657  1
  O2-  O132  1  0.64394581  0.23899893  0.36926922  1
  O2-  O133  1  0.58159988  0.25083231  0.62609884  1
  O2-  O134  1  0.62357619  0.25227387  0.84936957  1
  O2-  O135  1  0.64605258  0.74601353  0.08155311  1
  O2-  O136  1  0.59561322  0.74864805  0.37663292  1
  O2-  O137  1  0.57391484  0.75316188  0.62244701  1
  O2-  O138  1  0.62297926  0.75125232  0.89373322  1
  O2-  O139  1  0.89781033  0.24749132  0.12061597  1
  O2-  O140  1  0.88027122  0.25113069  0.37482521  1
  O2-  O141  1  0.80719748  0.25635433  0.62088258  1
  O2-  O142  1  0.90061646  0.25248492  0.84984503  1
  O2-  O143  1  0.84797143  0.75892043  0.11175905  1
  O2-  O144  1  0.92805690  0.75191101  0.36657515  1
  O2-  O145  1  0.90499838  0.73741545  0.63130641  1
  O2-  O146  1  0.87754968  0.74930038  0.85924721  1
  O2-  O147  1  0.13034025  0.14663630  0.00262359  1
  O2-  O148  1  0.09411420  0.12711218  0.26756079  1
  O2-  O149  1  0.12258456  0.12859455  0.51999434  1
  O2-  O150  1  0.17653310  0.11786345  0.74871550  1
  O2-  O151  1  0.16843821  0.62724119  0.01369678  1
  O2-  O152  1  0.09057809  0.62851446  0.26301659  1
  O2-  O153  1  0.09061150  0.64154062  0.49073760  1
  O2-  O154  1  0.11483793  0.63563891  0.76982791  1
  O2-  O155  1  0.31413693  0.12101932  -0.00745410  1
  O2-  O156  1  0.30294751  0.13316439  0.27866025  1
  O2-  O157  1  0.31756933  0.14135810  0.52025866  1
  O2-  O158  1  0.35480145  0.14158929  0.75978697  1
  O2-  O159  1  0.38258923  0.64623179  0.02766024  1
  O2-  O160  1  0.42732446  0.63972517  0.27677406  1
  O2-  O161  1  0.41148234  0.62428341  0.50818663  1
  O2-  O162  1  0.39401039  0.62090857  0.73607661  1
  O2-  O163  1  0.68466818  0.12509527  -0.03540613  1
  O2-  O164  1  0.68738578  0.12139448  0.23160570  1
  O2-  O165  1  0.65204382  0.14188055  0.51103151  1
  O2-  O166  1  0.66635277  0.13403495  0.74347073  1
  O2-  O167  1  0.58085169  0.61131010  -0.01392681  1
  O2-  O168  1  0.61049905  0.62733278  0.23722465  1
  O2-  O169  1  0.58564089  0.62365967  0.48483765  1
  O2-  O170  1  0.57629660  0.63160234  0.75434119  1
  O2-  O171  1  0.89492466  0.13095357  -0.01724652  1
  O2-  O172  1  0.88828264  0.11807559  0.23986661  1
  O2-  O173  1  0.84431124  0.12858132  0.50345465  1
  O2-  O174  1  0.84327997  0.13385590  0.74604263  1
  O2-  O175  1  0.85564865  0.62759731  -0.00148911  1
  O2-  O176  1  0.89702758  0.64121321  0.24832509  1
  O2-  O177  1  0.90133102  0.63052627  0.49242605  1
  O2-  O178  1  0.91321205  0.61829541  0.74636691  1
  O2-  O179  1  0.11384386  0.34942799  0.00385975  1
  O2-  O180  1  0.07749018  0.37433540  0.26176657  1
  O2-  O181  1  0.11984560  0.36624099  0.51759646  1
  O2-  O182  1  0.17730281  0.37845943  0.75081613  1
  O2-  O183  1  0.17610409  0.87241326  0.01656400  1
  O2-  O184  1  0.09160806  0.87261038  0.26336501  1
  O2-  O185  1  0.09388523  0.86500170  0.50338283  1
  O2-  O186  1  0.11341449  0.86606240  0.76082149  1
  O2-  O187  1  0.35955715  0.38431056  0.00950544  1
  O2-  O188  1  0.34787823  0.36314995  0.27530821  1
  O2-  O189  1  0.32274436  0.35491981  0.49677875  1
  O2-  O190  1  0.36455002  0.35382130  0.75047444  1
  O2-  O191  1  0.37395954  0.85337982  0.01522412  1
  O2-  O192  1  0.42349171  0.86520625  0.27442880  1
  O2-  O193  1  0.41715683  0.88113405  0.51021164  1
  O2-  O194  1  0.39791789  0.87168617  0.74503916  1
  O2-  O195  1  0.69215426  0.37751892  -0.03177397  1
  O2-  O196  1  0.68756064  0.37377722  0.24702000  1
  O2-  O197  1  0.64724200  0.34722702  0.49347035  1
  O2-  O198  1  0.65505997  0.36260890  0.73287823  1
  O2-  O199  1  0.54640833  0.88125439  -0.02065927  1
  O2-  O200  1  0.60399597  0.86935101  0.20480202  1
  O2-  O201  1  0.60714377  0.86964748  0.51115202  1
  O2-  O202  1  0.58503947  0.85685328  0.75748506  1
  O2-  O203  1  0.91248113  0.36397384  -0.00648002  1
  O2-  O204  1  0.89279041  0.36816346  0.24237454  1
  O2-  O205  1  0.83509680  0.37528071  0.49148704  1
  O2-  O206  1  0.84378674  0.37696238  0.74131547  1
  O2-  O207  1  0.88440216  0.86715943  -0.02277940  1
  O2-  O208  1  0.90802198  0.86502794  0.23660624  1
  O2-  O209  1  0.85629539  0.84506303  0.48518374  1
  O2-  O210  1  0.93501501  0.87149821  0.75041699  1
  O2-  O211  1  0.00494990  0.10386867  0.10973806  1
  O2-  O212  1  0.01797039  -0.13640527  0.10122980  1
  O2-  O213  1  -0.01438468  0.17466234  0.61625054  1
  O2-  O214  1  0.01866294  0.12458605  0.76713011  1
  O2-  O215  1  -0.00475535  0.61741247  -0.09442824  1
  O2-  O216  1  0.00450650  0.66700830  0.10744646  1
  O2-  O217  1  -0.02236085  0.35128841  0.60942339  1
  O2-  O218  1  0.01872688  0.37784646  0.76438010  1
  O2-  O219  1  0.26140876  -0.14064938  -0.13292399  1
  O2-  O220  1  0.25577531  -0.11152525  0.30018945  1
  O2-  O221  1  0.25375563  -0.11318548  0.46174782  1
  O2-  O222  1  0.24024106  -0.14063900  0.63169639  1
  O2-  O223  1  0.22396198  0.38919317  0.14056391  1
  O2-  O224  1  0.25856727  0.61316515  0.29901604  1
  O2-  O225  1  0.25232813  0.61137609  0.46044934  1
  O2-  O226  1  0.24164788  0.65752316  0.63043317  1
  O2-  O227  1  0.49682933  0.14863706  -0.10804411  1
  O2-  O228  1  0.55672514  0.04361274  0.34164044  1
  O2-  O229  1  0.49130224  0.11042320  0.54665761  1
  O2-  O230  1  0.50299164  0.12186686  0.70832228  1
  O2-  O231  1  0.49930155  0.37144922  -0.12845346  1
  O2-  O232  1  0.51572271  0.36223315  0.35155662  1
  O2-  O233  1  0.48276170  0.37514721  0.52115492  1
  O2-  O234  1  0.49989827  0.40360734  0.67826074  1
  O2-  O235  1  0.70926551  -0.11591279  -0.01338555  1
  O2-  O236  1  0.75607485  -0.14852718  0.33641785  1
  O2-  O237  1  0.74450295  -0.15191336  0.63177562  1
  O2-  O238  1  0.74795628  -0.11774057  0.82426840  1
  O2-  O239  1  0.74835129  0.63467469  -0.12114486  1
  O2-  O240  1  0.74762553  0.65238824  0.36680549  1
  O2-  O241  1  0.74932903  0.67004630  0.54827969  1
  O2-  O242  1  0.74820436  0.62491568  0.70663137  1
