# generated using pymatgen
data_Gd19Ta56(WO20)8
_symmetry_space_group_name_H-M   'P 1'
_cell_length_a   15.55525019
_cell_length_b   15.49214681
_cell_length_c   15.25311693
_cell_angle_alpha   90.11883565
_cell_angle_beta   89.91094896
_cell_angle_gamma   90.02227206
_symmetry_Int_Tables_number   1
_chemical_formula_structural   Gd19Ta56(WO20)8
_chemical_formula_sum   'Gd19 Ta56 W8 O160'
_cell_volume   3675.74786006
_cell_formula_units_Z   1
loop_
 _symmetry_equiv_pos_site_id
 _symmetry_equiv_pos_as_xyz
  1  'x, y, z'
loop_
 _atom_type_symbol
 _atom_type_oxidation_number
  Gd3+  3.0
  Ta5+  5.0
  W6+  6.0
  O2-  -2.0
loop_
 _atom_site_type_symbol
 _atom_site_label
 _atom_site_symmetry_multiplicity
 _atom_site_fract_x
 _atom_site_fract_y
 _atom_site_fract_z
 _atom_site_occupancy
  Gd3+  Gd0  1  0.00786244  0.74731866  0.50599050  1
  Gd3+  Gd1  1  0.52364780  0.22699337  0.78682607  1
  Gd3+  Gd2  1  -0.03980444  0.25166762  0.47185234  1
  Gd3+  Gd3  1  0.76699545  0.75175745  0.48486160  1
  Gd3+  Gd4  1  0.48848027  0.76421483  0.01155255  1
  Gd3+  Gd5  1  0.01467513  0.25401732  0.23797195  1
  Gd3+  Gd6  1  0.24379468  0.24922263  0.50797624  1
  Gd3+  Gd7  1  0.00483698  0.74904128  0.75747755  1
  Gd3+  Gd8  1  0.75529282  0.75250209  0.24087965  1
  Gd3+  Gd9  1  0.50757835  0.22615640  0.22710164  1
  Gd3+  Gd10  1  0.74583770  0.75059808  0.75535810  1
  Gd3+  Gd11  1  0.73001445  0.25503822  0.48085110  1
  Gd3+  Gd12  1  0.49289378  0.74176956  0.74317702  1
  Gd3+  Gd13  1  0.47389806  0.74016116  0.50455867  1
  Gd3+  Gd14  1  0.73325764  0.74176648  -0.00373816  1
  Gd3+  Gd15  1  0.74948669  0.24775632  0.73488667  1
  Gd3+  Gd16  1  0.00810221  0.26071905  -0.00713444  1
  Gd3+  Gd17  1  0.24740818  0.24558840  0.75022456  1
  Gd3+  Gd18  1  0.23980162  0.75410573  0.27148617  1
  Ta5+  Ta19  1  0.11698821  0.62118544  0.37272265  1
  Ta5+  Ta20  1  0.86743425  0.89388490  0.87541272  1
  Ta5+  Ta21  1  0.33906389  0.88598163  0.63412172  1
  Ta5+  Ta22  1  0.87941049  0.61610600  0.36349744  1
  Ta5+  Ta23  1  0.64138528  0.59937304  0.62110986  1
  Ta5+  Ta24  1  0.84589261  0.37740834  0.34069190  1
  Ta5+  Ta25  1  0.09547144  0.12411148  0.63027864  1
  Ta5+  Ta26  1  0.61959454  0.93133936  0.86676243  1
  Ta5+  Ta27  1  0.39045431  0.60594923  0.88611826  1
  Ta5+  Ta28  1  0.88245362  0.88731530  0.11475497  1
  Ta5+  Ta29  1  0.15054241  0.37958169  0.37473298  1
  Ta5+  Ta30  1  0.67331856  0.36611441  0.88586744  1
  Ta5+  Ta31  1  0.12965647  0.12092448  0.37471944  1
  Ta5+  Ta32  1  0.13848294  0.62402325  0.62810708  1
  Ta5+  Ta33  1  0.90652741  0.38231828  0.65836080  1
  Ta5+  Ta34  1  0.10657371  0.38073221  0.62958712  1
  Ta5+  Ta35  1  0.10548312  0.88084058  0.87453151  1
  Ta5+  Ta36  1  0.11611436  0.12649893  0.86935393  1
  Ta5+  Ta37  1  0.14302092  0.38670301  0.87019298  1
  Ta5+  Ta38  1  0.84053526  0.37668403  0.87919922  1
  Ta5+  Ta39  1  0.31358708  0.13813766  0.12589493  1
  Ta5+  Ta40  1  0.37826412  0.61294451  0.37609329  1
  Ta5+  Ta41  1  0.64201849  0.11242968  0.35537719  1
  Ta5+  Ta42  1  0.37326614  0.87994991  0.38625583  1
  Ta5+  Ta43  1  0.37589904  0.36846548  0.89463172  1
  Ta5+  Ta44  1  0.69834105  0.12389857  0.13504485  1
  Ta5+  Ta45  1  0.38200788  0.89397120  0.13937182  1
  Ta5+  Ta46  1  0.39382630  0.36570234  0.37355807  1
  Ta5+  Ta47  1  0.35741354  0.12371200  0.88830411  1
  Ta5+  Ta48  1  0.13983329  0.88399366  0.62854860  1
  Ta5+  Ta49  1  0.41593289  0.62371178  0.14364411  1
  Ta5+  Ta50  1  0.07363677  0.88305018  0.37244359  1
  Ta5+  Ta51  1  0.87851472  0.38508370  0.12149826  1
  Ta5+  Ta52  1  0.36693074  0.12827531  0.37068629  1
  Ta5+  Ta53  1  0.60923725  0.86944527  0.37349230  1
  Ta5+  Ta54  1  0.84858949  0.88576137  0.62339407  1
  Ta5+  Ta55  1  0.61509115  0.59605989  0.87099730  1
  Ta5+  Ta56  1  0.60788182  0.62064269  0.37051109  1
  Ta5+  Ta57  1  0.84993280  0.61476348  0.62373865  1
  Ta5+  Ta58  1  0.63603825  0.37312402  0.12638969  1
  Ta5+  Ta59  1  0.12496054  0.87820258  0.12275367  1
  Ta5+  Ta60  1  0.14573269  0.12586210  0.11950079  1
  Ta5+  Ta61  1  0.39637644  0.38151361  0.63182965  1
  Ta5+  Ta62  1  0.63722764  0.87823131  0.62015819  1
  Ta5+  Ta63  1  0.36943451  0.38076540  0.12518624  1
  Ta5+  Ta64  1  0.89158748  0.62741076  0.11032838  1
  Ta5+  Ta65  1  0.60214472  0.37225384  0.36442362  1
  Ta5+  Ta66  1  0.33767252  0.61543437  0.63410354  1
  Ta5+  Ta67  1  0.60171826  0.12151925  0.61321754  1
  Ta5+  Ta68  1  0.62431736  0.89038295  0.12475440  1
  Ta5+  Ta69  1  0.58608264  0.61661736  0.12878043  1
  Ta5+  Ta70  1  0.91576285  0.13518342  0.85140763  1
  Ta5+  Ta71  1  0.59631936  0.37221165  0.62470236  1
  Ta5+  Ta72  1  0.86537382  0.11515669  0.33545200  1
  Ta5+  Ta73  1  0.13558456  0.63860805  0.10613253  1
  Ta5+  Ta74  1  0.86532074  0.13240950  0.10547321  1
  W6+  W75  1  0.37538022  0.87303024  0.87603141  1
  W6+  W76  1  0.39863627  0.13076548  0.62002810  1
  W6+  W77  1  0.90726522  0.87995943  0.36553537  1
  W6+  W78  1  0.13553350  0.38786383  0.11793745  1
  W6+  W79  1  0.68847512  0.10770318  0.87745525  1
  W6+  W80  1  0.17165719  0.63650213  0.85015594  1
  W6+  W81  1  0.88558116  0.12494160  0.64563807  1
  W6+  W82  1  0.86965105  0.61927654  0.87441732  1
  O2-  O83  1  0.14271309  -0.00299947  0.12821095  1
  O2-  O84  1  0.11128883  0.00168329  0.37239275  1
  O2-  O85  1  0.11491368  0.00495049  0.61643254  1
  O2-  O86  1  0.12009890  0.00147696  0.86101209  1
  O2-  O87  1  0.15346368  0.52154595  0.11760967  1
  O2-  O88  1  0.15312433  0.50285796  0.37643252  1
  O2-  O89  1  0.12237755  0.50207131  0.62587177  1
  O2-  O90  1  0.15607331  0.50279215  0.86386495  1
  O2-  O91  1  0.33724621  0.00436755  0.13638505  1
  O2-  O92  1  0.37904004  0.00543630  0.37428820  1
  O2-  O93  1  0.36122699  0.00125488  0.62155007  1
  O2-  O94  1  0.36152434  0.00689687  0.87395820  1
  O2-  O95  1  0.37221006  0.50377624  0.13983600  1
  O2-  O96  1  0.38497431  0.49146202  0.36588029  1
  O2-  O97  1  0.33366295  0.49030564  0.63541402  1
  O2-  O98  1  0.34404410  0.49432574  0.89297586  1
  O2-  O99  1  0.68649828  -0.00870503  0.13946775  1
  O2-  O100  1  0.64294933  -0.01580187  0.37564137  1
  O2-  O101  1  0.61427669  -0.00135058  0.61112257  1
  O2-  O102  1  0.56597761  0.03563269  0.87615251  1
  O2-  O103  1  0.60755157  0.49792776  0.13357868  1
  O2-  O104  1  0.60589124  0.49998982  0.36718153  1
  O2-  O105  1  0.66404645  0.47882975  0.62213980  1
  O2-  O106  1  0.67925781  0.49575686  0.85949637  1
  O2-  O107  1  0.88007339  0.00703208  0.10219418  1
  O2-  O108  1  0.91901272  0.01581649  0.37309396  1
  O2-  O109  1  0.89837608  -0.00843671  0.63225397  1
  O2-  O110  1  0.90972299  0.00542363  0.86802629  1
  O2-  O111  1  0.90854616  0.50667827  0.10653532  1
  O2-  O112  1  0.84344768  0.50202905  0.37141851  1
  O2-  O113  1  0.88139425  0.49454269  0.61197726  1
  O2-  O114  1  0.87911583  0.48992146  0.87650540  1
  O2-  O115  1  0.10007989  0.25387491  0.11199625  1
  O2-  O116  1  0.09039552  0.25614908  0.38857008  1
  O2-  O117  1  0.13737081  0.25156531  0.62871801  1
  O2-  O118  1  0.09698276  0.25732519  0.86122180  1
  O2-  O119  1  0.18724702  0.76034141  0.12962949  1
  O2-  O120  1  0.12034581  0.75251412  0.38636752  1
  O2-  O121  1  0.09385038  0.75111871  0.62763215  1
  O2-  O122  1  0.14840334  0.77201463  0.83759489  1
  O2-  O123  1  0.31266543  0.26876399  0.11414672  1
  O2-  O124  1  0.43390939  0.23910129  0.37010420  1
  O2-  O125  1  0.32380850  0.27046546  0.62832025  1
  O2-  O126  1  0.42125813  0.24533247  0.89521028  1
  O2-  O127  1  0.42080042  0.75463153  0.14409250  1
  O2-  O128  1  0.34655497  0.75188764  0.39383136  1
  O2-  O129  1  0.39288943  0.73675796  0.62821781  1
  O2-  O130  1  0.42970877  0.74014329  0.87651244  1
  O2-  O131  1  0.64604139  0.24346657  0.14406402  1
  O2-  O132  1  0.61840403  0.23822200  0.35908209  1
  O2-  O133  1  0.66048854  0.24898156  0.61106013  1
  O2-  O134  1  0.64852598  0.23917328  0.87895488  1
  O2-  O135  1  0.61722754  0.75726868  0.10275275  1
  O2-  O136  1  0.66054794  0.74780212  0.38297878  1
  O2-  O137  1  0.63362955  0.74738067  0.63907213  1
  O2-  O138  1  0.64645092  0.72100597  0.86208500  1
  O2-  O139  1  0.91017098  0.25887748  0.12706794  1
  O2-  O140  1  0.89055801  0.25346816  0.32554967  1
  O2-  O141  1  0.86256210  0.26582329  0.63132089  1
  O2-  O142  1  0.89289978  0.26086691  0.84389228  1
  O2-  O143  1  0.83883215  0.75343240  0.11400666  1
  O2-  O144  1  0.84627025  0.74277286  0.35955639  1
  O2-  O145  1  0.83274511  0.74772609  0.62421817  1
  O2-  O146  1  0.82585011  0.75921700  0.87838140  1
  O2-  O147  1  0.10321335  0.12866770  -0.00544132  1
  O2-  O148  1  0.11297752  0.13861503  0.24837185  1
  O2-  O149  1  0.15055153  0.13359215  0.50744313  1
  O2-  O150  1  0.16339069  0.12813388  0.73934971  1
  O2-  O151  1  0.15499639  0.64838095  -0.01246056  1
  O2-  O152  1  0.14748755  0.63999908  0.25012860  1
  O2-  O153  1  0.08447371  0.62214550  0.50391601  1
  O2-  O154  1  0.08106824  0.62724741  0.74420932  1
  O2-  O155  1  0.36246171  0.12889037  0.01305161  1
  O2-  O156  1  0.37581684  0.14610122  0.24055128  1
  O2-  O157  1  0.34205834  0.14178740  0.49514854  1
  O2-  O158  1  0.36606433  0.15894906  0.76146991  1
  O2-  O159  1  0.40072990  0.63563832  0.01112647  1
  O2-  O160  1  0.34156421  0.64017078  0.25716161  1
  O2-  O161  1  0.39593024  0.61201699  0.50776512  1
  O2-  O162  1  0.39933953  0.62060406  0.75410572  1
  O2-  O163  1  0.69848276  0.11738049  0.01477426  1
  O2-  O164  1  0.58838304  0.10493502  0.23923580  1
  O2-  O165  1  0.66393545  0.12302526  0.48573897  1
  O2-  O166  1  0.65249393  0.13917561  0.73754429  1
  O2-  O167  1  0.62159512  0.62335946  -0.00248480  1
  O2-  O168  1  0.63997692  0.64528020  0.24759733  1
  O2-  O169  1  0.58328706  0.62891698  0.51014967  1
  O2-  O170  1  0.58272309  0.61166245  0.73596287  1
  O2-  O171  1  0.89777427  0.14866841  -0.02166222  1
  O2-  O172  1  0.92647314  0.12316400  0.22343847  1
  O2-  O173  1  0.84133995  0.16022282  0.45467557  1
  O2-  O174  1  0.82011827  0.11883126  0.76821641  1
  O2-  O175  1  0.82105982  0.62483510  0.00756956  1
  O2-  O176  1  0.85237203  0.62644410  0.23182664  1
  O2-  O177  1  0.89657604  0.64297523  0.49518455  1
  O2-  O178  1  0.90374473  0.63965041  0.73572789  1
  O2-  O179  1  0.09275885  0.38353583  -0.01496438  1
  O2-  O180  1  0.12535428  0.36748631  0.25379351  1
  O2-  O181  1  0.16139992  0.37500903  0.51077672  1
  O2-  O182  1  0.17531543  0.37359524  0.73985028  1
  O2-  O183  1  0.13971835  0.87375746  -0.00673994  1
  O2-  O184  1  0.12401625  0.86268893  0.25320632  1
  O2-  O185  1  0.08086954  0.87672982  0.50328193  1
  O2-  O186  1  0.06780330  0.88049599  0.73481310  1
  O2-  O187  1  0.42362709  0.38147932  0.01006389  1
  O2-  O188  1  0.40020720  0.35270524  0.24420080  1
  O2-  O189  1  0.38885272  0.36608844  0.50457583  1
  O2-  O190  1  0.38674080  0.36818889  0.76713623  1
  O2-  O191  1  0.37582079  0.86381648  0.01724946  1
  O2-  O192  1  0.33392593  0.86895232  0.25678531  1
  O2-  O193  1  0.40103255  0.87345630  0.51016591  1
  O2-  O194  1  0.40401749  0.86183608  0.73888259  1
  O2-  O195  1  0.62827611  0.37218234  0.00332566  1
  O2-  O196  1  0.57212081  0.36422139  0.23966037  1
  O2-  O197  1  0.60874122  0.36120851  0.49565310  1
  O2-  O198  1  0.62800920  0.35042691  0.75190122  1
  O2-  O199  1  0.61273270  0.88281865  -0.01501450  1
  O2-  O200  1  0.64377822  0.85394456  0.24925639  1
  O2-  O201  1  0.58390277  0.84929147  0.50278000  1
  O2-  O202  1  0.58767413  0.87503291  0.75691464  1
  O2-  O203  1  0.89079159  0.35827526  -0.00232491  1
  O2-  O204  1  0.92944187  0.39527304  0.24397666  1
  O2-  O205  1  0.84875738  0.34844420  0.46490416  1
  O2-  O206  1  0.81474262  0.38738094  0.74404947  1
  O2-  O207  1  0.82594555  0.87727981  -0.00229868  1
  O2-  O208  1  0.84769251  0.87759291  0.23278258  1
  O2-  O209  1  0.90013327  0.85094260  0.51080088  1
  O2-  O210  1  0.88451843  0.85328073  0.75029806  1
  O2-  O211  1  -0.01383966  -0.15107880  -0.10535651  1
  O2-  O212  1  0.00194911  -0.13813521  0.11201368  1
  O2-  O213  1  -0.00816864  0.14627729  0.56425762  1
  O2-  O214  1  -0.00574062  0.13088821  0.73519249  1
  O2-  O215  1  0.01083963  0.65895411  0.11183080  1
  O2-  O216  1  -0.00164631  0.61429941  0.34155197  1
  O2-  O217  1  -0.00125101  0.35920500  0.56375007  1
  O2-  O218  1  0.00706964  0.38961037  0.72523884  1
  O2-  O219  1  0.23966532  0.15316298  -0.11296355  1
  O2-  O220  1  0.24753479  0.15615186  0.35706758  1
  O2-  O221  1  0.24159746  -0.15845795  0.56349320  1
  O2-  O222  1  0.23615423  -0.09482684  0.70877544  1
  O2-  O223  1  0.25633986  0.33706731  -0.10480505  1
  O2-  O224  1  0.26710947  0.33970874  0.37469041  1
  O2-  O225  1  0.24193239  0.64234270  0.55828670  1
  O2-  O226  1  0.23774678  0.63165593  0.71648300  1
  O2-  O227  1  0.50430190  -0.08657955  0.14361659  1
  O2-  O228  1  0.49073433  -0.13991641  0.34959395  1
  O2-  O229  1  0.50728529  0.14631581  0.54019175  1
  O2-  O230  1  0.50534106  0.11038577  0.69681275  1
  O2-  O231  1  0.50303347  0.55569513  -0.11285576  1
  O2-  O232  1  0.49316333  0.66806672  0.36321442  1
  O2-  O233  1  0.49583256  0.29457887  0.65329952  1
  O2-  O234  1  0.50113765  0.45233778  0.62586772  1
  O2-  O235  1  0.73837863  -0.04149072  -0.13408769  1
  O2-  O236  1  0.74655831  0.12697752  0.28507785  1
  O2-  O237  1  0.74088038  -0.11414901  0.54040210  1
  O2-  O238  1  0.73919608  -0.11200522  0.69771986  1
  O2-  O239  1  0.75982205  0.38463537  0.13820813  1
  O2-  O240  1  0.72666850  0.36401938  0.33738490  1
  O2-  O241  1  0.74491160  0.61768874  0.54202420  1
  O2-  O242  1  0.74618597  0.61236957  0.70221682  1
