# generated using pymatgen
data_Gd19Ta56(WO20)8
_symmetry_space_group_name_H-M   'P 1'
_cell_length_a   15.58891347
_cell_length_b   15.55170879
_cell_length_c   15.18490006
_cell_angle_alpha   89.99606918
_cell_angle_beta   90.21347490
_cell_angle_gamma   90.48968855
_symmetry_Int_Tables_number   1
_chemical_formula_structural   Gd19Ta56(WO20)8
_chemical_formula_sum   'Gd19 Ta56 W8 O160'
_cell_volume   3681.17974101
_cell_formula_units_Z   1
loop_
 _symmetry_equiv_pos_site_id
 _symmetry_equiv_pos_as_xyz
  1  'x, y, z'
loop_
 _atom_type_symbol
 _atom_type_oxidation_number
  Gd3+  3.0
  Ta5+  5.0
  W6+  6.0
  O2-  -2.0
loop_
 _atom_site_type_symbol
 _atom_site_label
 _atom_site_symmetry_multiplicity
 _atom_site_fract_x
 _atom_site_fract_y
 _atom_site_fract_z
 _atom_site_occupancy
  Gd3+  Gd0  1  0.49414689  0.25991670  0.52119259  1
  Gd3+  Gd1  1  -0.00902886  0.24079795  -0.00684085  1
  Gd3+  Gd2  1  0.22920565  0.23958861  0.00495778  1
  Gd3+  Gd3  1  0.23305188  0.25484260  0.50547928  1
  Gd3+  Gd4  1  -0.01117743  0.73099551  0.50273769  1
  Gd3+  Gd5  1  0.21566077  0.25761126  0.26978698  1
  Gd3+  Gd6  1  0.54129586  0.75802631  0.01950641  1
  Gd3+  Gd7  1  0.77127085  0.76166680  -0.03520934  1
  Gd3+  Gd8  1  0.52376149  0.76462318  0.74230999  1
  Gd3+  Gd9  1  0.77622505  0.23708299  0.48887109  1
  Gd3+  Gd10  1  0.00047891  0.75868384  0.25510398  1
  Gd3+  Gd11  1  0.52398204  0.76901150  0.50062256  1
  Gd3+  Gd12  1  0.78788366  0.24177047  0.72973353  1
  Gd3+  Gd13  1  0.49649394  0.24701620  0.76269193  1
  Gd3+  Gd14  1  0.47992186  0.26299316  0.00305730  1
  Gd3+  Gd15  1  -0.01921011  0.24635726  0.24308821  1
  Gd3+  Gd16  1  0.22688468  0.76025605  0.00242165  1
  Gd3+  Gd17  1  0.74306479  0.75378584  0.22594685  1
  Gd3+  Gd18  1  0.23291781  0.75574520  0.73467500  1
  Ta5+  Ta19  1  0.10978237  0.09053789  0.13245081  1
  Ta5+  Ta20  1  0.11310447  0.36635565  0.83955933  1
  Ta5+  Ta21  1  0.34463791  0.11015952  0.82963831  1
  Ta5+  Ta22  1  0.62044821  0.57949247  0.85796779  1
  Ta5+  Ta23  1  0.62280569  0.37304469  0.12598931  1
  Ta5+  Ta24  1  0.32892337  0.40703358  0.84234009  1
  Ta5+  Ta25  1  0.12288532  0.61120380  0.36529665  1
  Ta5+  Ta26  1  0.36702956  0.63223637  0.36671086  1
  Ta5+  Ta27  1  0.69346432  0.62135758  0.39848301  1
  Ta5+  Ta28  1  0.88732829  0.61991167  0.85212684  1
  Ta5+  Ta29  1  0.90677078  0.37646295  0.60355777  1
  Ta5+  Ta30  1  0.38121982  0.13159496  0.36856205  1
  Ta5+  Ta31  1  0.64917161  0.12896831  0.63957636  1
  Ta5+  Ta32  1  0.88307512  0.87248482  0.10493784  1
  Ta5+  Ta33  1  0.63890210  0.61670687  0.60286366  1
  Ta5+  Ta34  1  0.65816621  0.14742974  0.90699246  1
  Ta5+  Ta35  1  0.61262489  0.60369840  0.15454066  1
  Ta5+  Ta36  1  0.84470036  0.12311789  0.12115276  1
  Ta5+  Ta37  1  0.11747724  0.37854327  0.12396501  1
  Ta5+  Ta38  1  0.84950623  0.61014779  0.10792663  1
  Ta5+  Ta39  1  0.12427983  0.88126139  0.60066678  1
  Ta5+  Ta40  1  0.88319785  0.86733982  0.62920055  1
  Ta5+  Ta41  1  0.11812110  0.11874053  0.85446745  1
  Ta5+  Ta42  1  0.12621632  0.61150773  0.86833524  1
  Ta5+  Ta43  1  0.37996876  0.38901290  0.37454562  1
  Ta5+  Ta44  1  0.90655008  0.37804723  0.38611589  1
  Ta5+  Ta45  1  0.36503104  0.11946605  0.62989030  1
  Ta5+  Ta46  1  0.08211549  0.12500953  0.60544754  1
  Ta5+  Ta47  1  0.35646708  0.11038331  0.16804403  1
  Ta5+  Ta48  1  0.94088509  0.86690816  0.85618123  1
  Ta5+  Ta49  1  0.63013751  0.37720849  0.38152828  1
  Ta5+  Ta50  1  0.66455455  0.42195336  0.62696013  1
  Ta5+  Ta51  1  0.91492309  0.11293575  0.60710036  1
  Ta5+  Ta52  1  0.87641875  0.37360856  0.86491825  1
  Ta5+  Ta53  1  0.39630277  0.88010374  0.87982855  1
  Ta5+  Ta54  1  0.08143092  0.11598319  0.39514489  1
  Ta5+  Ta55  1  0.10607515  0.87377548  0.86339360  1
  Ta5+  Ta56  1  0.86591980  0.37721059  0.12316196  1
  Ta5+  Ta57  1  0.88284515  0.10636044  0.86375327  1
  Ta5+  Ta58  1  0.84656447  0.60566162  0.61004894  1
  Ta5+  Ta59  1  0.13335718  0.87688765  0.39026994  1
  Ta5+  Ta60  1  0.10955927  0.89138839  0.12676397  1
  Ta5+  Ta61  1  0.91296530  0.10677415  0.38421351  1
  Ta5+  Ta62  1  0.35349199  0.41119779  0.17114123  1
  Ta5+  Ta63  1  0.12668813  0.61339662  0.61656520  1
  Ta5+  Ta64  1  0.85756305  0.61094985  0.36758144  1
  Ta5+  Ta65  1  0.64763547  0.88569680  0.63622297  1
  Ta5+  Ta66  1  0.07220858  0.37287857  0.59463606  1
  Ta5+  Ta67  1  0.62496723  0.13623591  0.11887345  1
  Ta5+  Ta68  1  0.62117971  0.13183754  0.37217957  1
  Ta5+  Ta69  1  0.07354854  0.37428958  0.39574286  1
  Ta5+  Ta70  1  0.36843508  0.63129560  0.61213014  1
  Ta5+  Ta71  1  0.59677502  0.91891489  0.87574245  1
  Ta5+  Ta72  1  0.39028932  0.63272617  0.87494826  1
  Ta5+  Ta73  1  0.71403361  0.96259639  0.15524738  1
  Ta5+  Ta74  1  0.36854111  0.88325564  0.36666050  1
  W6+  W75  1  0.11953854  0.63093644  0.12492466  1
  W6+  W76  1  0.38382759  0.87340930  0.62127112  1
  W6+  W77  1  0.38243914  0.64514642  0.12646837  1
  W6+  W78  1  0.38477127  0.38358709  0.63702055  1
  W6+  W79  1  0.67389263  0.88373254  0.38103631  1
  W6+  W80  1  0.86765958  0.86794208  0.37385029  1
  W6+  W81  1  0.65368802  0.36125794  0.87072575  1
  W6+  W82  1  0.37677447  0.88285690  0.12409973  1
  O2-  O83  1  0.19284679  0.00238014  0.13398766  1
  O2-  O84  1  0.10560766  -0.00463728  0.39032366  1
  O2-  O85  1  0.09844449  -0.00230354  0.60648565  1
  O2-  O86  1  0.10936365  0.00015201  0.86607166  1
  O2-  O87  1  0.11112069  0.49350366  0.12287657  1
  O2-  O88  1  0.10399919  0.49342792  0.36074511  1
  O2-  O89  1  0.10156548  0.49740355  0.62217057  1
  O2-  O90  1  0.12251951  0.48740118  0.87231138  1
  O2-  O91  1  0.39157454  0.01319265  0.11161802  1
  O2-  O92  1  0.37209056  0.01328387  0.38545425  1
  O2-  O93  1  0.35743825  0.00301431  0.61289924  1
  O2-  O94  1  0.36613062  0.00072740  0.87634549  1
  O2-  O95  1  0.32966516  0.52049977  0.13507797  1
  O2-  O96  1  0.37844038  0.50577704  0.39997707  1
  O2-  O97  1  0.38631419  0.51877248  0.63534261  1
  O2-  O98  1  0.32324533  0.52384831  0.87176188  1
  O2-  O99  1  0.61063649  0.00800666  0.11180896  1
  O2-  O100  1  0.64931349  0.01804130  0.37784174  1
  O2-  O101  1  0.65782981  0.00471670  0.64504581  1
  O2-  O102  1  0.65632823  0.02045199  0.90205212  1
  O2-  O103  1  0.57892518  0.48382353  0.14066747  1
  O2-  O104  1  0.66919775  0.48990482  0.40115897  1
  O2-  O105  1  0.57340825  0.50769628  0.61926835  1
  O2-  O106  1  0.69824375  0.49305589  0.86159469  1
  O2-  O107  1  0.84319377  -0.00947311  0.12080029  1
  O2-  O108  1  0.87698270  -0.00576596  0.35814993  1
  O2-  O109  1  0.90301733  -0.01483181  0.61806700  1
  O2-  O110  1  0.90988792  -0.01068803  0.85605668  1
  O2-  O111  1  0.89829381  0.49836081  0.11762209  1
  O2-  O112  1  0.87188376  0.49266234  0.35345641  1
  O2-  O113  1  0.90709063  0.50192055  0.62267628  1
  O2-  O114  1  0.89562703  0.49346113  0.86157194  1
  O2-  O115  1  0.14657949  0.22144608  0.13597821  1
  O2-  O116  1  0.12849672  0.24628900  0.38981641  1
  O2-  O117  1  0.11600223  0.25086496  0.59803629  1
  O2-  O118  1  0.14874471  0.25000516  0.86776676  1
  O2-  O119  1  0.15816781  0.77272174  0.13372362  1
  O2-  O120  1  0.10252859  0.74923086  0.37564315  1
  O2-  O121  1  0.10550653  0.74355608  0.62026597  1
  O2-  O122  1  0.15859584  0.74727195  0.86407616  1
  O2-  O123  1  0.24452723  0.35174329  0.13364648  1
  O2-  O124  1  0.33924003  0.25324972  0.36437612  1
  O2-  O125  1  0.40099982  0.24815635  0.64289887  1
  O2-  O126  1  0.40563301  0.20326376  0.88131870  1
  O2-  O127  1  0.43280150  0.76893675  0.11342099  1
  O2-  O128  1  0.36923405  0.75545959  0.36640303  1
  O2-  O129  1  0.43437924  0.74093933  0.62650185  1
  O2-  O130  1  0.45538934  0.74926949  0.87994054  1
  O2-  O131  1  0.57374602  0.25464368  0.12759541  1
  O2-  O132  1  0.67222315  0.25340639  0.38142434  1
  O2-  O133  1  0.57341655  0.22566828  0.64144853  1
  O2-  O134  1  0.58181341  0.24205451  0.88309914  1
  O2-  O135  1  0.64039652  0.72571905  0.12512769  1
  O2-  O136  1  0.69532729  0.74679317  0.37246445  1
  O2-  O137  1  0.61534685  0.73910480  0.62354786  1
  O2-  O138  1  0.64873887  0.82969258  0.93911439  1
  O2-  O139  1  0.85583759  0.24524992  0.12464997  1
  O2-  O140  1  0.88434159  0.23917984  0.37634745  1
  O2-  O141  1  0.87834931  0.24188091  0.60468315  1
  O2-  O142  1  0.85122846  0.23937026  0.86821039  1
  O2-  O143  1  0.84217578  0.73856927  0.09775519  1
  O2-  O144  1  0.91234028  0.73587990  0.37156764  1
  O2-  O145  1  0.89981958  0.71809241  0.62451126  1
  O2-  O146  1  0.87177718  0.74755459  0.85624869  1
  O2-  O147  1  0.10083319  0.13239428  0.00721484  1
  O2-  O148  1  0.08952372  0.12522791  0.25749745  1
  O2-  O149  1  0.16777403  0.12203490  0.49861664  1
  O2-  O150  1  0.10628438  0.12601337  0.73302234  1
  O2-  O151  1  0.15872054  0.62663303  -0.01235623  1
  O2-  O152  1  0.06633866  0.63034810  0.25441579  1
  O2-  O153  1  0.09557221  0.61964851  0.48930553  1
  O2-  O154  1  0.16686110  0.61917686  0.74777682  1
  O2-  O155  1  0.35403029  0.19350888  0.07811095  1
  O2-  O156  1  0.27912454  0.11924261  0.26930880  1
  O2-  O157  1  0.36291015  0.15558358  0.50330294  1
  O2-  O158  1  0.44283115  0.10881646  0.73847285  1
  O2-  O159  1  0.34164749  0.66273734  -0.01552064  1
  O2-  O160  1  0.42167906  0.62027087  0.26029745  1
  O2-  O161  1  0.40881042  0.64560058  0.49169461  1
  O2-  O162  1  0.35689201  0.65753590  0.75430245  1
  O2-  O163  1  0.55899324  0.13510022  0.00695030  1
  O2-  O164  1  0.60628984  0.14218751  0.25088235  1
  O2-  O165  1  0.65467336  0.14144696  0.51093089  1
  O2-  O166  1  0.67084814  0.14439645  0.77530699  1
  O2-  O167  1  0.65647888  0.66033338  -0.06110908  1
  O2-  O168  1  0.62770841  0.61512295  0.27584436  1
  O2-  O169  1  0.58759554  0.63236200  0.48714608  1
  O2-  O170  1  0.61791702  0.63220218  0.74654777  1
  O2-  O171  1  0.89693032  0.12067521  0.00359229  1
  O2-  O172  1  0.90427270  0.12088202  0.23472723  1
  O2-  O173  1  0.84218351  0.10739634  0.49407741  1
  O2-  O174  1  0.87767892  0.12053179  0.73584723  1
  O2-  O175  1  0.84042578  0.61948826  -0.02769876  1
  O2-  O176  1  0.85777819  0.63843668  0.23431213  1
  O2-  O177  1  0.90099468  0.60895858  0.49067613  1
  O2-  O178  1  0.82953255  0.61609900  0.74448118  1
  O2-  O179  1  0.12487418  0.34600125  0.00004240  1
  O2-  O180  1  0.09811235  0.34832928  0.25356773  1
  O2-  O181  1  0.16532905  0.38311286  0.49486759  1
  O2-  O182  1  0.06926766  0.36226059  0.72758516  1
  O2-  O183  1  0.12321449  0.87663883  -0.00212112  1
  O2-  O184  1  0.09241260  0.87940305  0.26092573  1
  O2-  O185  1  0.04937497  0.86548249  0.49264847  1
  O2-  O186  1  0.14529529  0.87250430  0.73153575  1
  O2-  O187  1  0.42760290  0.36803824  0.08791470  1
  O2-  O188  1  0.28238063  0.39254147  0.29294443  1
  O2-  O189  1  0.36451888  0.35152441  0.49948028  1
  O2-  O190  1  0.42826756  0.37959977  0.77856706  1
  O2-  O191  1  0.33215220  0.86070250  -0.01288063  1
  O2-  O192  1  0.41807723  0.89513733  0.25764333  1
  O2-  O193  1  0.42091237  0.87130418  0.48323865  1
  O2-  O194  1  0.34592126  0.84629811  0.76543256  1
  O2-  O195  1  0.59973559  0.36863847  0.00204538  1
  O2-  O196  1  0.62784818  0.37170145  0.25977530  1
  O2-  O197  1  0.64272900  0.35353612  0.52413696  1
  O2-  O198  1  0.68517972  0.35470015  0.72686333  1
  O2-  O199  1  0.74733913  0.86838694  0.08216503  1
  O2-  O200  1  0.67526888  0.88498942  0.24074957  1
  O2-  O201  1  0.64764993  0.86464737  0.51336560  1
  O2-  O202  1  0.52330275  0.87718723  0.63265057  1
  O2-  O203  1  0.86999638  0.36475308  -0.00474064  1
  O2-  O204  1  0.89028814  0.36153802  0.24963947  1
  O2-  O205  1  0.83230027  0.37627748  0.49375490  1
  O2-  O206  1  0.87768511  0.36037344  0.73652984  1
  O2-  O207  1  0.88946985  0.86574211  -0.02023865  1
  O2-  O208  1  0.86562960  0.84231124  0.23442239  1
  O2-  O209  1  0.88035097  0.84231884  0.50726726  1
  O2-  O210  1  0.95735823  0.85055133  0.72872379  1
  O2-  O211  1  -0.00196034  -0.17284974  0.11851576  1
  O2-  O212  1  0.02794216  0.00064221  0.12247546  1
  O2-  O213  1  -0.00263769  0.14814262  0.49402346  1
  O2-  O214  1  0.00078736  0.15480370  0.86881069  1
  O2-  O215  1  0.00919879  0.63342106  -0.14706917  1
  O2-  O216  1  -0.00331408  0.33504725  0.11481902  1
  O2-  O217  1  -0.01146782  0.33091467  0.49488886  1
  O2-  O218  1  -0.00294918  0.34294065  0.88337709  1
  O2-  O219  1  0.24245086  0.12392397  -0.09752618  1
  O2-  O220  1  0.24863780  -0.11569098  0.34583466  1
  O2-  O221  1  0.20866105  -0.12830732  0.51118148  1
  O2-  O222  1  0.28017299  0.13542701  0.72357885  1
  O2-  O223  1  0.31483952  0.34358485  -0.05669406  1
  O2-  O224  1  0.24484810  0.62064669  0.35927984  1
  O2-  O225  1  0.25046873  0.64164787  0.59322609  1
  O2-  O226  1  0.23145550  0.37940622  0.77853738  1
  O2-  O227  1  0.50240340  -0.09969469  -0.03617066  1
  O2-  O228  1  0.44041427  0.14220058  0.24988968  1
  O2-  O229  1  0.50325314  0.15593578  0.41026780  1
  O2-  O230  1  0.49526469  -0.08937695  0.80055934  1
  O2-  O231  1  0.51326103  0.62379401  0.07925281  1
  O2-  O232  1  0.44072564  0.39593375  0.26259809  1
  O2-  O233  1  0.51039846  0.35922956  0.40951973  1
  O2-  O234  1  0.49717228  0.56919842  0.87848178  1
  O2-  O235  1  0.71978459  0.15368023  0.03110753  1
  O2-  O236  1  0.73681846  0.09130726  0.18170391  1
  O2-  O237  1  0.76830930  -0.14650944  0.65942196  1
  O2-  O238  1  0.64117605  -0.14293977  0.76911163  1
  O2-  O239  1  0.74311937  0.38495604  0.12410422  1
  O2-  O240  1  0.72932837  0.58110479  0.11618789  1
  O2-  O241  1  0.74369548  0.64598821  0.53360288  1
  O2-  O242  1  0.73314301  0.52858966  0.64190745  1
