# generated using pymatgen
data_Gd19Ta56(WO20)8
_symmetry_space_group_name_H-M   'P 1'
_cell_length_a   15.58112615
_cell_length_b   15.45509386
_cell_length_c   15.35054510
_cell_angle_alpha   90.02251093
_cell_angle_beta   89.99457469
_cell_angle_gamma   89.90613334
_symmetry_Int_Tables_number   1
_chemical_formula_structural   Gd19Ta56(WO20)8
_chemical_formula_sum   'Gd19 Ta56 W8 O160'
_cell_volume   3696.52522594
_cell_formula_units_Z   1
loop_
 _symmetry_equiv_pos_site_id
 _symmetry_equiv_pos_as_xyz
  1  'x, y, z'
loop_
 _atom_type_symbol
 _atom_type_oxidation_number
  Gd3+  3.0
  Ta5+  5.0
  W6+  6.0
  O2-  -2.0
loop_
 _atom_site_type_symbol
 _atom_site_label
 _atom_site_symmetry_multiplicity
 _atom_site_fract_x
 _atom_site_fract_y
 _atom_site_fract_z
 _atom_site_occupancy
  Gd3+  Gd0  1  0.23506200  0.78042101  -0.02723262  1
  Gd3+  Gd1  1  0.47752559  0.26733235  0.50291554  1
  Gd3+  Gd2  1  0.21528281  0.72456600  0.48253005  1
  Gd3+  Gd3  1  0.51646963  0.25400914  0.01239403  1
  Gd3+  Gd4  1  0.76522459  0.25531586  0.24499855  1
  Gd3+  Gd5  1  0.50874828  0.75636289  0.50709986  1
  Gd3+  Gd6  1  0.52530372  0.77604410  0.01950482  1
  Gd3+  Gd7  1  0.49043931  0.77623906  0.76279770  1
  Gd3+  Gd8  1  0.01460050  0.74936086  0.75048941  1
  Gd3+  Gd9  1  0.02526907  0.71356623  0.25231856  1
  Gd3+  Gd10  1  0.78119671  0.73494627  -0.04901405  1
  Gd3+  Gd11  1  -0.00647657  0.26395871  0.74962085  1
  Gd3+  Gd12  1  0.24885323  0.26183221  0.75067189  1
  Gd3+  Gd13  1  -0.00041872  0.75956830  0.51329185  1
  Gd3+  Gd14  1  0.23144921  0.74304143  0.73510384  1
  Gd3+  Gd15  1  0.50392630  0.24080266  0.25389068  1
  Gd3+  Gd16  1  0.76517669  0.26588036  -0.00645898  1
  Gd3+  Gd17  1  0.00082098  0.25852243  0.21864103  1
  Gd3+  Gd18  1  0.73779365  0.23766760  0.48793520  1
  Ta5+  Ta19  1  0.12582661  0.12858186  0.86699987  1
  Ta5+  Ta20  1  0.63619531  0.37489199  0.62271027  1
  Ta5+  Ta21  1  0.13795493  0.53358907  0.39792429  1
  Ta5+  Ta22  1  0.34947225  0.40210231  0.37096134  1
  Ta5+  Ta23  1  0.11834036  0.37229016  0.60360471  1
  Ta5+  Ta24  1  0.85368121  0.64708306  0.13099439  1
  Ta5+  Ta25  1  0.85963795  0.10793873  0.36818598  1
  Ta5+  Ta26  1  0.12546356  0.39231807  0.86816992  1
  Ta5+  Ta27  1  0.61553912  0.10605282  0.37118857  1
  Ta5+  Ta28  1  0.62679572  0.37462413  0.86890756  1
  Ta5+  Ta29  1  0.86463496  0.12098506  0.62283827  1
  Ta5+  Ta30  1  0.61124047  0.12141619  0.62474149  1
  Ta5+  Ta31  1  0.37444908  0.39995745  0.62704134  1
  Ta5+  Ta32  1  0.63335530  0.09425314  0.12594866  1
  Ta5+  Ta33  1  0.37434947  0.13574271  0.87508944  1
  Ta5+  Ta34  1  0.64475673  0.87763236  0.63129048  1
  Ta5+  Ta35  1  0.88335330  0.12423489  0.87588676  1
  Ta5+  Ta36  1  0.16046141  0.55448253  0.63648126  1
  Ta5+  Ta37  1  0.36559226  0.13469169  0.62118671  1
  Ta5+  Ta38  1  0.36473676  0.62938110  0.11126012  1
  Ta5+  Ta39  1  0.13123661  0.87274266  0.12868809  1
  Ta5+  Ta40  1  0.68614697  0.62957612  0.12659455  1
  Ta5+  Ta41  1  0.94475261  0.61130996  0.88734377  1
  Ta5+  Ta42  1  0.12143095  0.90563064  0.61788538  1
  Ta5+  Ta43  1  0.80927900  0.37203810  0.63083657  1
  Ta5+  Ta44  1  0.65337297  0.87858420  0.87233194  1
  Ta5+  Ta45  1  0.64007729  0.63310057  0.37465928  1
  Ta5+  Ta46  1  0.85643863  0.85472316  0.13225488  1
  Ta5+  Ta47  1  0.87405598  0.10724263  0.11452376  1
  Ta5+  Ta48  1  0.86841641  0.62812390  0.38772048  1
  Ta5+  Ta49  1  0.36005615  0.12847209  0.12183905  1
  Ta5+  Ta50  1  0.87495504  0.88080648  0.38320899  1
  Ta5+  Ta51  1  0.10603486  0.57888495  0.87332927  1
  Ta5+  Ta52  1  0.38192855  0.88285934  0.12660022  1
  Ta5+  Ta53  1  0.37112486  0.38624735  0.12072017  1
  Ta5+  Ta54  1  0.64212043  0.87043064  0.37231641  1
  Ta5+  Ta55  1  0.62555602  0.38855319  0.36459635  1
  Ta5+  Ta56  1  0.87353230  0.39191132  0.86674261  1
  Ta5+  Ta57  1  0.34607771  0.88974516  0.37232819  1
  Ta5+  Ta58  1  0.13282759  0.13337539  0.35640200  1
  Ta5+  Ta59  1  0.69252333  0.85040507  0.12612320  1
  Ta5+  Ta60  1  0.87932228  0.88226258  0.64515897  1
  Ta5+  Ta61  1  0.09534535  0.61466661  0.05873500  1
  Ta5+  Ta62  1  0.92094056  0.87909705  0.88975597  1
  Ta5+  Ta63  1  0.60165794  0.62167366  0.88193181  1
  Ta5+  Ta64  1  0.11967498  0.33941756  0.38232645  1
  Ta5+  Ta65  1  0.11947023  0.12572313  0.10935389  1
  Ta5+  Ta66  1  0.63804041  0.62376175  0.63352676  1
  Ta5+  Ta67  1  0.60858892  0.10931139  0.87471345  1
  Ta5+  Ta68  1  0.09800876  0.14024591  0.60250676  1
  Ta5+  Ta69  1  0.87863222  0.40024785  0.12430261  1
  Ta5+  Ta70  1  0.35973390  0.63798204  0.35987949  1
  Ta5+  Ta71  1  0.41580975  0.94332707  0.89518935  1
  Ta5+  Ta72  1  0.34296272  0.89075685  0.57995348  1
  Ta5+  Ta73  1  0.87604508  0.61453305  0.63714784  1
  Ta5+  Ta74  1  0.39346113  0.37942674  0.87328263  1
  W6+  W75  1  0.62430744  0.38522511  0.13272298  1
  W6+  W76  1  0.87156791  0.37660034  0.38449411  1
  W6+  W77  1  0.12882462  0.38779085  0.11907178  1
  W6+  W78  1  0.35984930  0.62683228  0.87545493  1
  W6+  W79  1  0.39088381  0.64809086  0.62144804  1
  W6+  W80  1  0.08057095  0.91626469  0.88883725  1
  W6+  W81  1  0.10416706  0.88692721  0.36741419  1
  W6+  W82  1  0.36440469  0.14381626  0.36866238  1
  O2-  O83  1  0.13208299  -0.00601104  0.12728278  1
  O2-  O84  1  0.13817027  0.01523686  0.35551729  1
  O2-  O85  1  0.15001128  0.02664975  0.62310817  1
  O2-  O86  1  0.14225727  0.02011018  0.81969083  1
  O2-  O87  1  0.14027052  0.52617118  0.12504667  1
  O2-  O88  1  0.05640815  0.43957354  0.41940108  1
  O2-  O89  1  0.23237837  0.44738197  0.61813261  1
  O2-  O90  1  0.19426351  0.48534752  0.83159016  1
  O2-  O91  1  0.35717167  0.00590460  0.11102813  1
  O2-  O92  1  0.33795103  0.00820950  0.37338628  1
  O2-  O93  1  0.36920133  0.00303671  0.60986067  1
  O2-  O94  1  0.32100145  0.02581519  0.90354168  1
  O2-  O95  1  0.39203829  0.50784277  0.10165396  1
  O2-  O96  1  0.39799269  0.51213935  0.37572319  1
  O2-  O97  1  0.39671050  0.51495314  0.62363136  1
  O2-  O98  1  0.39697676  0.49702213  0.88417277  1
  O2-  O99  1  0.66630012  -0.01979251  0.11973688  1
  O2-  O100  1  0.59143507  -0.01795085  0.37536964  1
  O2-  O101  1  0.64514178  -0.00040536  0.62001533  1
  O2-  O102  1  0.67175905  0.00656570  0.88278005  1
  O2-  O103  1  0.65893341  0.51286631  0.12651434  1
  O2-  O104  1  0.61229390  0.51299580  0.38085402  1
  O2-  O105  1  0.63402103  0.50392893  0.61911984  1
  O2-  O106  1  0.60380628  0.49377434  0.88155538  1
  O2-  O107  1  0.86401789  -0.01041748  0.12464958  1
  O2-  O108  1  0.91858763  -0.00055869  0.37654886  1
  O2-  O109  1  0.83998191  0.00131505  0.64694986  1
  O2-  O110  1  0.88327118  0.00171144  0.87763456  1
  O2-  O111  1  0.86202599  0.51649731  0.14192430  1
  O2-  O112  1  0.87563078  0.51044602  0.38579362  1
  O2-  O113  1  0.84662121  0.49846814  0.63419635  1
  O2-  O114  1  0.87012877  0.51152245  0.85810901  1
  O2-  O115  1  0.10148017  0.24874687  0.10786544  1
  O2-  O116  1  0.04738090  0.23646336  0.36961045  1
  O2-  O117  1  0.04396017  0.26545184  0.60656953  1
  O2-  O118  1  0.15407363  0.25598911  0.86977310  1
  O2-  O119  1  0.11323622  0.72130452  0.13110800  1
  O2-  O120  1  0.09953438  0.75347357  0.39943339  1
  O2-  O121  1  0.11581398  0.77229468  0.61452567  1
  O2-  O122  1  0.13330125  0.81029547  0.81279804  1
  O2-  O123  1  0.41449299  0.25961573  0.13447368  1
  O2-  O124  1  0.40748330  0.28536055  0.36839696  1
  O2-  O125  1  0.34572414  0.26015494  0.63412043  1
  O2-  O126  1  0.33704987  0.25478828  0.87090707  1
  O2-  O127  1  0.40731488  0.74825001  0.10974757  1
  O2-  O128  1  0.31468310  0.76060526  0.36686013  1
  O2-  O129  1  0.40740295  0.79533795  0.62832273  1
  O2-  O130  1  0.30862444  0.75034326  0.85477983  1
  O2-  O131  1  0.59726668  0.23645481  0.13533180  1
  O2-  O132  1  0.50141177  0.14629537  0.39945803  1
  O2-  O133  1  0.62635718  0.24380174  0.60261583  1
  O2-  O134  1  0.65067654  0.22410721  0.89265560  1
  O2-  O135  1  0.61912155  0.74017530  0.12301042  1
  O2-  O136  1  0.58442418  0.75495372  0.37743596  1
  O2-  O137  1  0.58532451  0.75498209  0.64334450  1
  O2-  O138  1  0.61958145  0.75267348  0.86306764  1
  O2-  O139  1  0.86046775  0.25705197  0.11485226  1
  O2-  O140  1  0.83931367  0.23756930  0.37529166  1
  O2-  O141  1  0.80834764  0.23316631  0.62228820  1
  O2-  O142  1  0.86460052  0.25249618  0.88710926  1
  O2-  O143  1  0.93250579  0.75131689  0.13933677  1
  O2-  O144  1  0.91418477  0.75813028  0.39184511  1
  O2-  O145  1  0.91695254  0.75056638  0.63739427  1
  O2-  O146  1  0.93833972  0.74341348  0.88353545  1
  O2-  O147  1  0.15006057  0.11033707  -0.01360769  1
  O2-  O148  1  0.08613569  0.13520826  0.23606835  1
  O2-  O149  1  0.13622910  0.14498814  0.48736239  1
  O2-  O150  1  0.12157496  0.16861841  0.72721950  1
  O2-  O151  1  0.13625171  0.67810310  -0.04782739  1
  O2-  O152  1  0.07427973  0.58891016  0.31572486  1
  O2-  O153  1  0.12563125  0.59153617  0.50844171  1
  O2-  O154  1  0.12955668  0.62155061  0.73863625  1
  O2-  O155  1  0.40373713  0.15214327  0.00417066  1
  O2-  O156  1  0.40608827  0.12796132  0.23550567  1
  O2-  O157  1  0.34259219  0.15330441  0.50313499  1
  O2-  O158  1  0.33718982  0.12639085  0.74766498  1
  O2-  O159  1  0.30617946  0.64918832  0.00342845  1
  O2-  O160  1  0.35259936  0.63144959  0.23679806  1
  O2-  O161  1  0.39931230  0.66133103  0.47906752  1
  O2-  O162  1  0.41303614  0.65425788  0.75517560  1
  O2-  O163  1  0.58584382  0.11004266  0.01001191  1
  O2-  O164  1  0.58491531  0.10238993  0.24138403  1
  O2-  O165  1  0.64670634  0.11700050  0.49323762  1
  O2-  O166  1  0.60870482  0.12274607  0.74833653  1
  O2-  O167  1  0.67029663  0.63665544  -0.01270085  1
  O2-  O168  1  0.67019615  0.64012551  0.25899828  1
  O2-  O169  1  0.60480621  0.64287956  0.51200466  1
  O2-  O170  1  0.59805297  0.62069620  0.75235621  1
  O2-  O171  1  0.82645160  0.12513529  -0.00583931  1
  O2-  O172  1  0.89278047  0.13849346  0.24312343  1
  O2-  O173  1  0.83420812  0.11211521  0.49486940  1
  O2-  O174  1  0.89577509  0.14233776  0.74763057  1
  O2-  O175  1  0.87091137  0.63582075  0.00473445  1
  O2-  O176  1  0.88171368  0.64752504  0.26676962  1
  O2-  O177  1  0.91899571  0.62981493  0.51623629  1
  O2-  O178  1  0.93538242  0.61955576  0.74541843  1
  O2-  O179  1  0.13233759  0.39652284  -0.01353981  1
  O2-  O180  1  0.11427052  0.35333631  0.25831713  1
  O2-  O181  1  0.17039819  0.32460456  0.49951388  1
  O2-  O182  1  0.12695525  0.34936610  0.73039081  1
  O2-  O183  1  0.25148710  0.84611733  0.11835966  1
  O2-  O184  1  0.07448106  0.85335310  0.23711445  1
  O2-  O185  1  0.08629247  0.90487197  0.50329452  1
  O2-  O186  1  0.00948793  0.90422202  0.66751410  1
  O2-  O187  1  0.41125326  0.35980872  -0.00003476  1
  O2-  O188  1  0.36465509  0.39572230  0.24720696  1
  O2-  O189  1  0.36668241  0.37819154  0.49927429  1
  O2-  O190  1  0.34417652  0.38228579  0.75285047  1
  O2-  O191  1  0.36752984  0.87046070  -0.01416237  1
  O2-  O192  1  0.37982625  0.87940484  0.25174031  1
  O2-  O193  1  0.42576016  0.87751160  0.47296677  1
  O2-  O194  1  0.40660302  0.89632569  0.78560279  1
  O2-  O195  1  0.63555231  0.35294999  -0.00188505  1
  O2-  O196  1  0.64096042  0.24158588  0.34945755  1
  O2-  O197  1  0.59671809  0.35970595  0.48417861  1
  O2-  O198  1  0.62960962  0.36015853  0.74511230  1
  O2-  O199  1  0.68110280  0.84803257  -0.00606570  1
  O2-  O200  1  0.66565926  0.85934868  0.25571995  1
  O2-  O201  1  0.61155792  0.86296495  0.51087583  1
  O2-  O202  1  0.59963621  0.88726342  0.74986949  1
  O2-  O203  1  0.85856700  0.39065832  -0.00090449  1
  O2-  O204  1  0.88411881  0.35506741  0.24901331  1
  O2-  O205  1  0.81607923  0.36732629  0.50685869  1
  O2-  O206  1  0.87366667  0.35367796  0.74175833  1
  O2-  O207  1  0.87291790  0.85272699  0.00136692  1
  O2-  O208  1  0.86458041  0.86842552  0.26335667  1
  O2-  O209  1  0.90300779  0.87725628  0.51859478  1
  O2-  O210  1  0.88225895  0.85850286  0.76884475  1
  O2-  O211  1  0.09948364  -0.14925898  0.01287267  1
  O2-  O212  1  -0.00829358  0.11587021  0.08600853  1
  O2-  O213  1  -0.01652270  0.10140160  0.59415424  1
  O2-  O214  1  0.00555203  0.14812816  0.87860258  1
  O2-  O215  1  0.01832491  0.54966886  -0.02069422  1
  O2-  O216  1  -0.00251966  0.38917378  0.12392518  1
  O2-  O217  1  0.05816672  0.48022870  0.62035125  1
  O2-  O218  1  -0.00141548  0.36677648  0.85858986  1
  O2-  O219  1  0.24450431  0.14835381  0.13298502  1
  O2-  O220  1  0.23730663  0.18258692  0.33319800  1
  O2-  O221  1  0.26275540  -0.12528545  0.48501935  1
  O2-  O222  1  0.24483611  -0.12495903  0.66005264  1
  O2-  O223  1  0.25888316  0.36706153  0.10388774  1
  O2-  O224  1  0.22704556  0.43244453  0.37325509  1
  O2-  O225  1  0.24432043  0.60611595  0.39045104  1
  O2-  O226  1  0.24891224  0.64824582  0.61139012  1
  O2-  O227  1  0.52960145  -0.10735914  -0.08136539  1
  O2-  O228  1  0.49912214  -0.10762569  0.10729563  1
  O2-  O229  1  0.48809612  0.14010218  0.60723957  1
  O2-  O230  1  0.48453494  0.05878587  0.86722981  1
  O2-  O231  1  0.49263063  0.65654183  -0.07379622  1
  O2-  O232  1  0.55845760  0.38060276  0.26202774  1
  O2-  O233  1  0.49063925  0.36059894  0.62428405  1
  O2-  O234  1  0.50513666  0.32568306  0.86410900  1
  O2-  O235  1  0.74513455  0.13890935  0.14600628  1
  O2-  O236  1  0.74137744  0.09196486  0.33676403  1
  O2-  O237  1  0.75516780  -0.11064551  0.41449978  1
  O2-  O238  1  0.75854567  -0.15510484  0.63417709  1
  O2-  O239  1  0.74875988  0.37681653  -0.12894633  1
  O2-  O240  1  0.74091318  0.38155676  0.33415271  1
  O2-  O241  1  0.75379254  0.65751222  0.41994602  1
  O2-  O242  1  0.75679256  0.65232816  0.63802183  1
