# generated using pymatgen
data_Gd19Ta56(WO20)8
_symmetry_space_group_name_H-M   'P 1'
_cell_length_a   15.52422086
_cell_length_b   15.39611220
_cell_length_c   15.35502364
_cell_angle_alpha   89.86235594
_cell_angle_beta   89.82445059
_cell_angle_gamma   89.84366319
_symmetry_Int_Tables_number   1
_chemical_formula_structural   Gd19Ta56(WO20)8
_chemical_formula_sum   'Gd19 Ta56 W8 O160'
_cell_volume   3670.00342568
_cell_formula_units_Z   1
loop_
 _symmetry_equiv_pos_site_id
 _symmetry_equiv_pos_as_xyz
  1  'x, y, z'
loop_
 _atom_type_symbol
 _atom_type_oxidation_number
  Gd3+  3.0
  Ta5+  5.0
  W6+  6.0
  O2-  -2.0
loop_
 _atom_site_type_symbol
 _atom_site_label
 _atom_site_symmetry_multiplicity
 _atom_site_fract_x
 _atom_site_fract_y
 _atom_site_fract_z
 _atom_site_occupancy
  Gd3+  Gd0  1  0.74903831  0.74230960  0.25564698  1
  Gd3+  Gd1  1  0.00018944  0.23870709  0.51545034  1
  Gd3+  Gd2  1  0.49437563  0.27476680  -0.00791143  1
  Gd3+  Gd3  1  -0.01834216  0.75806523  -0.00579556  1
  Gd3+  Gd4  1  0.01198682  0.75895996  0.24919902  1
  Gd3+  Gd5  1  -0.05916840  0.74072863  0.75747475  1
  Gd3+  Gd6  1  0.52775667  0.75067927  0.49181274  1
  Gd3+  Gd7  1  0.28964752  0.76432510  0.53585747  1
  Gd3+  Gd8  1  0.21597528  0.24416350  -0.02343739  1
  Gd3+  Gd9  1  -0.01433404  0.77442755  0.47699135  1
  Gd3+  Gd10  1  0.24234643  0.24547259  0.50542032  1
  Gd3+  Gd11  1  0.70886942  0.72725072  0.73823265  1
  Gd3+  Gd12  1  0.50195070  0.25088571  0.76460823  1
  Gd3+  Gd13  1  0.78795415  0.24978254  0.74913773  1
  Gd3+  Gd14  1  0.26723910  0.73705886  -0.00146098  1
  Gd3+  Gd15  1  0.78585247  0.23320876  0.00353252  1
  Gd3+  Gd16  1  0.26312970  0.76409068  0.24137326  1
  Gd3+  Gd17  1  0.50431114  0.24786110  0.23059767  1
  Gd3+  Gd18  1  0.03859865  0.23366664  0.75363958  1
  Ta5+  Ta19  1  0.08962101  0.36607833  0.11412399  1
  Ta5+  Ta20  1  0.88058409  0.38993436  0.62289923  1
  Ta5+  Ta21  1  0.60649631  0.85832795  0.12895551  1
  Ta5+  Ta22  1  0.62715960  0.10852316  0.11666990  1
  Ta5+  Ta23  1  0.14034683  0.09301973  0.62822735  1
  Ta5+  Ta24  1  0.59341400  0.86836515  0.88114303  1
  Ta5+  Ta25  1  0.34968376  0.38281505  0.12522600  1
  Ta5+  Ta26  1  0.62185428  0.88098973  0.37424872  1
  Ta5+  Ta27  1  0.89304298  0.38267224  0.87871600  1
  Ta5+  Ta28  1  0.34302687  0.38112193  0.37453513  1
  Ta5+  Ta29  1  0.13468674  0.60433291  0.42603791  1
  Ta5+  Ta30  1  0.09337165  0.12549411  0.11803535  1
  Ta5+  Ta31  1  0.12954943  0.12201392  0.35579461  1
  Ta5+  Ta32  1  0.89490222  0.10906919  0.86716572  1
  Ta5+  Ta33  1  0.81374769  0.86717938  0.61960266  1
  Ta5+  Ta34  1  0.35380385  0.38894127  0.63993847  1
  Ta5+  Ta35  1  0.87050557  0.12096583  0.37013247  1
  Ta5+  Ta36  1  0.37113584  0.12817485  0.37957846  1
  Ta5+  Ta37  1  0.60265890  0.87897200  0.63506407  1
  Ta5+  Ta38  1  0.63629466  0.13008030  0.37272054  1
  Ta5+  Ta39  1  0.37857203  0.88944021  0.38200084  1
  Ta5+  Ta40  1  0.42694785  0.61389729  0.62742744  1
  Ta5+  Ta41  1  0.92246569  0.35618266  0.12450125  1
  Ta5+  Ta42  1  0.81279783  0.53722137  0.33825769  1
  Ta5+  Ta43  1  0.88101362  0.90190895  0.13094369  1
  Ta5+  Ta44  1  0.88565617  0.05792362  0.62185077  1
  Ta5+  Ta45  1  0.88225388  0.36107065  0.36595753  1
  Ta5+  Ta46  1  0.90624983  0.60639782  0.12405162  1
  Ta5+  Ta47  1  0.63834067  0.35333953  0.61576256  1
  Ta5+  Ta48  1  0.64316597  0.38230925  0.87381850  1
  Ta5+  Ta49  1  0.11162358  0.59714466  0.09409555  1
  Ta5+  Ta50  1  0.81351339  0.61489465  0.90550457  1
  Ta5+  Ta51  1  0.35634599  0.86427009  0.83240313  1
  Ta5+  Ta52  1  0.09879892  0.37514205  0.36554202  1
  Ta5+  Ta53  1  0.09920596  0.92382273  0.12301057  1
  Ta5+  Ta54  1  0.37012489  0.62576174  0.37683913  1
  Ta5+  Ta55  1  0.61253169  0.60782396  0.37049917  1
  Ta5+  Ta56  1  0.82501968  0.87238310  0.88778322  1
  Ta5+  Ta57  1  0.58633091  0.61670795  0.87687417  1
  Ta5+  Ta58  1  0.09793649  0.40733344  0.86338354  1
  Ta5+  Ta59  1  0.12085087  0.59878969  0.84852834  1
  Ta5+  Ta60  1  0.38882066  0.12124794  0.62091788  1
  Ta5+  Ta61  1  0.08824048  0.64645822  0.62059466  1
  Ta5+  Ta62  1  0.84338621  0.62467966  0.56574559  1
  Ta5+  Ta63  1  0.13847896  0.06298219  0.87287424  1
  Ta5+  Ta64  1  0.11190745  0.43776078  0.61941332  1
  Ta5+  Ta65  1  0.64069946  0.12532804  0.62329456  1
  Ta5+  Ta66  1  0.41473410  0.88169302  0.07410017  1
  Ta5+  Ta67  1  0.42232940  0.61182117  0.13402708  1
  Ta5+  Ta68  1  0.62071758  0.61287613  0.12287463  1
  Ta5+  Ta69  1  0.40189634  0.44613164  0.88161106  1
  Ta5+  Ta70  1  0.64327155  0.11072538  0.87898730  1
  Ta5+  Ta71  1  0.92674053  0.11922234  0.12574841  1
  Ta5+  Ta72  1  0.15561071  0.96581852  0.46767131  1
  Ta5+  Ta73  1  0.59605255  0.60130594  0.62478014  1
  Ta5+  Ta74  1  0.43440800  0.87661752  0.63354825  1
  W6+  W75  1  0.36735495  0.12449330  0.11999321  1
  W6+  W76  1  0.10553994  0.84299738  0.86870363  1
  W6+  W77  1  0.36671399  0.11038280  0.87207349  1
  W6+  W78  1  0.65495151  0.38220915  0.12307262  1
  W6+  W79  1  0.41223178  0.64444335  0.87641911  1
  W6+  W80  1  0.05451606  0.90641809  0.65556746  1
  W6+  W81  1  0.63612891  0.35573114  0.36474464  1
  W6+  W82  1  0.84320535  0.87943885  0.37195310  1
  O2-  O83  1  0.17502441  0.01450597  0.14020369  1
  O2-  O84  1  0.12252168  -0.00604447  0.34951527  1
  O2-  O85  1  0.02278970  0.05285067  0.64212008  1
  O2-  O86  1  0.18139912  -0.04530464  0.88982458  1
  O2-  O87  1  0.14030090  0.48886622  0.13403614  1
  O2-  O88  1  0.08860680  0.50239627  0.37720942  1
  O2-  O89  1  0.04175165  0.53184843  0.66042109  1
  O2-  O90  1  0.18428347  0.48973166  0.82704872  1
  O2-  O91  1  0.37906103  -0.01033453  0.10394050  1
  O2-  O92  1  0.40344660  0.00853939  0.39610642  1
  O2-  O93  1  0.40635430  0.00367608  0.61206463  1
  O2-  O94  1  0.35042347  -0.01221771  0.83997027  1
  O2-  O95  1  0.34616812  0.50370694  0.13945925  1
  O2-  O96  1  0.38110414  0.49997271  0.37552595  1
  O2-  O97  1  0.41645600  0.48389542  0.60101562  1
  O2-  O98  1  0.32641555  0.53450446  0.90321038  1
  O2-  O99  1  0.63347640  -0.02095319  0.11380058  1
  O2-  O100  1  0.62268299  0.00589323  0.36751137  1
  O2-  O101  1  0.60597373  0.01041333  0.63515800  1
  O2-  O102  1  0.59352676  -0.00008651  0.88767310  1
  O2-  O103  1  0.68876692  0.50990294  0.12525409  1
  O2-  O104  1  0.60703771  0.48926670  0.36694743  1
  O2-  O105  1  0.60548425  0.46787256  0.62901843  1
  O2-  O106  1  0.66307945  0.49921293  0.86559309  1
  O2-  O107  1  0.84276187  0.01362586  0.11944347  1
  O2-  O108  1  0.83409017  0.00901038  0.39315659  1
  O2-  O109  1  0.92025811  -0.06391870  0.65222847  1
  O2-  O110  1  0.85890084  -0.01071570  0.86680898  1
  O2-  O111  1  0.90971768  0.48559356  0.12213840  1
  O2-  O112  1  0.92024632  0.48751901  0.35867587  1
  O2-  O113  1  0.87572026  0.51287028  0.60937904  1
  O2-  O114  1  0.85134661  0.50037961  0.90260827  1
  O2-  O115  1  0.10966221  0.24571120  0.08109946  1
  O2-  O116  1  0.12570957  0.24736790  0.40892753  1
  O2-  O117  1  0.11844816  0.21968729  0.60888137  1
  O2-  O118  1  0.12955137  0.28232498  0.85999959  1
  O2-  O119  1  0.19817662  0.67461419  0.13042890  1
  O2-  O120  1  0.06867619  0.69345726  0.37211749  1
  O2-  O121  1  0.03998976  0.76270028  0.64166234  1
  O2-  O122  1  0.04392004  0.70635358  0.86243686  1
  O2-  O123  1  0.40727961  0.26371566  0.11513613  1
  O2-  O124  1  0.33153656  0.25157118  0.37793801  1
  O2-  O125  1  0.38875436  0.26969380  0.64642903  1
  O2-  O126  1  0.51693056  0.37181479  0.85634630  1
  O2-  O127  1  0.33563876  0.79627193  0.12058699  1
  O2-  O128  1  0.33547974  0.75415286  0.38692684  1
  O2-  O129  1  0.42211049  0.74295803  0.61689743  1
  O2-  O130  1  0.31186815  0.74396919  0.85826249  1
  O2-  O131  1  0.59303398  0.23488982  0.10426143  1
  O2-  O132  1  0.56320019  0.23299608  0.36767674  1
  O2-  O133  1  0.57258324  0.23966808  0.62661071  1
  O2-  O134  1  0.59914760  0.22799885  0.89685957  1
  O2-  O135  1  0.67430460  0.74801399  0.12203241  1
  O2-  O136  1  0.64696318  0.74593693  0.38014728  1
  O2-  O137  1  0.60816050  0.74312953  0.62452974  1
  O2-  O138  1  0.61702051  0.74041626  0.86868203  1
  O2-  O139  1  0.87414627  0.23020151  0.12480506  1
  O2-  O140  1  0.92408870  0.24138628  0.38635298  1
  O2-  O141  1  0.93989776  0.27769838  0.64455472  1
  O2-  O142  1  0.91392193  0.24781679  0.84277983  1
  O2-  O143  1  0.91680255  0.75106537  0.13233956  1
  O2-  O144  1  0.90492934  0.76109807  0.34870413  1
  O2-  O145  1  0.85491532  0.73512286  0.63019459  1
  O2-  O146  1  0.86616468  0.74524509  0.90260054  1
  O2-  O147  1  0.13654433  0.11662908  -0.01649834  1
  O2-  O148  1  0.10221830  0.15384698  0.24314807  1
  O2-  O149  1  0.10734823  0.08976363  0.49255588  1
  O2-  O150  1  0.15556186  0.11272164  0.75189934  1
  O2-  O151  1  0.16238355  0.61943308  -0.03120600  1
  O2-  O152  1  0.23768331  0.61374203  0.36437810  1
  O2-  O153  1  0.15367183  0.70408028  0.52083297  1
  O2-  O154  1  0.14832128  0.64491772  0.73122682  1
  O2-  O155  1  0.40677644  0.23639991  -0.12104330  1
  O2-  O156  1  0.41126318  0.13468120  0.26264167  1
  O2-  O157  1  0.41404064  0.15632986  0.50016191  1
  O2-  O158  1  0.42528166  0.12659018  0.73967009  1
  O2-  O159  1  0.38775659  0.65275469  0.02355400  1
  O2-  O160  1  0.36220459  0.64540698  0.24402412  1
  O2-  O161  1  0.35777777  0.63093285  0.50492945  1
  O2-  O162  1  0.40843704  0.61293107  0.74449411  1
  O2-  O163  1  0.68884289  0.11557213  0.00461714  1
  O2-  O164  1  0.61761952  0.12661511  0.23943894  1
  O2-  O165  1  0.63461719  0.12886429  0.49856008  1
  O2-  O166  1  0.61995356  0.13778959  0.75608648  1
  O2-  O167  1  0.61395628  0.62170058  0.00030584  1
  O2-  O168  1  0.65400165  0.62656656  0.25077007  1
  O2-  O169  1  0.60106203  0.61574342  0.49687044  1
  O2-  O170  1  0.61366628  0.61140738  0.75176350  1
  O2-  O171  1  0.89489377  0.12975821  -0.01065757  1
  O2-  O172  1  0.91224741  0.10920610  0.25757986  1
  O2-  O173  1  0.90096218  0.12251239  0.51395499  1
  O2-  O174  1  0.88698977  0.11608903  0.73212725  1
  O2-  O175  1  0.82409443  0.63093634  0.03510551  1
  O2-  O176  1  0.83895163  0.61349338  0.23672270  1
  O2-  O177  1  0.81681683  0.60320708  0.44588454  1
  O2-  O178  1  0.82044103  0.64059108  0.78314002  1
  O2-  O179  1  0.09452572  0.39956641  -0.01458077  1
  O2-  O180  1  0.09470189  0.35309259  0.24837962  1
  O2-  O181  1  0.08212456  0.37848695  0.51463797  1
  O2-  O182  1  0.07593249  0.37636784  0.72389716  1
  O2-  O183  1  0.10547477  0.84614573  0.02602892  1
  O2-  O184  1  0.13877244  0.83578639  0.20729395  1
  O2-  O185  1  0.25660573  0.89693468  0.45057213  1
  O2-  O186  1  0.01172946  0.87022568  0.77611020  1
  O2-  O187  1  0.40074898  0.39480615  0.00227658  1
  O2-  O188  1  0.38198790  0.36281480  0.25066279  1
  O2-  O189  1  0.33650581  0.36290217  0.50306092  1
  O2-  O190  1  0.37072318  0.40718388  0.76459797  1
  O2-  O191  1  0.34947987  0.86249418  -0.03152962  1
  O2-  O192  1  0.32459915  0.88923487  0.27513556  1
  O2-  O193  1  0.41080588  0.85510854  0.50701277  1
  O2-  O194  1  0.33019150  0.85594825  0.71091681  1
  O2-  O195  1  0.61769179  0.37486876  -0.00335615  1
  O2-  O196  1  0.59932392  0.35911324  0.23423028  1
  O2-  O197  1  0.64793866  0.34136721  0.49800559  1
  O2-  O198  1  0.65026404  0.32775885  0.75244640  1
  O2-  O199  1  0.71441143  0.87444190  -0.06723067  1
  O2-  O200  1  0.64856834  0.86086885  0.24986250  1
  O2-  O201  1  0.61392377  0.87665442  0.50058789  1
  O2-  O202  1  0.63181387  0.87166968  0.76231309  1
  O2-  O203  1  0.89448479  0.34232101  -0.00249887  1
  O2-  O204  1  0.89055261  0.34643617  0.24546363  1
  O2-  O205  1  0.89573154  0.36516236  0.50038644  1
  O2-  O206  1  0.86938219  0.39340411  0.75229278  1
  O2-  O207  1  0.88727491  0.87630534  0.00518481  1
  O2-  O208  1  0.81762202  0.87106889  0.23129237  1
  O2-  O209  1  0.85998958  0.85207035  0.50595308  1
  O2-  O210  1  0.81477022  0.84363376  0.76056802  1
  O2-  O211  1  0.01465632  0.01754221  0.07838592  1
  O2-  O212  1  -0.01043102  -0.09946468  0.19213886  1
  O2-  O213  1  0.06436034  -0.10588359  0.50522790  1
  O2-  O214  1  0.01646454  0.09839628  0.85071624  1
  O2-  O215  1  0.00066061  0.61609544  0.02959969  1
  O2-  O216  1  0.02716747  0.62470129  0.18958099  1
  O2-  O217  1  -0.02094514  0.64055008  0.53603285  1
  O2-  O218  1  0.02619298  0.52196137  0.85504831  1
  O2-  O219  1  0.31736311  0.13927476  -0.00550681  1
  O2-  O220  1  0.25095679  0.10814160  0.41330828  1
  O2-  O221  1  0.17803114  -0.02736017  0.60320101  1
  O2-  O222  1  0.26731294  0.13365063  0.60483798  1
  O2-  O223  1  0.24083982  0.34675672  0.09571878  1
  O2-  O224  1  0.22505901  0.39498676  0.36632384  1
  O2-  O225  1  0.15104615  0.54603243  0.54326893  1
  O2-  O226  1  0.23178907  0.40899429  0.63762630  1
  O2-  O227  1  0.53517229  -0.14212459  0.01402010  1
  O2-  O228  1  0.49407175  -0.13689310  0.17347347  1
  O2-  O229  1  0.49888702  -0.14605887  0.36226736  1
  O2-  O230  1  0.47611890  -0.14778926  0.84446229  1
  O2-  O231  1  0.51705770  0.53074501  0.12721228  1
  O2-  O232  1  0.51585086  0.68929057  0.15568122  1
  O2-  O233  1  0.49095044  0.65237496  0.36866294  1
  O2-  O234  1  0.49375816  0.52903090  0.89068178  1
  O2-  O235  1  0.76696516  0.14807805  -0.13975552  1
  O2-  O236  1  0.75290805  0.16534450  0.36368116  1
  O2-  O237  1  0.78232815  -0.00636844  0.60356048  1
  O2-  O238  1  0.75704767  0.15868013  0.63476417  1
  O2-  O239  1  0.76202412  0.33127817  -0.11436119  1
  O2-  O240  1  0.76251622  0.42292207  0.36128455  1
  O2-  O241  1  0.73244071  0.61682629  0.61335911  1
  O2-  O242  1  0.76320358  0.35127356  0.62727309  1
