# generated using pymatgen
data_Gd19Ta56(WO20)8
_symmetry_space_group_name_H-M   'P 1'
_cell_length_a   15.64502128
_cell_length_b   15.42619570
_cell_length_c   15.20692744
_cell_angle_alpha   90.15714408
_cell_angle_beta   90.16797671
_cell_angle_gamma   90.20043490
_symmetry_Int_Tables_number   1
_chemical_formula_structural   Gd19Ta56(WO20)8
_chemical_formula_sum   'Gd19 Ta56 W8 O160'
_cell_volume   3670.03578620
_cell_formula_units_Z   1
loop_
 _symmetry_equiv_pos_site_id
 _symmetry_equiv_pos_as_xyz
  1  'x, y, z'
loop_
 _atom_type_symbol
 _atom_type_oxidation_number
  Gd3+  3.0
  Ta5+  5.0
  W6+  6.0
  O2-  -2.0
loop_
 _atom_site_type_symbol
 _atom_site_label
 _atom_site_symmetry_multiplicity
 _atom_site_fract_x
 _atom_site_fract_y
 _atom_site_fract_z
 _atom_site_occupancy
  Gd3+  Gd0  1  0.72497951  0.74671388  -0.03555606  1
  Gd3+  Gd1  1  -0.01988391  0.74466601  0.47206437  1
  Gd3+  Gd2  1  0.73747272  0.25886205  0.50104151  1
  Gd3+  Gd3  1  0.00361022  0.73974587  0.02144193  1
  Gd3+  Gd4  1  0.26464334  0.25548911  0.25863460  1
  Gd3+  Gd5  1  0.00233689  0.74060325  0.25039953  1
  Gd3+  Gd6  1  0.73441546  0.23687721  0.24693519  1
  Gd3+  Gd7  1  0.24085159  0.22868383  0.74574446  1
  Gd3+  Gd8  1  0.74075861  0.24148396  -0.00866027  1
  Gd3+  Gd9  1  0.51056966  0.74309241  0.00996604  1
  Gd3+  Gd10  1  0.00875222  0.24044016  0.25698229  1
  Gd3+  Gd11  1  0.26307537  0.25548616  0.00158344  1
  Gd3+  Gd12  1  0.74478499  0.73480225  0.70806321  1
  Gd3+  Gd13  1  0.01485855  0.25666939  -0.01651568  1
  Gd3+  Gd14  1  0.26502170  0.74869532  -0.00897021  1
  Gd3+  Gd15  1  0.01909184  0.23955586  0.52207080  1
  Gd3+  Gd16  1  0.73638559  0.24124507  0.75514151  1
  Gd3+  Gd17  1  -0.00747292  0.25337080  0.74592021  1
  Gd3+  Gd18  1  0.26338185  0.77481863  0.53342918  1
  Ta5+  Ta19  1  0.43359614  0.89445078  0.87856666  1
  Ta5+  Ta20  1  0.85305807  0.62006070  0.12917040  1
  Ta5+  Ta21  1  0.39753982  0.13105468  0.13267933  1
  Ta5+  Ta22  1  0.42498152  0.87844286  0.64055380  1
  Ta5+  Ta23  1  0.41673876  0.44425049  0.88479728  1
  Ta5+  Ta24  1  0.07848660  0.85120557  0.86255646  1
  Ta5+  Ta25  1  0.08966452  0.87167320  0.62159024  1
  Ta5+  Ta26  1  0.58725984  0.86306108  0.62422560  1
  Ta5+  Ta27  1  0.59946604  0.85611546  0.82312882  1
  Ta5+  Ta28  1  0.13673166  0.89376990  0.37390864  1
  Ta5+  Ta29  1  0.12972526  0.63754988  0.85595768  1
  Ta5+  Ta30  1  0.56563232  0.62804071  0.62457677  1
  Ta5+  Ta31  1  0.13877242  0.88418220  0.11542522  1
  Ta5+  Ta32  1  0.34114348  0.62731270  0.39773873  1
  Ta5+  Ta33  1  0.11441807  0.55677298  0.37138549  1
  Ta5+  Ta34  1  0.87125272  0.88112289  0.13069023  1
  Ta5+  Ta35  1  0.11543624  0.06774353  0.63805759  1
  Ta5+  Ta36  1  0.38975409  0.11718613  0.88517011  1
  Ta5+  Ta37  1  0.12012624  0.40437144  0.62743359  1
  Ta5+  Ta38  1  0.10413910  0.09621696  0.87293792  1
  Ta5+  Ta39  1  0.12175758  0.36893679  0.38892971  1
  Ta5+  Ta40  1  0.85488716  0.11209966  0.60187776  1
  Ta5+  Ta41  1  0.87723294  0.39342203  0.87639000  1
  Ta5+  Ta42  1  0.38554505  0.88533456  0.13165643  1
  Ta5+  Ta43  1  0.63376594  0.37640724  0.36829212  1
  Ta5+  Ta44  1  0.62695880  0.38391552  0.87772453  1
  Ta5+  Ta45  1  0.84125968  0.62418932  0.35142030  1
  Ta5+  Ta46  1  0.60537018  0.38701766  0.62384130  1
  Ta5+  Ta47  1  0.38686420  0.38189861  0.39099024  1
  Ta5+  Ta48  1  0.38024061  0.39156133  0.12681594  1
  Ta5+  Ta49  1  0.88606999  0.38037006  0.12661763  1
  Ta5+  Ta50  1  0.61954158  0.10709237  0.62491110  1
  Ta5+  Ta51  1  0.91249416  0.63416472  0.86679381  1
  Ta5+  Ta52  1  0.14494344  0.62032245  0.12811189  1
  Ta5+  Ta53  1  0.92254911  0.87968570  0.62005648  1
  Ta5+  Ta54  1  0.13421264  0.37445368  0.12725344  1
  Ta5+  Ta55  1  0.88476602  0.12617108  0.38767865  1
  Ta5+  Ta56  1  0.88489217  0.38723197  0.37595248  1
  Ta5+  Ta57  1  0.85801911  0.88526990  0.35889258  1
  Ta5+  Ta58  1  0.36799180  0.12838592  0.39472191  1
  Ta5+  Ta59  1  0.39751350  0.12490754  0.64620493  1
  Ta5+  Ta60  1  0.89593045  0.10826265  0.86638331  1
  Ta5+  Ta61  1  0.66957990  0.86425855  0.17434273  1
  Ta5+  Ta62  1  0.62945181  0.86128027  0.40687274  1
  Ta5+  Ta63  1  0.62108028  0.38251412  0.12037831  1
  Ta5+  Ta64  1  0.40229712  0.63284059  0.64038882  1
  Ta5+  Ta65  1  0.89810680  0.63283434  0.61312434  1
  Ta5+  Ta66  1  0.37333187  0.88781114  0.38440828  1
  Ta5+  Ta67  1  0.06728373  0.63163312  0.61291794  1
  Ta5+  Ta68  1  0.87991026  0.12915551  0.12104061  1
  Ta5+  Ta69  1  0.59968917  0.59727190  0.82815057  1
  Ta5+  Ta70  1  0.39296055  0.63384003  0.15722540  1
  Ta5+  Ta71  1  0.86945911  0.38944543  0.62199658  1
  Ta5+  Ta72  1  0.91429059  0.86788196  0.87075507  1
  Ta5+  Ta73  1  0.12830664  0.10605763  0.38321569  1
  Ta5+  Ta74  1  0.64477509  0.62630196  0.16493988  1
  W6+  W75  1  0.63118424  0.10386318  0.11596363  1
  W6+  W76  1  0.12987224  0.11334639  0.11928723  1
  W6+  W77  1  0.61619706  0.11258495  0.37415677  1
  W6+  W78  1  0.37447801  0.66032577  0.81443464  1
  W6+  W79  1  0.36293011  0.38100421  0.64440573  1
  W6+  W80  1  0.58695937  0.11245918  0.87657142  1
  W6+  W81  1  0.59839270  0.61710334  0.41082531  1
  W6+  W82  1  0.12698722  0.38697562  0.86523357  1
  O2-  O83  1  0.08369461  -0.01378452  0.09284529  1
  O2-  O84  1  0.06881064  -0.00619017  0.38088211  1
  O2-  O85  1  0.01989490  -0.00857476  0.63432593  1
  O2-  O86  1  0.11091748  -0.02385718  0.88048616  1
  O2-  O87  1  0.14811372  0.49704510  0.11863209  1
  O2-  O88  1  0.02083406  0.45032182  0.38040549  1
  O2-  O89  1  0.13214868  0.51890176  0.60188688  1
  O2-  O90  1  0.14020871  0.52049159  0.87040922  1
  O2-  O91  1  0.39213856  0.00644415  0.13963845  1
  O2-  O92  1  0.40863732  0.01015266  0.37465818  1
  O2-  O93  1  0.42616525  0.00231867  0.63829764  1
  O2-  O94  1  0.36145514  -0.00336895  0.89702614  1
  O2-  O95  1  0.36838580  0.51505861  0.13249450  1
  O2-  O96  1  0.38251811  0.51169399  0.38639144  1
  O2-  O97  1  0.38126831  0.51535245  0.65418783  1
  O2-  O98  1  0.36969338  0.55280387  0.90992355  1
  O2-  O99  1  0.62365140  -0.03672168  0.13138992  1
  O2-  O100  1  0.61398720  -0.01726296  0.39612097  1
  O2-  O101  1  0.61104976  -0.00901980  0.60694823  1
  O2-  O102  1  0.54030248  -0.02971286  0.85653708  1
  O2-  O103  1  0.63657918  0.50845157  0.12683282  1
  O2-  O104  1  0.58676289  0.48569743  0.37864377  1
  O2-  O105  1  0.59754673  0.50309589  0.60643075  1
  O2-  O106  1  0.67119994  0.50031692  0.86963571  1
  O2-  O107  1  0.87086697  0.00630880  0.12970088  1
  O2-  O108  1  0.87207832  0.00693859  0.35204176  1
  O2-  O109  1  0.85421416  -0.00663073  0.62127826  1
  O2-  O110  1  0.87562946  -0.01078544  0.87743809  1
  O2-  O111  1  0.84234364  0.49460964  0.13256276  1
  O2-  O112  1  0.83868730  0.49975552  0.35350453  1
  O2-  O113  1  0.86277973  0.50837914  0.63112272  1
  O2-  O114  1  0.86814190  0.51534730  0.86692496  1
  O2-  O115  1  0.17609602  0.24673584  0.13726501  1
  O2-  O116  1  0.09674753  0.23720289  0.38562378  1
  O2-  O117  1  0.09173611  0.20416469  0.64843950  1
  O2-  O118  1  0.10261722  0.24448890  0.85264559  1
  O2-  O119  1  0.10025445  0.75072287  0.13800764  1
  O2-  O120  1  0.07608147  0.78442849  0.36959773  1
  O2-  O121  1  0.10341450  0.74780298  0.57859036  1
  O2-  O122  1  0.02158835  0.71955951  0.86925301  1
  O2-  O123  1  0.35321124  0.26313630  0.13011557  1
  O2-  O124  1  0.39874559  0.25150226  0.37650663  1
  O2-  O125  1  0.34668868  0.24165739  0.64890725  1
  O2-  O126  1  0.31513178  0.21897547  0.87256052  1
  O2-  O127  1  0.38888490  0.74919276  0.09987123  1
  O2-  O128  1  0.34941257  0.75987660  0.40372251  1
  O2-  O129  1  0.36589616  0.76101636  0.63623677  1
  O2-  O130  1  0.39520496  0.77144733  0.91247584  1
  O2-  O131  1  0.65483100  0.25291170  0.11670730  1
  O2-  O132  1  0.62012204  0.24810638  0.35261076  1
  O2-  O133  1  0.74279634  0.34474894  0.63551358  1
  O2-  O134  1  0.63898495  0.24725460  0.87978836  1
  O2-  O135  1  0.62644606  0.75218043  0.12381065  1
  O2-  O136  1  0.64839291  0.73347482  0.41593128  1
  O2-  O137  1  0.62248076  0.74000356  0.62207570  1
  O2-  O138  1  0.65623193  0.73153842  0.82471806  1
  O2-  O139  1  0.83327419  0.25741636  0.12699650  1
  O2-  O140  1  0.92232843  0.25492511  0.39603062  1
  O2-  O141  1  0.89394925  0.24093597  0.61409948  1
  O2-  O142  1  0.90363979  0.24537513  0.87623195  1
  O2-  O143  1  0.89631968  0.74561983  0.13391892  1
  O2-  O144  1  0.87807708  0.75267268  0.34896927  1
  O2-  O145  1  0.87690372  0.76362896  0.60055641  1
  O2-  O146  1  0.86204235  0.74769297  0.90467876  1
  O2-  O147  1  0.15994905  0.13887827  -0.02008693  1
  O2-  O148  1  0.10547421  0.12215303  0.25670820  1
  O2-  O149  1  0.12915247  0.10360012  0.51614393  1
  O2-  O150  1  0.16294193  0.10166623  0.75830438  1
  O2-  O151  1  0.13606648  0.64989826  -0.00029356  1
  O2-  O152  1  0.10181707  0.60986057  0.25109247  1
  O2-  O153  1  0.06686260  0.61211096  0.46805902  1
  O2-  O154  1  0.10184191  0.64136057  0.73520873  1
  O2-  O155  1  0.33781459  0.13194724  0.02066163  1
  O2-  O156  1  0.35033633  0.13748142  0.25007675  1
  O2-  O157  1  0.36810240  0.12129235  0.51798981  1
  O2-  O158  1  0.33162723  0.10418936  0.74927705  1
  O2-  O159  1  0.50957615  0.63046898  0.12048904  1
  O2-  O160  1  0.39411687  0.64998313  0.27616402  1
  O2-  O161  1  0.33056103  0.63550270  0.52281566  1
  O2-  O162  1  0.50240908  0.65378745  0.74478145  1
  O2-  O163  1  0.66523486  0.11010328  -0.01556856  1
  O2-  O164  1  0.66647810  0.10992386  0.25030714  1
  O2-  O165  1  0.62092370  0.15288178  0.50490643  1
  O2-  O166  1  0.64847385  0.11908790  0.75162539  1
  O2-  O167  1  0.59308910  0.64095617  -0.05414001  1
  O2-  O168  1  0.59793535  0.62680710  0.27467485  1
  O2-  O169  1  0.51374923  0.63270434  0.50699791  1
  O2-  O170  1  0.66847669  0.60464765  0.72004610  1
  O2-  O171  1  0.84703294  0.13279158  -0.00371975  1
  O2-  O172  1  0.87877995  0.15651498  0.25685090  1
  O2-  O173  1  0.79698674  0.12466196  0.47698028  1
  O2-  O174  1  0.84497920  0.13578873  0.74943901  1
  O2-  O175  1  0.91525276  0.61890134  0.01170075  1
  O2-  O176  1  0.92048809  0.61592650  0.24481983  1
  O2-  O177  1  0.87576090  0.62937580  0.47414675  1
  O2-  O178  1  0.88293020  0.65470260  0.74658403  1
  O2-  O179  1  0.14546299  0.34993980  -0.00096053  1
  O2-  O180  1  0.12445157  0.35983300  0.25730579  1
  O2-  O181  1  0.13515911  0.34010266  0.51651145  1
  O2-  O182  1  0.22782648  0.36833039  0.67141574  1
  O2-  O183  1  0.13332217  0.82937535  -0.01058175  1
  O2-  O184  1  0.13529367  0.88627635  0.23959605  1
  O2-  O185  1  0.15417116  0.87822928  0.49845561  1
  O2-  O186  1  0.10455798  0.83785962  0.74127331  1
  O2-  O187  1  0.35733503  0.38810325  -0.00062276  1
  O2-  O188  1  0.34900529  0.37970882  0.25682658  1
  O2-  O189  1  0.35412413  0.37581080  0.50497741  1
  O2-  O190  1  0.36886257  0.38806775  0.79126124  1
  O2-  O191  1  0.45087173  0.88614035  0.02407993  1
  O2-  O192  1  0.40308876  0.86291204  0.25425504  1
  O2-  O193  1  0.36285176  0.88740148  0.51342894  1
  O2-  O194  1  0.39180036  0.87657756  0.76470513  1
  O2-  O195  1  0.67176859  0.38012141  0.00599467  1
  O2-  O196  1  0.66324877  0.37825115  0.23739371  1
  O2-  O197  1  0.62896461  0.35661253  0.49940021  1
  O2-  O198  1  0.62117331  0.36414103  0.75095564  1
  O2-  O199  1  0.61086227  0.83411192  -0.04829532  1
  O2-  O200  1  0.60731621  0.84360506  0.28089154  1
  O2-  O201  1  0.54613347  0.85076552  0.49765645  1
  O2-  O202  1  0.67692870  0.87357175  0.72643915  1
  O2-  O203  1  0.85775519  0.36684784  0.00174945  1
  O2-  O204  1  0.91351583  0.36140726  0.25246715  1
  O2-  O205  1  0.84449435  0.37814460  0.49873697  1
  O2-  O206  1  0.88699662  0.36370205  0.74877791  1
  O2-  O207  1  0.92824760  0.87121908  0.01755271  1
  O2-  O208  1  0.93917501  0.87612750  0.24240401  1
  O2-  O209  1  0.92230460  0.88210500  0.47001876  1
  O2-  O210  1  0.90240817  0.86053184  0.74662236  1
  O2-  O211  1  -0.00052979  0.11178874  -0.05309571  1
  O2-  O212  1  -0.00295630  0.17121548  0.11961525  1
  O2-  O213  1  -0.05341029  0.10961705  0.50846004  1
  O2-  O214  1  0.00053818  0.10736595  0.78808793  1
  O2-  O215  1  -0.00375179  0.38637758  -0.09464133  1
  O2-  O216  1  0.00836918  0.34976348  0.11232307  1
  O2-  O217  1  -0.00831715  0.37879679  0.59348549  1
  O2-  O218  1  0.07046931  0.38296748  0.74019958  1
  O2-  O219  1  0.26587274  -0.13243353  0.10249711  1
  O2-  O220  1  0.25856088  -0.08750206  0.36037059  1
  O2-  O221  1  0.24730261  0.14663109  0.38111941  1
  O2-  O222  1  0.18698762  -0.02761179  0.63855300  1
  O2-  O223  1  0.26297539  0.65438852  0.12394132  1
  O2-  O224  1  0.22529375  0.62825676  0.37010099  1
  O2-  O225  1  0.19629251  0.46775821  0.39972360  1
  O2-  O226  1  0.24350073  0.68289394  0.85934902  1
  O2-  O227  1  0.48675924  0.11880948  -0.03444936  1
  O2-  O228  1  0.51004268  0.15573555  0.14846772  1
  O2-  O229  1  0.51275185  0.16281033  0.63841190  1
  O2-  O230  1  0.47845579  0.14460358  0.80462837  1
  O2-  O231  1  0.51558520  0.37398880  -0.07068024  1
  O2-  O232  1  0.50157803  0.37886032  0.12529052  1
  O2-  O233  1  0.49432526  0.35488573  0.62519564  1
  O2-  O234  1  0.51355011  0.50425853  0.82486153  1
  O2-  O235  1  0.76129740  -0.15392992  0.07625176  1
  O2-  O236  1  0.77739223  -0.11978067  0.23844582  1
  O2-  O237  1  0.75310748  -0.12398151  0.41874436  1
  O2-  O238  1  0.73777098  0.16378658  0.62212414  1
  O2-  O239  1  0.74556318  0.64123516  0.06762112  1
  O2-  O240  1  0.76098927  0.63565941  0.23176283  1
  O2-  O241  1  0.76427889  0.33517516  0.36287126  1
  O2-  O242  1  0.75953210  0.34997155  0.86214891  1
