# generated using pymatgen
data_Gd19Ta56(WO20)8
_symmetry_space_group_name_H-M   'P 1'
_cell_length_a   15.57480873
_cell_length_b   15.48576904
_cell_length_c   15.28923449
_cell_angle_alpha   90.20594551
_cell_angle_beta   89.95094605
_cell_angle_gamma   90.10249733
_symmetry_Int_Tables_number   1
_chemical_formula_structural   Gd19Ta56(WO20)8
_chemical_formula_sum   'Gd19 Ta56 W8 O160'
_cell_volume   3687.54716552
_cell_formula_units_Z   1
loop_
 _symmetry_equiv_pos_site_id
 _symmetry_equiv_pos_as_xyz
  1  'x, y, z'
loop_
 _atom_type_symbol
 _atom_type_oxidation_number
  Gd3+  3.0
  Ta5+  5.0
  W6+  6.0
  O2-  -2.0
loop_
 _atom_site_type_symbol
 _atom_site_label
 _atom_site_symmetry_multiplicity
 _atom_site_fract_x
 _atom_site_fract_y
 _atom_site_fract_z
 _atom_site_occupancy
  Gd3+  Gd0  1  0.73563279  0.74156889  0.49202236  1
  Gd3+  Gd1  1  0.75201783  0.72211649  -0.00597165  1
  Gd3+  Gd2  1  -0.00930865  0.26116113  0.74539466  1
  Gd3+  Gd3  1  0.51438528  0.77752956  0.73566711  1
  Gd3+  Gd4  1  0.76939141  0.22814184  0.75016325  1
  Gd3+  Gd5  1  0.77411192  0.24419783  0.00751936  1
  Gd3+  Gd6  1  0.48510995  0.26988204  -0.02697330  1
  Gd3+  Gd7  1  -0.03799226  0.25636967  0.51716474  1
  Gd3+  Gd8  1  -0.00785022  0.76859810  0.52024791  1
  Gd3+  Gd9  1  0.76326340  0.75144721  0.24829537  1
  Gd3+  Gd10  1  0.22643126  0.74230954  0.75848114  1
  Gd3+  Gd11  1  0.26860827  0.25567162  0.76626925  1
  Gd3+  Gd12  1  0.47123506  0.74808079  0.28725564  1
  Gd3+  Gd13  1  0.26183660  0.24377401  0.29430959  1
  Gd3+  Gd14  1  0.25473759  0.24668948  0.00776008  1
  Gd3+  Gd15  1  0.75238175  0.24003751  0.26274260  1
  Gd3+  Gd16  1  0.49122463  0.23315469  0.74251591  1
  Gd3+  Gd17  1  0.48830054  0.73779806  0.00519955  1
  Gd3+  Gd18  1  0.24597912  0.73714614  0.47861155  1
  Ta5+  Ta19  1  0.66547887  0.89176626  0.62582423  1
  Ta5+  Ta20  1  0.89205022  0.11576143  0.36992026  1
  Ta5+  Ta21  1  0.63171389  0.38574857  0.85570368  1
  Ta5+  Ta22  1  0.83908600  0.87516379  0.63213586  1
  Ta5+  Ta23  1  0.36479404  0.60777460  0.88203501  1
  Ta5+  Ta24  1  0.62350893  0.12430607  0.87784261  1
  Ta5+  Ta25  1  0.92368069  0.62919185  0.87538912  1
  Ta5+  Ta26  1  0.59340280  0.13867435  0.37632996  1
  Ta5+  Ta27  1  0.63229838  0.12139923  0.61759914  1
  Ta5+  Ta28  1  0.89220364  0.37724870  0.36744752  1
  Ta5+  Ta29  1  0.62663605  0.88457205  0.12849605  1
  Ta5+  Ta30  1  0.85651406  0.62302521  0.63249705  1
  Ta5+  Ta31  1  0.12878401  0.87096245  0.11745463  1
  Ta5+  Ta32  1  0.85672064  0.87093508  0.86900358  1
  Ta5+  Ta33  1  0.62438728  0.60816718  0.35766410  1
  Ta5+  Ta34  1  0.86016550  0.07132569  0.61941771  1
  Ta5+  Ta35  1  0.10068155  0.61965035  0.61854575  1
  Ta5+  Ta36  1  0.90454499  0.37061561  0.15016877  1
  Ta5+  Ta37  1  0.92410192  0.39945163  0.90738434  1
  Ta5+  Ta38  1  0.61864380  0.88398684  0.88271038  1
  Ta5+  Ta39  1  0.37188337  0.87076779  0.87811919  1
  Ta5+  Ta40  1  0.14646930  0.38128896  0.58989924  1
  Ta5+  Ta41  1  0.63685973  0.12631729  0.12490969  1
  Ta5+  Ta42  1  0.07060211  0.37265307  0.35381756  1
  Ta5+  Ta43  1  0.39041962  0.12523816  0.14725504  1
  Ta5+  Ta44  1  0.36716430  0.61634660  0.63562086  1
  Ta5+  Ta45  1  0.90147872  0.11952439  0.12943040  1
  Ta5+  Ta46  1  0.10269929  0.87453240  0.36047632  1
  Ta5+  Ta47  1  0.12594637  0.40832375  0.90786724  1
  Ta5+  Ta48  1  0.86960172  0.88285094  0.11647268  1
  Ta5+  Ta49  1  0.09340910  0.87918017  0.86677492  1
  Ta5+  Ta50  1  0.07062372  0.10391871  0.94124418  1
  Ta5+  Ta51  1  0.63858960  0.37940144  0.62675184  1
  Ta5+  Ta52  1  0.43721211  0.35728427  0.39491119  1
  Ta5+  Ta53  1  0.61343846  0.62897945  0.61819436  1
  Ta5+  Ta54  1  0.86984700  0.88977325  0.37625116  1
  Ta5+  Ta55  1  0.60397644  0.35969545  0.37599922  1
  Ta5+  Ta56  1  0.09038683  0.62563518  0.87156857  1
  Ta5+  Ta57  1  0.42840569  0.13626918  0.40224179  1
  Ta5+  Ta58  1  0.36872549  0.87562638  0.13782097  1
  Ta5+  Ta59  1  0.39575553  0.36197177  0.14593269  1
  Ta5+  Ta60  1  0.87875939  0.61306047  0.12262232  1
  Ta5+  Ta61  1  0.34634981  0.37517535  0.60640807  1
  Ta5+  Ta62  1  0.88021119  0.62385481  0.37549601  1
  Ta5+  Ta63  1  0.12307567  0.12149349  0.14479279  1
  Ta5+  Ta64  1  0.38247161  0.88977256  0.40065826  1
  Ta5+  Ta65  1  0.13383180  0.62757440  0.11628963  1
  Ta5+  Ta66  1  0.60151907  0.62029541  0.86971535  1
  Ta5+  Ta67  1  0.32464195  0.11779000  0.60825300  1
  Ta5+  Ta68  1  0.44504210  0.45139483  0.79212613  1
  Ta5+  Ta69  1  0.12838683  0.38022382  0.13659250  1
  Ta5+  Ta70  1  0.61919806  0.88926858  0.37573442  1
  Ta5+  Ta71  1  0.06184562  0.12260244  0.35136308  1
  Ta5+  Ta72  1  0.63734671  0.61412789  0.14377079  1
  Ta5+  Ta73  1  0.10580542  0.62398487  0.35902157  1
  Ta5+  Ta74  1  0.15353329  0.88471567  0.61741911  1
  W6+  W75  1  0.38360081  0.61042211  0.14075253  1
  W6+  W76  1  0.12417324  0.13218991  0.59437701  1
  W6+  W77  1  0.31651939  0.86951382  0.62037627  1
  W6+  W78  1  0.80401563  0.38283882  0.61590707  1
  W6+  W79  1  0.90502054  0.10165471  0.87458718  1
  W6+  W80  1  0.38183678  0.60018412  0.39929716  1
  W6+  W81  1  0.36556800  0.10744877  0.87420998  1
  W6+  W82  1  0.63937289  0.38154813  0.12197976  1
  O2-  O83  1  0.13122174  -0.00205591  0.13350633  1
  O2-  O84  1  0.09347539  -0.00535719  0.36248071  1
  O2-  O85  1  0.13449854  -0.00070861  0.60552104  1
  O2-  O86  1  0.09695825  0.00865081  0.87052881  1
  O2-  O87  1  0.11184638  0.50049469  0.13998804  1
  O2-  O88  1  0.09657655  0.50321698  0.36172074  1
  O2-  O89  1  0.10188217  0.49032612  0.61463757  1
  O2-  O90  1  0.15979277  0.50949526  0.85766466  1
  O2-  O91  1  0.38169002  -0.00220508  0.14029079  1
  O2-  O92  1  0.40420300  0.00667660  0.39787820  1
  O2-  O93  1  0.33894956  0.00113682  0.62352684  1
  O2-  O94  1  0.49102185  -0.10645360  0.85517894  1
  O2-  O95  1  0.36514898  0.47574580  0.14773408  1
  O2-  O96  1  0.41303163  0.47429805  0.39255258  1
  O2-  O97  1  0.38976327  0.49388618  0.66694524  1
  O2-  O98  1  0.48655545  0.57580530  0.83715561  1
  O2-  O99  1  0.60145724  0.00433821  0.12153981  1
  O2-  O100  1  0.60898693  0.00814758  0.36815846  1
  O2-  O101  1  0.60013380  0.00401977  0.61877422  1
  O2-  O102  1  0.63675535  0.00459973  0.90695027  1
  O2-  O103  1  0.59177537  0.50782521  0.11758504  1
  O2-  O104  1  0.61012843  0.49288591  0.37365515  1
  O2-  O105  1  0.62278607  0.50947621  0.62789039  1
  O2-  O106  1  0.65467055  0.50900321  0.86205116  1
  O2-  O107  1  0.91597998  -0.00456473  0.13219695  1
  O2-  O108  1  0.83218993  0.00318853  0.37130039  1
  O2-  O109  1  0.92926033  -0.02560246  0.63856064  1
  O2-  O110  1  0.83261774  -0.01178395  0.86368369  1
  O2-  O111  1  0.90467585  0.49513796  0.14079887  1
  O2-  O112  1  0.88692584  0.50647108  0.35758346  1
  O2-  O113  1  0.98127330  0.62666478  0.59195655  1
  O2-  O114  1  0.88196604  0.50279749  0.86973519  1
  O2-  O115  1  0.15931445  0.24497084  0.12628466  1
  O2-  O116  1  0.08603391  0.24967445  0.34099256  1
  O2-  O117  1  0.08255467  0.27212332  0.62298455  1
  O2-  O118  1  0.18578933  0.30174678  0.88021177  1
  O2-  O119  1  0.10042647  0.74922589  0.10420476  1
  O2-  O120  1  0.15701780  0.74976608  0.36080614  1
  O2-  O121  1  0.10605868  0.75271930  0.62505590  1
  O2-  O122  1  0.11550873  0.75311131  0.86927968  1
  O2-  O123  1  0.32643684  0.24156416  0.15484321  1
  O2-  O124  1  0.36483602  0.24687711  0.40665845  1
  O2-  O125  1  0.32589677  0.25618935  0.61344016  1
  O2-  O126  1  0.37746899  0.24227557  0.87368550  1
  O2-  O127  1  0.42305502  0.75506335  0.14208517  1
  O2-  O128  1  0.37040233  0.74784869  0.40468874  1
  O2-  O129  1  0.29963498  0.72701816  0.62246376  1
  O2-  O130  1  0.39987921  0.73655485  0.88235637  1
  O2-  O131  1  0.68528258  0.25363434  0.12674025  1
  O2-  O132  1  0.66678430  0.24881083  0.38648845  1
  O2-  O133  1  0.60724825  0.25164521  0.64829771  1
  O2-  O134  1  0.59266891  0.26014706  0.85087192  1
  O2-  O135  1  0.66045618  0.75050003  0.13095337  1
  O2-  O136  1  0.65432869  0.75520711  0.35887836  1
  O2-  O137  1  0.60703262  0.77631302  0.61803295  1
  O2-  O138  1  0.58050227  0.75401649  0.87624496  1
  O2-  O139  1  0.87007134  0.24659324  0.13887112  1
  O2-  O140  1  0.88450718  0.24580849  0.36825418  1
  O2-  O141  1  0.88659693  0.27920962  0.64386798  1
  O2-  O142  1  0.74410488  0.16936420  0.88322756  1
  O2-  O143  1  0.84477803  0.74994642  0.10881253  1
  O2-  O144  1  0.83456993  0.75285046  0.38079189  1
  O2-  O145  1  0.86789934  0.75363690  0.60135632  1
  O2-  O146  1  0.86665889  0.73923422  0.89932537  1
  O2-  O147  1  0.17538059  0.11702906  0.01367305  1
  O2-  O148  1  0.17521815  0.12619901  0.25990011  1
  O2-  O149  1  0.05695103  0.14297484  0.47609310  1
  O2-  O150  1  0.02249846  0.18663204  0.86555784  1
  O2-  O151  1  0.10443176  0.61086272  -0.00333150  1
  O2-  O152  1  0.08718323  0.63817271  0.23837266  1
  O2-  O153  1  0.13981096  0.63027777  0.49456707  1
  O2-  O154  1  0.12869429  0.62642965  0.73931836  1
  O2-  O155  1  0.36490142  0.13624883  0.02055057  1
  O2-  O156  1  0.37241940  0.13290122  0.27435651  1
  O2-  O157  1  0.42032912  0.13353944  0.52896035  1
  O2-  O158  1  0.37978840  0.13921163  0.73199305  1
  O2-  O159  1  0.39951138  0.61157627  0.00247764  1
  O2-  O160  1  0.38493160  0.63117011  0.27380765  1
  O2-  O161  1  0.32471016  0.59385091  0.52245955  1
  O2-  O162  1  0.32390208  0.63132992  0.75777080  1
  O2-  O163  1  0.75454069  0.10334986  0.10663243  1
  O2-  O164  1  0.63661517  0.14060421  0.24930686  1
  O2-  O165  1  0.59786828  0.14224128  0.50254140  1
  O2-  O166  1  0.64265699  0.12057605  0.75239594  1
  O2-  O167  1  0.61525359  0.64248742  -0.00004024  1
  O2-  O168  1  0.56043829  0.64131398  0.24404484  1
  O2-  O169  1  0.62217338  0.63907837  0.48650259  1
  O2-  O170  1  0.60364501  0.65427234  0.74614379  1
  O2-  O171  1  0.87634886  0.13589406  0.00463859  1
  O2-  O172  1  0.84774759  0.12161208  0.24743446  1
  O2-  O173  1  0.88538860  0.11612000  0.50631977  1
  O2-  O174  1  0.88883941  0.12782302  0.73116241  1
  O2-  O175  1  0.92616983  0.62098705  0.01043624  1
  O2-  O176  1  0.88662241  0.65332234  0.24513147  1
  O2-  O177  1  0.83331511  0.62132451  0.49161514  1
  O2-  O178  1  0.89057714  0.64001148  0.74890473  1
  O2-  O179  1  0.18813860  0.38736700  0.02524189  1
  O2-  O180  1  0.17400140  0.36806053  0.25361344  1
  O2-  O181  1  0.07273039  0.36171183  0.48152172  1
  O2-  O182  1  0.03006044  0.37821332  0.82370619  1
  O2-  O183  1  0.10824388  0.88579056  -0.00707195  1
  O2-  O184  1  0.08598832  0.86327572  0.23557467  1
  O2-  O185  1  0.11556374  0.85635648  0.49298912  1
  O2-  O186  1  0.14911445  0.87716309  0.75124379  1
  O2-  O187  1  0.36626811  0.33774295  0.02484902  1
  O2-  O188  1  0.39066262  0.33881063  0.27134978  1
  O2-  O189  1  0.43822204  0.36650510  0.53062794  1
  O2-  O190  1  0.39260931  0.34609090  0.73388003  1
  O2-  O191  1  0.39191202  0.86173932  0.01165810  1
  O2-  O192  1  0.37889175  0.86980814  0.26780131  1
  O2-  O193  1  0.28988682  0.88416065  0.47880959  1
  O2-  O194  1  0.34629073  0.84128293  0.75807156  1
  O2-  O195  1  0.66944092  0.36142629  -0.02644926  1
  O2-  O196  1  0.62755725  0.35979813  0.25302936  1
  O2-  O197  1  0.62565617  0.37102267  0.50794015  1
  O2-  O198  1  0.71544325  0.36852684  0.75344903  1
  O2-  O199  1  0.57910324  0.86009157  0.01541450  1
  O2-  O200  1  0.57976982  0.86676624  0.24282196  1
  O2-  O201  1  0.66801443  0.88402113  0.49321991  1
  O2-  O202  1  0.63420876  0.88078718  0.75829944  1
  O2-  O203  1  0.86502340  0.36732082  0.01631608  1
  O2-  O204  1  0.82234010  0.37126367  0.24832655  1
  O2-  O205  1  0.87053015  0.37361058  0.48999692  1
  O2-  O206  1  0.87407875  0.30641497  0.83910757  1
  O2-  O207  1  0.89606482  0.87818453  -0.00293241  1
  O2-  O208  1  0.86781981  0.86147863  0.24515606  1
  O2-  O209  1  0.85672014  0.88170719  0.50026649  1
  O2-  O210  1  0.82146740  0.84048358  0.75343317  1
  O2-  O211  1  0.02117181  0.13230829  0.06010454  1
  O2-  O212  1  0.01479447  0.12871401  0.21569283  1
  O2-  O213  1  -0.01227793  -0.16311693  0.38341010  1
  O2-  O214  1  -0.02121133  -0.12841292  0.83740524  1
  O2-  O215  1  0.01812903  0.33723121  0.11139367  1
  O2-  O216  1  -0.01782048  0.37772610  0.26221703  1
  O2-  O217  1  -0.00548770  0.66307340  0.40496217  1
  O2-  O218  1  0.02483574  0.43446340  0.97667684  1
  O2-  O219  1  0.32114145  -0.02213805  -0.11693678  1
  O2-  O220  1  0.25000889  -0.14210895  0.12981746  1
  O2-  O221  1  0.23658314  0.12472339  0.52224640  1
  O2-  O222  1  0.21480384  0.14443027  0.69197886  1
  O2-  O223  1  0.34748237  0.48206966  -0.13672784  1
  O2-  O224  1  0.24908828  0.63668448  0.12261632  1
  O2-  O225  1  0.25059445  0.40158334  0.52541676  1
  O2-  O226  1  0.22128766  0.37363265  0.69025879  1
  O2-  O227  1  0.60663512  0.16400742  0.00188499  1
  O2-  O228  1  0.50350968  0.15139680  0.13954646  1
  O2-  O229  1  0.50364392  -0.14867133  0.40951885  1
  O2-  O230  1  0.50111040  0.12264631  0.86156184  1
  O2-  O231  1  0.50780086  0.40078039  -0.10291143  1
  O2-  O232  1  0.50994757  0.33848658  0.11050316  1
  O2-  O233  1  0.48163961  0.65391730  0.62638339  1
  O2-  O234  1  0.55264604  0.39566283  0.73907253  1
  O2-  O235  1  0.73230438  -0.15221462  -0.08038145  1
  O2-  O236  1  0.74754683  -0.09743318  0.11363637  1
  O2-  O237  1  0.75298237  0.15144200  0.61837255  1
  O2-  O238  1  0.76488437  -0.01378426  0.64284886  1
  O2-  O239  1  0.75996072  0.60097127  0.09167602  1
  O2-  O240  1  0.71144130  0.61028121  0.25688311  1
  O2-  O241  1  0.73375273  0.65712275  0.62812454  1
  O2-  O242  1  0.82986826  0.50679909  0.63744819  1
