# generated using pymatgen
data_Gd19Ta56(WO20)8
_symmetry_space_group_name_H-M   'P 1'
_cell_length_a   15.43394506
_cell_length_b   15.49424323
_cell_length_c   15.38363420
_cell_angle_alpha   90.09984732
_cell_angle_beta   89.97425123
_cell_angle_gamma   89.92887169
_symmetry_Int_Tables_number   1
_chemical_formula_structural   Gd19Ta56(WO20)8
_chemical_formula_sum   'Gd19 Ta56 W8 O160'
_cell_volume   3678.79193157
_cell_formula_units_Z   1
loop_
 _symmetry_equiv_pos_site_id
 _symmetry_equiv_pos_as_xyz
  1  'x, y, z'
loop_
 _atom_type_symbol
 _atom_type_oxidation_number
  Gd3+  3.0
  Ta5+  5.0
  W6+  6.0
  O2-  -2.0
loop_
 _atom_site_type_symbol
 _atom_site_label
 _atom_site_symmetry_multiplicity
 _atom_site_fract_x
 _atom_site_fract_y
 _atom_site_fract_z
 _atom_site_occupancy
  Gd3+  Gd0  1  0.76615412  0.76120068  -0.01561717  1
  Gd3+  Gd1  1  0.25357541  0.25558128  -0.01075563  1
  Gd3+  Gd2  1  0.74527575  0.24894153  0.50731200  1
  Gd3+  Gd3  1  0.73361126  0.25250076  -0.01502598  1
  Gd3+  Gd4  1  0.49045514  0.72924517  0.01571737  1
  Gd3+  Gd5  1  0.23080155  0.76594609  0.74218064  1
  Gd3+  Gd6  1  0.48121732  0.23994443  0.51587423  1
  Gd3+  Gd7  1  0.48180679  0.73145388  0.24672631  1
  Gd3+  Gd8  1  0.01492727  0.25265365  0.74797920  1
  Gd3+  Gd9  1  0.74904000  0.73824874  0.25947015  1
  Gd3+  Gd10  1  -0.00283110  0.25332003  -0.01476056  1
  Gd3+  Gd11  1  -0.00183134  0.25764828  0.26136098  1
  Gd3+  Gd12  1  0.74258231  0.24059384  0.74564883  1
  Gd3+  Gd13  1  0.25620390  0.25616922  0.25399018  1
  Gd3+  Gd14  1  0.02063617  0.74510114  0.00513939  1
  Gd3+  Gd15  1  0.49248874  0.24553267  -0.01333161  1
  Gd3+  Gd16  1  -0.01335411  0.75340779  0.46781749  1
  Gd3+  Gd17  1  0.74922249  0.76930964  0.73345626  1
  Gd3+  Gd18  1  0.29486445  0.24484993  0.73252930  1
  Ta5+  Ta19  1  0.60471155  0.37998090  0.86123032  1
  Ta5+  Ta20  1  0.39561158  0.41283555  0.62724788  1
  Ta5+  Ta21  1  0.37892115  0.10209683  0.87348791  1
  Ta5+  Ta22  1  0.08470907  0.88506848  0.86442510  1
  Ta5+  Ta23  1  0.90124645  0.87822939  0.85903752  1
  Ta5+  Ta24  1  0.58049946  0.87274908  0.61704390  1
  Ta5+  Ta25  1  0.62238036  0.10624574  0.87375390  1
  Ta5+  Ta26  1  0.62160452  0.43629873  0.62828101  1
  Ta5+  Ta27  1  0.12573560  0.11970022  0.38569726  1
  Ta5+  Ta28  1  0.88608411  0.62325151  0.85916079  1
  Ta5+  Ta29  1  0.87179594  0.62661474  0.11776869  1
  Ta5+  Ta30  1  0.14464145  0.38537159  0.39009993  1
  Ta5+  Ta31  1  0.61760842  0.38096503  0.12789911  1
  Ta5+  Ta32  1  0.38914980  0.38281930  0.38143388  1
  Ta5+  Ta33  1  0.13410043  0.62232040  0.87394695  1
  Ta5+  Ta34  1  0.36759378  0.62015096  0.38397844  1
  Ta5+  Ta35  1  0.39377337  0.37872001  0.86163040  1
  Ta5+  Ta36  1  0.62359558  0.12076747  0.37691682  1
  Ta5+  Ta37  1  0.86363494  0.61308662  0.37604928  1
  Ta5+  Ta38  1  0.91834538  0.63387136  0.62908661  1
  Ta5+  Ta39  1  0.38141696  0.05558220  0.63480321  1
  Ta5+  Ta40  1  0.63634058  0.87451647  0.37547199  1
  Ta5+  Ta41  1  0.09072472  0.63646063  0.62707849  1
  Ta5+  Ta42  1  0.88598027  0.38864834  0.61866670  1
  Ta5+  Ta43  1  0.88344387  0.38759971  0.12638315  1
  Ta5+  Ta44  1  0.64658949  0.57332811  0.11218169  1
  Ta5+  Ta45  1  0.38217301  0.11589787  0.13297484  1
  Ta5+  Ta46  1  0.59351954  0.86504937  0.86268269  1
  Ta5+  Ta47  1  0.83978236  0.38642634  0.36825649  1
  Ta5+  Ta48  1  0.13880230  0.87313731  0.37392435  1
  Ta5+  Ta49  1  0.41542404  0.83626301  0.63311732  1
  Ta5+  Ta50  1  0.38391067  0.86637093  0.38851704  1
  Ta5+  Ta51  1  0.89463207  0.12305325  0.62207794  1
  Ta5+  Ta52  1  0.87552686  0.10885730  0.87771243  1
  Ta5+  Ta53  1  0.14444578  0.11566684  0.13409184  1
  Ta5+  Ta54  1  0.63356081  0.88662735  0.11878982  1
  Ta5+  Ta55  1  0.08445566  0.88313339  0.62356732  1
  Ta5+  Ta56  1  0.86867461  0.12049105  0.12905633  1
  Ta5+  Ta57  1  0.36490848  0.62605981  0.86803992  1
  Ta5+  Ta58  1  0.42514488  0.85851997  0.86368693  1
  Ta5+  Ta59  1  0.12860229  0.39239540  0.13473598  1
  Ta5+  Ta60  1  0.86938999  0.38791263  0.87322534  1
  Ta5+  Ta61  1  0.63785604  0.65717741  0.60236080  1
  Ta5+  Ta62  1  0.62167467  0.07048232  0.62392095  1
  Ta5+  Ta63  1  0.87441666  0.12660973  0.37779457  1
  Ta5+  Ta64  1  0.37727728  0.37650223  0.12360017  1
  Ta5+  Ta65  1  0.87242729  0.88222011  0.12316438  1
  Ta5+  Ta66  1  0.12684249  0.11304474  0.87448198  1
  Ta5+  Ta67  1  0.62503536  0.12947646  0.13339499  1
  Ta5+  Ta68  1  0.12503430  0.88500016  0.12495319  1
  Ta5+  Ta69  1  0.37045803  0.87788760  0.12215175  1
  Ta5+  Ta70  1  0.17079826  0.63544905  0.12667770  1
  Ta5+  Ta71  1  0.12019301  0.38972239  0.63375565  1
  Ta5+  Ta72  1  0.33106158  0.62713220  0.61587101  1
  Ta5+  Ta73  1  0.91578586  0.87301248  0.63046662  1
  Ta5+  Ta74  1  0.12467117  0.62315937  0.37219940  1
  W6+  W75  1  0.14251021  0.12873302  0.62020394  1
  W6+  W76  1  0.61079846  0.61912235  0.37752125  1
  W6+  W77  1  0.33287708  0.62421899  0.12224919  1
  W6+  W78  1  0.62331604  0.62793886  0.86048831  1
  W6+  W79  1  0.12739821  0.38554003  0.88185709  1
  W6+  W80  1  0.38404256  0.11517477  0.38925325  1
  W6+  W81  1  0.63371339  0.37285455  0.38263577  1
  W6+  W82  1  0.84983805  0.87754481  0.38016251  1
  O2-  O83  1  0.08371222  0.01238657  0.13382371  1
  O2-  O84  1  0.13089648  -0.00230763  0.38872431  1
  O2-  O85  1  0.11189874  -0.00046629  0.60865244  1
  O2-  O86  1  0.15134081  -0.00252884  0.89339267  1
  O2-  O87  1  0.14006447  0.50745185  0.11266062  1
  O2-  O88  1  0.09815996  0.49833176  0.38034050  1
  O2-  O89  1  0.11514320  0.50870948  0.62060596  1
  O2-  O90  1  0.17536131  0.51110197  0.88515144  1
  O2-  O91  1  0.41169465  -0.00613255  0.12186792  1
  O2-  O92  1  0.40245005  -0.01718646  0.38357808  1
  O2-  O93  1  0.33772639  -0.05393686  0.63894863  1
  O2-  O94  1  0.37564275  -0.01772949  0.87594925  1
  O2-  O95  1  0.36127524  0.49248190  0.11851821  1
  O2-  O96  1  0.41071966  0.50431476  0.36858270  1
  O2-  O97  1  0.31121609  0.49504793  0.59914421  1
  O2-  O98  1  0.38061456  0.50260190  0.87432706  1
  O2-  O99  1  0.60120994  0.00235372  0.12743731  1
  O2-  O100  1  0.62443203  -0.00038547  0.35998001  1
  O2-  O101  1  0.68591690  -0.02708942  0.61756582  1
  O2-  O102  1  0.62863645  -0.01392549  0.87365214  1
  O2-  O103  1  0.55378626  0.49286298  0.12099062  1
  O2-  O104  1  0.61676240  0.49261531  0.39638011  1
  O2-  O105  1  0.68923217  0.53267878  0.60825200  1
  O2-  O106  1  0.63136781  0.49606909  0.85475760  1
  O2-  O107  1  0.90310880  0.00748864  0.10496740  1
  O2-  O108  1  0.86085145  0.01144116  0.38381757  1
  O2-  O109  1  0.90800970  0.00600428  0.61628554  1
  O2-  O110  1  0.84358664  -0.00428899  0.89497794  1
  O2-  O111  1  0.89792405  0.50350284  0.10033341  1
  O2-  O112  1  0.89817669  0.49183808  0.37347169  1
  O2-  O113  1  0.90672026  0.50478545  0.61176919  1
  O2-  O114  1  0.84418890  0.50672686  0.89111721  1
  O2-  O115  1  0.11720321  0.23891093  0.16502409  1
  O2-  O116  1  0.11945552  0.26078449  0.35698381  1
  O2-  O117  1  0.16744896  0.26724527  0.66002970  1
  O2-  O118  1  0.09693591  0.24767967  0.87235026  1
  O2-  O119  1  0.13360260  0.75999647  0.12333828  1
  O2-  O120  1  0.09670362  0.74836020  0.36221358  1
  O2-  O121  1  0.12720926  0.75927715  0.63084697  1
  O2-  O122  1  0.10524560  0.76026747  0.87774584  1
  O2-  O123  1  0.33941839  0.23795410  0.12989810  1
  O2-  O124  1  0.38937593  0.25564400  0.39806942  1
  O2-  O125  1  0.38818359  0.28587029  0.62292965  1
  O2-  O126  1  0.40103544  0.24699290  0.85814374  1
  O2-  O127  1  0.38385741  0.75103780  0.12409015  1
  O2-  O128  1  0.41679637  0.73914689  0.37864680  1
  O2-  O129  1  0.30684830  0.74843721  0.61370621  1
  O2-  O130  1  0.44424771  0.72421821  0.86919163  1
  O2-  O131  1  0.65941922  0.25164887  0.11853216  1
  O2-  O132  1  0.59500879  0.24459760  0.41167760  1
  O2-  O133  1  0.70412320  0.16910266  0.61952944  1
  O2-  O134  1  0.60855323  0.24484856  0.87882996  1
  O2-  O135  1  0.55743929  0.78900079  0.13731366  1
  O2-  O136  1  0.60758144  0.75262889  0.34349270  1
  O2-  O137  1  0.67801976  0.77416048  0.59845714  1
  O2-  O138  1  0.66672990  0.75415220  0.86907246  1
  O2-  O139  1  0.92076437  0.24369281  0.12685920  1
  O2-  O140  1  0.88128765  0.26464597  0.36351262  1
  O2-  O141  1  0.84140326  0.25969251  0.63643330  1
  O2-  O142  1  0.90156663  0.25126523  0.86219971  1
  O2-  O143  1  0.83877132  0.75497755  0.13372491  1
  O2-  O144  1  0.87053673  0.74155947  0.36075226  1
  O2-  O145  1  0.87627244  0.75199600  0.64686969  1
  O2-  O146  1  0.85085038  0.75037219  0.85397016  1
  O2-  O147  1  0.13303268  0.15051281  0.01102700  1
  O2-  O148  1  0.17430362  0.12260233  0.26713053  1
  O2-  O149  1  0.18367845  0.14664863  0.48554725  1
  O2-  O150  1  0.09932983  0.12204391  0.75582902  1
  O2-  O151  1  0.12323864  0.63883135  0.00316825  1
  O2-  O152  1  0.13897614  0.62119326  0.24578919  1
  O2-  O153  1  0.08791437  0.64009713  0.49467866  1
  O2-  O154  1  0.14282833  0.63842692  0.74862744  1
  O2-  O155  1  0.36432394  0.14363897  -0.00412881  1
  O2-  O156  1  0.36840895  0.12952959  0.25315503  1
  O2-  O157  1  0.41140083  0.11037960  0.52780456  1
  O2-  O158  1  0.27580064  0.12009483  0.64590567  1
  O2-  O159  1  0.33996661  0.64537522  -0.01344488  1
  O2-  O160  1  0.36908840  0.63291270  0.25689115  1
  O2-  O161  1  0.39049971  0.62369683  0.50727505  1
  O2-  O162  1  0.33987577  0.63064464  0.74268117  1
  O2-  O163  1  0.64841960  0.12493729  0.00268482  1
  O2-  O164  1  0.60115509  0.14136301  0.25619645  1
  O2-  O165  1  0.59160380  0.10527891  0.50507846  1
  O2-  O166  1  0.61383273  0.11525841  0.74760720  1
  O2-  O167  1  0.60016490  0.62656612  0.00598604  1
  O2-  O168  1  0.64528843  0.62856149  0.22286863  1
  O2-  O169  1  0.57249032  0.64798952  0.50111059  1
  O2-  O170  1  0.63331881  0.65605735  0.72768605  1
  O2-  O171  1  0.85548251  0.15147614  0.00253794  1
  O2-  O172  1  0.90894175  0.13144642  0.24973789  1
  O2-  O173  1  0.85607940  0.14804966  0.50458489  1
  O2-  O174  1  0.87510121  0.12585375  0.74939223  1
  O2-  O175  1  0.89889338  0.66003157  -0.00771648  1
  O2-  O176  1  0.85845385  0.61457495  0.24033478  1
  O2-  O177  1  0.89495081  0.63372721  0.49868890  1
  O2-  O178  1  0.85166302  0.61513327  0.74128261  1
  O2-  O179  1  0.11623693  0.34109428  0.01831146  1
  O2-  O180  1  0.16255333  0.38252314  0.25746483  1
  O2-  O181  1  0.12797422  0.36305380  0.50776517  1
  O2-  O182  1  0.08410700  0.38775622  0.75416064  1
  O2-  O183  1  0.08056942  0.88312454  0.00644643  1
  O2-  O184  1  0.11434210  0.88548712  0.25204713  1
  O2-  O185  1  0.09009901  0.86016953  0.49117033  1
  O2-  O186  1  0.13469716  0.88175100  0.74761071  1
  O2-  O187  1  0.36682588  0.34568140  -0.00280240  1
  O2-  O188  1  0.36875221  0.36037892  0.25358853  1
  O2-  O189  1  0.43701298  0.38660765  0.50003522  1
  O2-  O190  1  0.34458589  0.39295222  0.73962704  1
  O2-  O191  1  0.41260469  0.85888884  0.00198998  1
  O2-  O192  1  0.40100308  0.86047788  0.24771330  1
  O2-  O193  1  0.40641843  0.85172513  0.50777927  1
  O2-  O194  1  0.37100702  0.82812248  0.75497572  1
  O2-  O195  1  0.64416114  0.36677925  -0.00158812  1
  O2-  O196  1  0.62554276  0.36799975  0.24791033  1
  O2-  O197  1  0.63884536  0.36138675  0.53407260  1
  O2-  O198  1  0.66172423  0.36533461  0.71985802  1
  O2-  O199  1  0.60756790  0.85143608  -0.00466430  1
  O2-  O200  1  0.67254664  0.87008342  0.23920571  1
  O2-  O201  1  0.59155543  0.87446439  0.48683084  1
  O2-  O202  1  0.62380064  0.86132561  0.73981844  1
  O2-  O203  1  0.84941639  0.34906696  0.00989689  1
  O2-  O204  1  0.83204094  0.37752540  0.23640350  1
  O2-  O205  1  0.83727159  0.37280883  0.49998330  1
  O2-  O206  1  0.88056626  0.38716496  0.74910893  1
  O2-  O207  1  0.89697472  0.84642146  -0.00813633  1
  O2-  O208  1  0.85844157  0.88691100  0.24178989  1
  O2-  O209  1  0.88991526  0.85987867  0.50986445  1
  O2-  O210  1  0.84315728  0.88862936  0.74415218  1
  O2-  O211  1  -0.00269334  0.11246916  -0.09205069  1
  O2-  O212  1  0.00354370  0.13484102  0.39284734  1
  O2-  O213  1  0.00547364  0.16641036  0.61671000  1
  O2-  O214  1  -0.00942941  -0.04369138  0.82286808  1
  O2-  O215  1  -0.01267507  0.39130963  -0.08924176  1
  O2-  O216  1  0.00279662  0.38066052  0.17129552  1
  O2-  O217  1  -0.00100866  0.34294052  0.61498813  1
  O2-  O218  1  0.00640080  0.61639449  0.86315988  1
  O2-  O219  1  0.25783501  0.08057814  0.11640443  1
  O2-  O220  1  0.25029894  -0.10570316  0.11653018  1
  O2-  O221  1  0.25887281  -0.14463236  0.38113874  1
  O2-  O222  1  0.25336481  0.14459005  0.86075734  1
  O2-  O223  1  0.24754375  0.35903997  0.11712497  1
  O2-  O224  1  0.24542906  0.61859685  0.39277236  1
  O2-  O225  1  0.26694153  0.39438671  0.40141715  1
  O2-  O226  1  0.26013738  0.33792786  0.86831486  1
  O2-  O227  1  0.50196968  0.10964826  -0.09500746  1
  O2-  O228  1  0.50171430  0.15187062  0.10696733  1
  O2-  O229  1  0.51190475  0.00044962  0.63686007  1
  O2-  O230  1  0.40476986  0.11029112  0.74820239  1
  O2-  O231  1  0.50194980  0.38587974  -0.06440368  1
  O2-  O232  1  0.49638898  0.33315037  0.11456237  1
  O2-  O233  1  0.50455307  0.47362205  0.63727324  1
  O2-  O234  1  0.50451525  0.37288310  0.78123953  1
  O2-  O235  1  0.75089122  -0.10789225  0.07452824  1
  O2-  O236  1  0.75246458  0.10644789  0.15459873  1
  O2-  O237  1  0.74380807  0.14893557  0.37763205  1
  O2-  O238  1  0.74900547  0.14837657  0.86356966  1
  O2-  O239  1  0.75443961  0.62930858  0.06561939  1
  O2-  O240  1  0.71732530  0.46842975  0.12124828  1
  O2-  O241  1  0.74368417  0.62339376  0.37402378  1
  O2-  O242  1  0.74717373  0.34136612  0.86311065  1
