# generated using pymatgen
data_Gd19Ta56(WO20)8
_symmetry_space_group_name_H-M   'P 1'
_cell_length_a   15.58891075
_cell_length_b   15.57877291
_cell_length_c   15.34794242
_cell_angle_alpha   89.95490893
_cell_angle_beta   89.77911489
_cell_angle_gamma   89.84895088
_symmetry_Int_Tables_number   1
_chemical_formula_structural   Gd19Ta56(WO20)8
_chemical_formula_sum   'Gd19 Ta56 W8 O160'
_cell_volume   3727.29967051
_cell_formula_units_Z   1
loop_
 _symmetry_equiv_pos_site_id
 _symmetry_equiv_pos_as_xyz
  1  'x, y, z'
loop_
 _atom_type_symbol
 _atom_type_oxidation_number
  Gd3+  3.0
  Ta5+  5.0
  W6+  6.0
  O2-  -2.0
loop_
 _atom_site_type_symbol
 _atom_site_label
 _atom_site_symmetry_multiplicity
 _atom_site_fract_x
 _atom_site_fract_y
 _atom_site_fract_z
 _atom_site_occupancy
  Gd3+  Gd0  1  0.74000588  0.24466533  0.51611536  1
  Gd3+  Gd1  1  0.23661044  0.75036384  0.02606216  1
  Gd3+  Gd2  1  0.47133769  0.74455361  0.01290742  1
  Gd3+  Gd3  1  0.23868495  0.25022896  0.00186766  1
  Gd3+  Gd4  1  0.00303645  0.74489384  0.76592208  1
  Gd3+  Gd5  1  0.01675001  0.24962595  0.47360977  1
  Gd3+  Gd6  1  0.24418638  0.76065597  0.48217274  1
  Gd3+  Gd7  1  -0.03247428  0.24505270  0.02458753  1
  Gd3+  Gd8  1  0.74362456  0.24186998  -0.00369256  1
  Gd3+  Gd9  1  -0.01418971  0.74375161  0.49254939  1
  Gd3+  Gd10  1  0.50367197  0.25314430  0.51077649  1
  Gd3+  Gd11  1  0.48888799  0.74299913  0.76140026  1
  Gd3+  Gd12  1  0.52213608  0.25284674  0.24907683  1
  Gd3+  Gd13  1  0.77387972  0.73668175  0.24769564  1
  Gd3+  Gd14  1  0.01296681  0.25319185  0.74050481  1
  Gd3+  Gd15  1  0.76441734  0.24164225  0.25553335  1
  Gd3+  Gd16  1  0.25721406  0.75867770  0.74106458  1
  Gd3+  Gd17  1  0.74455252  0.24260448  0.75590183  1
  Gd3+  Gd18  1  0.26768257  0.25811670  0.74582836  1
  Ta5+  Ta19  1  0.87163978  0.62376572  0.89423984  1
  Ta5+  Ta20  1  0.63618662  0.63020645  0.63003693  1
  Ta5+  Ta21  1  0.88114023  0.61026492  0.37670031  1
  Ta5+  Ta22  1  0.14345375  0.12453720  0.60711059  1
  Ta5+  Ta23  1  0.62028751  0.86581043  0.12920349  1
  Ta5+  Ta24  1  0.35499364  0.62010234  0.61604629  1
  Ta5+  Ta25  1  0.39747328  0.12391563  0.87972833  1
  Ta5+  Ta26  1  0.87409956  0.37817495  0.63197445  1
  Ta5+  Ta27  1  0.42540698  0.38401663  0.10231314  1
  Ta5+  Ta28  1  0.15980269  0.62578375  0.86909630  1
  Ta5+  Ta29  1  0.11816036  0.62071925  0.62683115  1
  Ta5+  Ta30  1  0.38132325  0.12652446  0.37285540  1
  Ta5+  Ta31  1  0.62379422  0.87812677  0.87775703  1
  Ta5+  Ta32  1  0.62703464  0.62748754  0.88750222  1
  Ta5+  Ta33  1  0.90101938  0.38347034  0.87675491  1
  Ta5+  Ta34  1  0.86250698  0.87109054  0.38378848  1
  Ta5+  Ta35  1  0.63118815  0.11020199  0.38097160  1
  Ta5+  Ta36  1  0.86086847  0.86414471  0.88745272  1
  Ta5+  Ta37  1  0.88028451  0.37570464  0.37695616  1
  Ta5+  Ta38  1  0.34955922  0.88826292  0.88675165  1
  Ta5+  Ta39  1  0.85952677  0.09928135  0.12990103  1
  Ta5+  Ta40  1  0.38114614  0.62676888  0.37048873  1
  Ta5+  Ta41  1  0.85336644  0.86260892  0.63768997  1
  Ta5+  Ta42  1  0.59472797  0.11687920  0.88095751  1
  Ta5+  Ta43  1  0.12199443  0.88419000  0.86957952  1
  Ta5+  Ta44  1  0.38681584  0.12002187  0.62993710  1
  Ta5+  Ta45  1  0.62612975  0.38614421  0.63967630  1
  Ta5+  Ta46  1  0.12544369  0.62349724  0.36215302  1
  Ta5+  Ta47  1  0.38524295  0.38111642  0.36625143  1
  Ta5+  Ta48  1  0.61557431  0.86543827  0.62404386  1
  Ta5+  Ta49  1  0.87779494  0.11461285  0.38531584  1
  Ta5+  Ta50  1  0.13869868  0.38203571  0.60546942  1
  Ta5+  Ta51  1  0.87539495  0.61960553  0.63862232  1
  Ta5+  Ta52  1  0.89694775  0.86796003  0.13254819  1
  Ta5+  Ta53  1  0.62735660  0.11071848  0.63717189  1
  Ta5+  Ta54  1  0.90741179  0.10620954  0.87393791  1
  Ta5+  Ta55  1  0.63746025  0.38331098  0.38154144  1
  Ta5+  Ta56  1  0.14076120  0.12599206  0.34674430  1
  Ta5+  Ta57  1  0.06159196  0.87201242  0.10898629  1
  Ta5+  Ta58  1  0.10754902  0.87966906  0.35729241  1
  Ta5+  Ta59  1  0.12079751  0.88367442  0.62804457  1
  Ta5+  Ta60  1  0.84375033  0.39056527  0.12519393  1
  Ta5+  Ta61  1  0.38203483  0.38535141  0.62825214  1
  Ta5+  Ta62  1  0.08936674  0.63272500  0.11550682  1
  Ta5+  Ta63  1  0.11241807  0.38548725  0.87295882  1
  Ta5+  Ta64  1  0.39129335  0.37820805  0.89552483  1
  Ta5+  Ta65  1  0.09344987  0.38887723  0.10152755  1
  Ta5+  Ta66  1  0.10710472  0.10965788  0.10207502  1
  Ta5+  Ta67  1  0.59273475  0.61705903  0.13812564  1
  Ta5+  Ta68  1  0.64675161  0.10699631  0.12500492  1
  Ta5+  Ta69  1  0.37864085  0.87943287  0.36732631  1
  Ta5+  Ta70  1  0.34897126  0.61127205  0.13376357  1
  Ta5+  Ta71  1  0.11703216  0.11976818  0.86912125  1
  Ta5+  Ta72  1  0.40503308  0.12620384  0.11984593  1
  Ta5+  Ta73  1  0.92079976  0.62462559  0.12516623  1
  Ta5+  Ta74  1  0.61031662  0.38196797  0.88147209  1
  W6+  W75  1  0.13382655  0.38148775  0.34556825  1
  W6+  W76  1  0.67314221  0.37960631  0.12771416  1
  W6+  W77  1  0.32724592  0.61998696  0.88137313  1
  W6+  W78  1  0.88465545  0.11166421  0.63591032  1
  W6+  W79  1  0.36818995  0.87859934  0.61898346  1
  W6+  W80  1  0.64454557  0.86753958  0.37019896  1
  W6+  W81  1  0.63892948  0.62715453  0.37479014  1
  W6+  W82  1  0.36293002  0.88545340  0.13322091  1
  O2-  O83  1  0.10713947  -0.00940131  0.09460437  1
  O2-  O84  1  0.12199546  0.00570550  0.36320404  1
  O2-  O85  1  0.10316504  0.01349818  0.61984803  1
  O2-  O86  1  0.14758295  0.00597137  0.84727517  1
  O2-  O87  1  0.08135532  0.50706222  0.09195373  1
  O2-  O88  1  0.16477457  0.51223467  0.37112978  1
  O2-  O89  1  0.09554578  0.49225845  0.61570215  1
  O2-  O90  1  0.14819155  0.49749166  0.86111293  1
  O2-  O91  1  0.35430589  0.02134016  0.12889763  1
  O2-  O92  1  0.39974970  0.00850179  0.36834581  1
  O2-  O93  1  0.40972609  0.00522582  0.63490024  1
  O2-  O94  1  0.34590383  0.00996226  0.86869505  1
  O2-  O95  1  0.36218493  0.48575120  0.13022248  1
  O2-  O96  1  0.40196692  0.50151716  0.37241969  1
  O2-  O97  1  0.40487164  0.50712311  0.61999533  1
  O2-  O98  1  0.34926757  0.48494436  0.88438823  1
  O2-  O99  1  0.65371271  -0.01185282  0.12953790  1
  O2-  O100  1  0.60123102  -0.00184864  0.37347590  1
  O2-  O101  1  0.61541852  -0.00857655  0.63740315  1
  O2-  O102  1  0.63763652  -0.00349301  0.86461328  1
  O2-  O103  1  0.62980851  0.50658469  0.12864607  1
  O2-  O104  1  0.60779765  0.49613162  0.37033952  1
  O2-  O105  1  0.61561820  0.50756197  0.64624268  1
  O2-  O106  1  0.61420630  0.50529833  0.88187409  1
  O2-  O107  1  0.83933364  -0.01537676  0.13546779  1
  O2-  O108  1  0.85793404  -0.00560249  0.39777134  1
  O2-  O109  1  0.87182290  -0.02252053  0.63621267  1
  O2-  O110  1  0.89296270  -0.01399785  0.86843686  1
  O2-  O111  1  0.86958397  0.50401820  0.11728273  1
  O2-  O112  1  0.84518319  0.49441448  0.38886279  1
  O2-  O113  1  0.89031326  0.49879013  0.64462400  1
  O2-  O114  1  0.86064768  0.49714031  0.88262235  1
  O2-  O115  1  0.10772453  0.24389788  0.07895159  1
  O2-  O116  1  0.09448632  0.24146906  0.34560652  1
  O2-  O117  1  0.09027062  0.25099218  0.61102783  1
  O2-  O118  1  0.13408014  0.25048804  0.87786294  1
  O2-  O119  1  0.11412128  0.76092337  0.11022103  1
  O2-  O120  1  0.15452114  0.75750713  0.36136845  1
  O2-  O121  1  0.12890282  0.75295756  0.64636931  1
  O2-  O122  1  0.14127334  0.75811653  0.84281043  1
  O2-  O123  1  0.44313726  0.26065868  0.11945763  1
  O2-  O124  1  0.42992187  0.25201199  0.37369639  1
  O2-  O125  1  0.36068621  0.25569664  0.62597199  1
  O2-  O126  1  0.33342927  0.25963289  0.87619910  1
  O2-  O127  1  0.35834303  0.74717517  0.11631463  1
  O2-  O128  1  0.38732207  0.75351100  0.37885959  1
  O2-  O129  1  0.32665873  0.74851412  0.60818610  1
  O2-  O130  1  0.34181251  0.75680798  0.89639711  1
  O2-  O131  1  0.67062030  0.23596820  0.12598029  1
  O2-  O132  1  0.59929612  0.24786898  0.38889049  1
  O2-  O133  1  0.64826570  0.25416332  0.64012719  1
  O2-  O134  1  0.65344568  0.24810746  0.87581379  1
  O2-  O135  1  0.56944820  0.75191451  0.12586493  1
  O2-  O136  1  0.69625115  0.74413766  0.37430121  1
  O2-  O137  1  0.57254714  0.74184212  0.63614504  1
  O2-  O138  1  0.56632263  0.74957841  0.88773554  1
  O2-  O139  1  0.84681902  0.24019264  0.12420039  1
  O2-  O140  1  0.90104081  0.24691663  0.37270584  1
  O2-  O141  1  0.89646368  0.25068406  0.64626526  1
  O2-  O142  1  0.92317764  0.24587995  0.87414272  1
  O2-  O143  1  0.88205536  0.74110080  0.12554569  1
  O2-  O144  1  0.87740729  0.73939710  0.37896629  1
  O2-  O145  1  0.92616841  0.74491673  0.63368008  1
  O2-  O146  1  0.91054903  0.74855516  0.89082706  1
  O2-  O147  1  0.17896256  0.11627156  -0.01222351  1
  O2-  O148  1  0.15163970  0.12142259  0.21578914  1
  O2-  O149  1  0.12104855  0.13964590  0.48383481  1
  O2-  O150  1  0.15602263  0.15574878  0.73686356  1
  O2-  O151  1  0.12496450  0.65011504  -0.01688665  1
  O2-  O152  1  0.10517359  0.62769864  0.24120879  1
  O2-  O153  1  0.13268244  0.65400490  0.50001113  1
  O2-  O154  1  0.09086825  0.62051425  0.75203668  1
  O2-  O155  1  0.36221729  0.15265556  0.00025184  1
  O2-  O156  1  0.40933034  0.14720174  0.24807866  1
  O2-  O157  1  0.40733983  0.13791535  0.49764488  1
  O2-  O158  1  0.35381498  0.13561282  0.75462495  1
  O2-  O159  1  0.38539722  0.62218771  0.01009592  1
  O2-  O160  1  0.33072571  0.62672235  0.26129568  1
  O2-  O161  1  0.33208559  0.62472440  0.48790028  1
  O2-  O162  1  0.37442377  0.64896934  0.74120055  1
  O2-  O163  1  0.65412399  0.12098555  -0.00867938  1
  O2-  O164  1  0.63305772  0.13465021  0.25425190  1
  O2-  O165  1  0.61356086  0.13571735  0.50870474  1
  O2-  O166  1  0.64567181  0.12568962  0.76146388  1
  O2-  O167  1  0.58476257  0.63292974  0.00621807  1
  O2-  O168  1  0.66172516  0.64365569  0.23698754  1
  O2-  O169  1  0.63670776  0.62587822  0.51229522  1
  O2-  O170  1  0.59540863  0.63760126  0.76565731  1
  O2-  O171  1  0.85357988  0.12672028  -0.00979417  1
  O2-  O172  1  0.85815317  0.11934348  0.25638976  1
  O2-  O173  1  0.92399573  0.12984217  0.50324967  1
  O2-  O174  1  0.83527999  0.12855293  0.77488721  1
  O2-  O175  1  0.93642721  0.61205974  -0.00555123  1
  O2-  O176  1  0.88396765  0.61694360  0.25215022  1
  O2-  O177  1  0.88202939  0.62685552  0.51470678  1
  O2-  O178  1  0.90054376  0.63137994  0.76813013  1
  O2-  O179  1  0.16786583  0.37930063  -0.00720092  1
  O2-  O180  1  0.14852280  0.37991357  0.20592294  1
  O2-  O181  1  0.11276035  0.36434970  0.48585664  1
  O2-  O182  1  0.14993628  0.35160439  0.73762047  1
  O2-  O183  1  0.06054493  0.87142345  -0.02872009  1
  O2-  O184  1  0.08763665  0.87756830  0.23877156  1
  O2-  O185  1  0.13160187  0.86406858  0.50200731  1
  O2-  O186  1  0.06517377  0.88327652  0.74972763  1
  O2-  O187  1  0.34009900  0.35341505  0.01532375  1
  O2-  O188  1  0.43728406  0.37341706  0.24585876  1
  O2-  O189  1  0.40952027  0.36815854  0.49374801  1
  O2-  O190  1  0.35459604  0.37719425  0.75009583  1
  O2-  O191  1  0.41073314  0.88210676  -0.00677022  1
  O2-  O192  1  0.32160367  0.87796096  0.26436498  1
  O2-  O193  1  0.33164502  0.88455388  0.48380824  1
  O2-  O194  1  0.38169438  0.85481703  0.76404684  1
  O2-  O195  1  0.67312917  0.37312943  -0.01403306  1
  O2-  O196  1  0.64314307  0.34805418  0.26071492  1
  O2-  O197  1  0.61472351  0.36607318  0.50973594  1
  O2-  O198  1  0.66146127  0.37749383  0.76595976  1
  O2-  O199  1  0.59902662  0.87408069  -0.00090302  1
  O2-  O200  1  0.67879312  0.84819528  0.23540673  1
  O2-  O201  1  0.61909636  0.86503524  0.50662742  1
  O2-  O202  1  0.57750746  0.86275578  0.75930632  1
  O2-  O203  1  0.85183004  0.35078013  -0.00791472  1
  O2-  O204  1  0.84839721  0.36823262  0.25219662  1
  O2-  O205  1  0.90524946  0.36586535  0.50827969  1
  O2-  O206  1  0.84173385  0.35907037  0.76625612  1
  O2-  O207  1  0.87063422  0.87611658  0.00613390  1
  O2-  O208  1  0.87107466  0.86541386  0.26070224  1
  O2-  O209  1  0.86646009  0.84248458  0.51391582  1
  O2-  O210  1  0.88623727  0.84539412  0.75759743  1
  O2-  O211  1  0.02103211  0.11626102  -0.04737036  1
  O2-  O212  1  -0.01260883  0.12319593  0.12298803  1
  O2-  O213  1  -0.00659283  -0.13432095  0.39767712  1
  O2-  O214  1  0.00955553  0.11509501  0.79187331  1
  O2-  O215  1  0.01275196  0.37867841  -0.04418589  1
  O2-  O216  1  -0.02226958  0.35651988  0.12571360  1
  O2-  O217  1  0.00563555  0.62430065  0.39137719  1
  O2-  O218  1  0.00489787  0.38972846  0.79721749  1
  O2-  O219  1  0.23476326  -0.11883628  -0.06324041  1
  O2-  O220  1  0.26276189  0.13824734  0.36787063  1
  O2-  O221  1  0.26157012  0.11293504  0.59696525  1
  O2-  O222  1  0.23454915  -0.10943661  0.66769220  1
  O2-  O223  1  0.23023282  0.62445656  0.11247505  1
  O2-  O224  1  0.27237977  0.36073749  0.35706044  1
  O2-  O225  1  0.25727925  0.39589560  0.59619134  1
  O2-  O226  1  0.23773618  0.59630437  0.64150316  1
  O2-  O227  1  0.49395957  0.05794720  -0.07319378  1
  O2-  O228  1  0.52217103  0.10651701  0.11208640  1
  O2-  O229  1  0.50730322  0.15572241  0.63939570  1
  O2-  O230  1  0.49691061  0.18565618  0.83786935  1
  O2-  O231  1  0.48802852  0.40167209  -0.00719321  1
  O2-  O232  1  0.47724024  0.60970632  0.16551510  1
  O2-  O233  1  0.50630924  0.35750131  0.64258732  1
  O2-  O234  1  0.49937969  0.35925590  0.83643660  1
  O2-  O235  1  0.73961959  -0.15624166  -0.12939191  1
  O2-  O236  1  0.75326818  0.15567894  0.39406416  1
  O2-  O237  1  0.74958177  0.12711487  0.61090493  1
  O2-  O238  1  0.73403546  -0.15646320  0.65415950  1
  O2-  O239  1  0.74521721  0.64574194  -0.11106579  1
  O2-  O240  1  0.75555279  0.33816991  0.39923655  1
  O2-  O241  1  0.75352172  0.37795863  0.60640000  1
  O2-  O242  1  0.75321170  0.64602293  0.65761046  1
