# generated using pymatgen
data_Gd19Ta56(WO20)8
_symmetry_space_group_name_H-M   'P 1'
_cell_length_a   15.52184272
_cell_length_b   15.41398473
_cell_length_c   15.30531091
_cell_angle_alpha   90.04530957
_cell_angle_beta   89.82749478
_cell_angle_gamma   89.91133882
_symmetry_Int_Tables_number   1
_chemical_formula_structural   Gd19Ta56(WO20)8
_chemical_formula_sum   'Gd19 Ta56 W8 O160'
_cell_volume   3661.82624831
_cell_formula_units_Z   1
loop_
 _symmetry_equiv_pos_site_id
 _symmetry_equiv_pos_as_xyz
  1  'x, y, z'
loop_
 _atom_type_symbol
 _atom_type_oxidation_number
  Gd3+  3.0
  Ta5+  5.0
  W6+  6.0
  O2-  -2.0
loop_
 _atom_site_type_symbol
 _atom_site_label
 _atom_site_symmetry_multiplicity
 _atom_site_fract_x
 _atom_site_fract_y
 _atom_site_fract_z
 _atom_site_occupancy
  Gd3+  Gd0  1  0.23797134  0.73534218  0.25538338  1
  Gd3+  Gd1  1  0.51676988  0.74465194  0.26140500  1
  Gd3+  Gd2  1  0.00258404  0.23947574  0.73497818  1
  Gd3+  Gd3  1  0.24298702  0.24266617  0.26019040  1
  Gd3+  Gd4  1  0.50133013  0.25828255  0.76271687  1
  Gd3+  Gd5  1  -0.06146336  0.24683611  0.28206669  1
  Gd3+  Gd6  1  0.24679466  0.24501363  0.76870128  1
  Gd3+  Gd7  1  0.01138311  0.77590096  0.48205050  1
  Gd3+  Gd8  1  0.75310432  0.75182931  0.74308269  1
  Gd3+  Gd9  1  0.50532785  0.73948806  0.50571996  1
  Gd3+  Gd10  1  0.02580572  0.75677442  0.73447598  1
  Gd3+  Gd11  1  0.76182105  0.74355823  -0.00205213  1
  Gd3+  Gd12  1  0.53646211  0.24794924  0.02443470  1
  Gd3+  Gd13  1  0.52403923  0.24740902  0.49836399  1
  Gd3+  Gd14  1  0.23767071  0.73990303  0.49707091  1
  Gd3+  Gd15  1  0.25766194  0.74611906  0.00546540  1
  Gd3+  Gd16  1  0.20541410  0.25072686  0.01649604  1
  Gd3+  Gd17  1  0.25529043  0.75692488  0.76282604  1
  Gd3+  Gd18  1  0.75632159  0.25015282  0.49765688  1
  Ta5+  Ta19  1  0.62732983  0.11958253  0.63392722  1
  Ta5+  Ta20  1  0.11599872  0.59672097  0.11662752  1
  Ta5+  Ta21  1  0.10925346  0.10415026  0.37726011  1
  Ta5+  Ta22  1  0.40720000  0.88000228  0.87630861  1
  Ta5+  Ta23  1  0.09029689  0.39626641  0.14137503  1
  Ta5+  Ta24  1  0.64152005  0.37941455  0.63516876  1
  Ta5+  Ta25  1  0.84722312  0.11763100  0.12957117  1
  Ta5+  Ta26  1  0.87782630  0.37659875  0.61879858  1
  Ta5+  Ta27  1  0.39698557  0.12924950  0.37970941  1
  Ta5+  Ta28  1  0.60890961  0.88762883  0.62621850  1
  Ta5+  Ta29  1  0.87771197  0.62444962  0.61186368  1
  Ta5+  Ta30  1  0.62944474  0.62669791  0.62196292  1
  Ta5+  Ta31  1  0.09114630  0.87647062  0.93712729  1
  Ta5+  Ta32  1  0.67604104  0.37508461  0.12869517  1
  Ta5+  Ta33  1  0.12776286  0.91699214  0.62511183  1
  Ta5+  Ta34  1  0.10992288  0.38602442  0.88244576  1
  Ta5+  Ta35  1  0.40745322  0.62801208  0.87934311  1
  Ta5+  Ta36  1  0.35364080  0.36937474  0.38747112  1
  Ta5+  Ta37  1  0.64311301  0.11163332  0.87579198  1
  Ta5+  Ta38  1  0.38960133  0.87961714  0.12458682  1
  Ta5+  Ta39  1  0.35425740  0.11869451  0.90275777  1
  Ta5+  Ta40  1  0.87085488  0.12929446  0.87955467  1
  Ta5+  Ta41  1  0.89795498  0.86753202  0.12554481  1
  Ta5+  Ta42  1  0.12180247  0.61221171  0.62946656  1
  Ta5+  Ta43  1  0.39137145  0.88685684  0.38211244  1
  Ta5+  Ta44  1  0.39268378  0.88013245  0.63731195  1
  Ta5+  Ta45  1  0.13157890  0.36672376  0.61973350  1
  Ta5+  Ta46  1  0.87661396  0.88353926  0.87416902  1
  Ta5+  Ta47  1  0.88256558  0.36544179  0.87794496  1
  Ta5+  Ta48  1  0.35847142  0.12795473  0.12822494  1
  Ta5+  Ta49  1  0.64592034  0.38646559  0.88073421  1
  Ta5+  Ta50  1  0.84524847  0.84877810  0.36228803  1
  Ta5+  Ta51  1  0.60489464  0.62904175  0.87262369  1
  Ta5+  Ta52  1  0.84314551  0.37165145  0.12433886  1
  Ta5+  Ta53  1  0.80678377  0.08384071  0.37281682  1
  Ta5+  Ta54  1  0.62500936  0.91253366  0.37616334  1
  Ta5+  Ta55  1  0.10409352  0.11903499  0.14589339  1
  Ta5+  Ta56  1  0.63393742  0.62402759  0.12623150  1
  Ta5+  Ta57  1  0.62098276  0.57598235  0.37417815  1
  Ta5+  Ta58  1  0.81644991  0.40459336  0.36536888  1
  Ta5+  Ta59  1  0.64132078  0.11845142  0.36607864  1
  Ta5+  Ta60  1  0.64731418  0.37430235  0.36440183  1
  Ta5+  Ta61  1  0.37189351  0.61448319  0.37879965  1
  Ta5+  Ta62  1  0.11074963  0.60985757  0.37099291  1
  Ta5+  Ta63  1  0.63312979  0.87431487  0.12284154  1
  Ta5+  Ta64  1  0.38847342  0.12655708  0.63377150  1
  Ta5+  Ta65  1  0.60653752  0.87410213  0.87139670  1
  Ta5+  Ta66  1  0.09454756  0.36844074  0.37781812  1
  Ta5+  Ta67  1  0.68026592  0.12096791  0.12611376  1
  Ta5+  Ta68  1  0.14971941  0.10883145  0.62537671  1
  Ta5+  Ta69  1  0.35787631  0.37536940  0.59153388  1
  Ta5+  Ta70  1  0.85949556  0.12284888  0.62267881  1
  Ta5+  Ta71  1  0.88245293  0.61246080  0.86365078  1
  Ta5+  Ta72  1  0.36010634  0.38522790  0.90327848  1
  Ta5+  Ta73  1  0.11176166  0.86884674  0.13906531  1
  Ta5+  Ta74  1  0.94029653  0.61506523  0.35644895  1
  W6+  W75  1  0.86080540  0.87643573  0.61935253  1
  W6+  W76  1  0.36940557  0.62273497  0.63572290  1
  W6+  W77  1  0.38599413  0.37276596  0.13732874  1
  W6+  W78  1  0.37976078  0.61861113  0.12753304  1
  W6+  W79  1  0.11169267  0.11866127  0.88938966  1
  W6+  W80  1  0.10502168  0.62806349  0.90798117  1
  W6+  W81  1  0.14510861  0.91126306  0.36893882  1
  W6+  W82  1  0.91353473  0.60227743  0.10394569  1
  O2-  O83  1  0.09774147  -0.00148940  0.14165942  1
  O2-  O84  1  0.20187276  0.04065577  0.33663018  1
  O2-  O85  1  0.05707839  0.01912914  0.64280546  1
  O2-  O86  1  0.10800266  -0.01686130  0.89026182  1
  O2-  O87  1  0.17802069  0.47883157  0.14768312  1
  O2-  O88  1  0.12627377  0.48527503  0.36847509  1
  O2-  O89  1  0.14660111  0.49287230  0.63530137  1
  O2-  O90  1  0.07331775  0.49919220  0.88405391  1
  O2-  O91  1  0.36595588  -0.00203414  0.12629611  1
  O2-  O92  1  0.37773032  0.00607287  0.38269510  1
  O2-  O93  1  0.40000120  0.00544260  0.63908809  1
  O2-  O94  1  0.35882228  -0.00004093  0.87778196  1
  O2-  O95  1  0.41234661  0.49419242  0.14079947  1
  O2-  O96  1  0.38022809  0.49625728  0.37993418  1
  O2-  O97  1  0.38683958  0.48336986  0.62949166  1
  O2-  O98  1  0.38143006  0.50383231  0.89984618  1
  O2-  O99  1  0.67504624  -0.01349593  0.12153530  1
  O2-  O100  1  0.55568692  0.01565427  0.37754257  1
  O2-  O101  1  0.58095949  0.00830003  0.64186305  1
  O2-  O102  1  0.66479259  -0.00736081  0.86876077  1
  O2-  O103  1  0.65056525  0.50605724  0.13680081  1
  O2-  O104  1  0.55776562  0.47423587  0.37818986  1
  O2-  O105  1  0.63957834  0.50171384  0.62791595  1
  O2-  O106  1  0.65524277  0.50891994  0.87836322  1
  O2-  O107  1  0.88329002  -0.00592873  0.12019640  1
  O2-  O108  1  0.86675702  -0.03321756  0.37251652  1
  O2-  O109  1  0.84898856  0.00479495  0.61506795  1
  O2-  O110  1  0.89759773  0.00714565  0.88121801  1
  O2-  O111  1  0.84335401  0.49442795  0.11917507  1
  O2-  O112  1  0.89547416  0.50420306  0.38161489  1
  O2-  O113  1  0.87540202  0.50107268  0.62069136  1
  O2-  O114  1  0.89114382  0.48873775  0.86563539  1
  O2-  O115  1  0.13778088  0.26761917  0.15408461  1
  O2-  O116  1  0.13640713  0.24343362  0.36620833  1
  O2-  O117  1  0.11147995  0.23762235  0.62897935  1
  O2-  O118  1  0.13887320  0.25268790  0.87881207  1
  O2-  O119  1  0.14715573  0.74390718  0.12362464  1
  O2-  O120  1  0.13065980  0.75760531  0.38424310  1
  O2-  O121  1  0.10889755  0.74994492  0.60124985  1
  O2-  O122  1  0.14610765  0.76670255  0.90146246  1
  O2-  O123  1  0.32401975  0.25414885  0.11599163  1
  O2-  O124  1  0.33585185  0.24014887  0.39314707  1
  O2-  O125  1  0.41546780  0.26519095  0.62970036  1
  O2-  O126  1  0.32284192  0.25041007  0.90632796  1
  O2-  O127  1  0.33370080  0.76159132  0.13379989  1
  O2-  O128  1  0.32265344  0.77939781  0.37961733  1
  O2-  O129  1  0.32789793  0.76042673  0.63149866  1
  O2-  O130  1  0.34658115  0.75861313  0.87880200  1
  O2-  O131  1  0.66471329  0.24794132  0.10399832  1
  O2-  O132  1  0.63294609  0.24812828  0.38506579  1
  O2-  O133  1  0.59130184  0.25493510  0.63823625  1
  O2-  O134  1  0.59117543  0.25623245  0.88565179  1
  O2-  O135  1  0.68087154  0.75415123  0.13051561  1
  O2-  O136  1  0.50232863  0.65048267  0.38050767  1
  O2-  O137  1  0.61521745  0.75902284  0.61245202  1
  O2-  O138  1  0.66577816  0.74783194  0.86963321  1
  O2-  O139  1  0.88488944  0.24160308  0.14459975  1
  O2-  O140  1  0.82558016  0.26590429  0.37202154  1
  O2-  O141  1  0.91141901  0.24661719  0.60765337  1
  O2-  O142  1  0.93336600  0.24135300  0.87314466  1
  O2-  O143  1  0.87626274  0.74718669  0.09536568  1
  O2-  O144  1  0.93024247  0.75281236  0.35452477  1
  O2-  O145  1  0.89584431  0.75039423  0.65745359  1
  O2-  O146  1  0.84322989  0.75176447  0.86692528  1
  O2-  O147  1  0.08677178  0.14953744  0.02693308  1
  O2-  O148  1  0.04928919  0.14136026  0.25769129  1
  O2-  O149  1  0.13415233  0.11441866  0.50092385  1
  O2-  O150  1  0.14928909  0.12958983  0.75626899  1
  O2-  O151  1  0.19163231  0.60940780  0.01620792  1
  O2-  O152  1  0.13099522  0.62591181  0.24050308  1
  O2-  O153  1  0.13969134  0.61798190  0.50296660  1
  O2-  O154  1  0.14668537  0.65181652  0.75281959  1
  O2-  O155  1  0.42230261  0.13506031  0.01015969  1
  O2-  O156  1  0.37810812  0.13786250  0.24956108  1
  O2-  O157  1  0.41902051  0.13334274  0.50965216  1
  O2-  O158  1  0.37680392  0.15181112  0.77394762  1
  O2-  O159  1  0.35888008  0.63766769  -0.00457254  1
  O2-  O160  1  0.38535020  0.65914603  0.26171700  1
  O2-  O161  1  0.37396879  0.65836559  0.49845883  1
  O2-  O162  1  0.34289950  0.63135711  0.77096405  1
  O2-  O163  1  0.61833531  0.11923875  -0.00142758  1
  O2-  O164  1  0.63875727  0.13256806  0.24084836  1
  O2-  O165  1  0.63315984  0.12928335  0.50746450  1
  O2-  O166  1  0.58559787  0.13021831  0.76555108  1
  O2-  O167  1  0.65438971  0.63146202  0.00258960  1
  O2-  O168  1  0.63629822  0.64024461  0.26545555  1
  O2-  O169  1  0.63318730  0.62850293  0.48569847  1
  O2-  O170  1  0.64638988  0.64214276  0.74669183  1
  O2-  O171  1  0.85054543  0.13817393  -0.00095897  1
  O2-  O172  1  0.85380003  0.11773193  0.26350091  1
  O2-  O173  1  0.83742531  0.12583896  0.48874184  1
  O2-  O174  1  0.90296242  0.12836172  0.74458782  1
  O2-  O175  1  0.83884779  0.61684485  -0.02055842  1
  O2-  O176  1  0.93464126  0.61243594  0.23632940  1
  O2-  O177  1  0.91994964  0.64515741  0.49732859  1
  O2-  O178  1  0.82904384  0.61745578  0.75322735  1
  O2-  O179  1  0.10242295  0.36806481  0.01317080  1
  O2-  O180  1  0.04371050  0.36492333  0.25889557  1
  O2-  O181  1  0.08834834  0.36686805  0.50583159  1
  O2-  O182  1  0.10279601  0.36293410  0.75432485  1
  O2-  O183  1  0.18218930  0.88298819  0.02768229  1
  O2-  O184  1  0.18886313  0.87440382  0.23510239  1
  O2-  O185  1  0.10907570  0.89147719  0.50400176  1
  O2-  O186  1  0.14170051  0.85478720  0.73397269  1
  O2-  O187  1  0.43111582  0.35427623  0.00151446  1
  O2-  O188  1  0.32718874  0.36285889  0.26577521  1
  O2-  O189  1  0.43999751  0.36535498  0.49005664  1
  O2-  O190  1  0.39507035  0.35593530  0.78936503  1
  O2-  O191  1  0.36679917  0.86558678  -0.00090115  1
  O2-  O192  1  0.40775866  0.86644462  0.25207336  1
  O2-  O193  1  0.40590132  0.86569996  0.51098896  1
  O2-  O194  1  0.34774159  0.87909368  0.76103254  1
  O2-  O195  1  0.62016171  0.37948306  0.00242508  1
  O2-  O196  1  0.63356810  0.35696134  0.24431269  1
  O2-  O197  1  0.63745167  0.36250866  0.50883574  1
  O2-  O198  1  0.59357621  0.37939030  0.76107284  1
  O2-  O199  1  0.64738978  0.85525668  -0.00656834  1
  O2-  O200  1  0.60967957  0.86780573  0.24898625  1
  O2-  O201  1  0.62132149  0.90032719  0.50167135  1
  O2-  O202  1  0.65020968  0.87029794  0.74950057  1
  O2-  O203  1  0.88278646  0.35820837  -0.00091037  1
  O2-  O204  1  0.86597201  0.37741157  0.25355042  1
  O2-  O205  1  0.83571819  0.37707300  0.49927721  1
  O2-  O206  1  0.91293931  0.35771214  0.74479111  1
  O2-  O207  1  0.83491992  0.87760395  -0.00682839  1
  O2-  O208  1  0.83547293  0.85870821  0.23197294  1
  O2-  O209  1  0.88375315  0.84311893  0.48870678  1
  O2-  O210  1  0.82786555  0.88738350  0.76179816  1
  O2-  O211  1  0.01212127  -0.12515117  0.03230751  1
  O2-  O212  1  0.00230351  -0.14958935  0.19365136  1
  O2-  O213  1  0.04279152  0.00342804  0.37908942  1
  O2-  O214  1  -0.00723622  -0.15120222  0.85283467  1
  O2-  O215  1  0.02900359  0.64341656  0.03419394  1
  O2-  O216  1  0.02230173  0.50503599  0.12662289  1
  O2-  O217  1  0.00180205  0.61747385  0.65565295  1
  O2-  O218  1  -0.00880065  0.65983230  0.83989487  1
  O2-  O219  1  0.24209257  0.11236158  -0.05069064  1
  O2-  O220  1  0.22939227  0.11944631  0.15348030  1
  O2-  O221  1  0.21975236  -0.00393578  0.62477046  1
  O2-  O222  1  0.26905217  0.16332517  0.63197531  1
  O2-  O223  1  0.23644353  0.39656986  -0.10785343  1
  O2-  O224  1  0.24992590  0.62580060  0.37222856  1
  O2-  O225  1  0.27802920  0.38364376  0.49516013  1
  O2-  O226  1  0.25447090  0.34761981  0.66272622  1
  O2-  O227  1  0.51090168  -0.05683957  -0.08190651  1
  O2-  O228  1  0.51034259  -0.13192328  0.10640574  1
  O2-  O229  1  0.51309113  -0.16874367  0.38472534  1
  O2-  O230  1  0.50434545  -0.18325089  0.82409231  1
  O2-  O231  1  0.50984322  0.68300560  -0.06685078  1
  O2-  O232  1  0.51834323  0.66000785  0.13398383  1
  O2-  O233  1  0.50641011  0.62977657  0.61252310  1
  O2-  O234  1  0.50735120  0.57670508  0.81628536  1
  O2-  O235  1  0.75352274  0.15555712  -0.15137756  1
  O2-  O236  1  0.71060357  -0.00214182  0.33729612  1
  O2-  O237  1  0.72764092  -0.17417040  0.37954447  1
  O2-  O238  1  0.74679245  0.16862140  0.64773265  1
  O2-  O239  1  0.75938922  0.35021773  -0.13913498  1
  O2-  O240  1  0.71950144  0.49628419  0.37760391  1
  O2-  O241  1  0.75656757  0.65229181  0.60393970  1
  O2-  O242  1  0.75627802  0.35363318  0.65685537  1
