# generated using pymatgen
data_Gd19Ta56(WO20)8
_symmetry_space_group_name_H-M   'P 1'
_cell_length_a   15.61649863
_cell_length_b   15.53335070
_cell_length_c   15.21441563
_cell_angle_alpha   90.14725466
_cell_angle_beta   90.05231159
_cell_angle_gamma   90.20578868
_symmetry_Int_Tables_number   1
_chemical_formula_structural   Gd19Ta56(WO20)8
_chemical_formula_sum   'Gd19 Ta56 W8 O160'
_cell_volume   3690.62288794
_cell_formula_units_Z   1
loop_
 _symmetry_equiv_pos_site_id
 _symmetry_equiv_pos_as_xyz
  1  'x, y, z'
loop_
 _atom_type_symbol
 _atom_type_oxidation_number
  Gd3+  3.0
  Ta5+  5.0
  W6+  6.0
  O2-  -2.0
loop_
 _atom_site_type_symbol
 _atom_site_label
 _atom_site_symmetry_multiplicity
 _atom_site_fract_x
 _atom_site_fract_y
 _atom_site_fract_z
 _atom_site_occupancy
  Gd3+  Gd0  1  0.70250103  0.23427201  0.48867742  1
  Gd3+  Gd1  1  0.50090661  0.25203617  0.74646641  1
  Gd3+  Gd2  1  0.72893985  0.71453734  0.51137916  1
  Gd3+  Gd3  1  0.00259241  0.25112815  0.49315086  1
  Gd3+  Gd4  1  0.49539260  0.27490434  0.49943809  1
  Gd3+  Gd5  1  -0.00175719  0.75554702  -0.01315174  1
  Gd3+  Gd6  1  0.00913208  0.72482694  0.25425659  1
  Gd3+  Gd7  1  0.00175775  0.73983779  0.51308468  1
  Gd3+  Gd8  1  0.25330452  0.78503226  0.25907731  1
  Gd3+  Gd9  1  0.00833544  0.24304826  0.00376983  1
  Gd3+  Gd10  1  0.74341155  0.24235832  0.26632667  1
  Gd3+  Gd11  1  0.29344834  0.76426650  0.72980661  1
  Gd3+  Gd12  1  0.22872341  0.25785958  0.26089614  1
  Gd3+  Gd13  1  0.52745006  0.75159641  0.77644120  1
  Gd3+  Gd14  1  0.50867304  0.23177223  0.26722231  1
  Gd3+  Gd15  1  0.74041150  0.73480779  0.02710144  1
  Gd3+  Gd16  1  0.21409397  0.24991311  0.78330025  1
  Gd3+  Gd17  1  -0.00263440  0.24225111  0.74058975  1
  Gd3+  Gd18  1  0.50749572  0.24352781  0.00921024  1
  Ta5+  Ta19  1  0.65244817  0.12010869  0.86504566  1
  Ta5+  Ta20  1  0.16760410  0.63248342  0.38497749  1
  Ta5+  Ta21  1  0.44584112  0.88654689  0.62982628  1
  Ta5+  Ta22  1  0.12986308  0.86083120  0.86350143  1
  Ta5+  Ta23  1  0.56843900  0.62645119  0.13315916  1
  Ta5+  Ta24  1  0.11258353  0.87649578  0.11850633  1
  Ta5+  Ta25  1  0.87572942  0.36706072  0.13201166  1
  Ta5+  Ta26  1  0.60582746  0.86326346  0.13272207  1
  Ta5+  Ta27  1  0.88216415  0.10509043  0.37748409  1
  Ta5+  Ta28  1  0.37755448  0.62992472  0.88496552  1
  Ta5+  Ta29  1  0.09997318  0.63700774  0.84278996  1
  Ta5+  Ta30  1  0.89606751  0.41519639  0.37720326  1
  Ta5+  Ta31  1  0.14368387  0.38970292  0.11622719  1
  Ta5+  Ta32  1  0.41517030  0.62558157  0.62859368  1
  Ta5+  Ta33  1  0.61219993  0.86847755  0.62189411  1
  Ta5+  Ta34  1  0.39507446  0.88552079  0.38916137  1
  Ta5+  Ta35  1  0.36332505  0.12861168  0.13620296  1
  Ta5+  Ta36  1  0.65235913  0.38440544  0.63362182  1
  Ta5+  Ta37  1  0.35060442  0.38759947  0.61611073  1
  Ta5+  Ta38  1  0.85727652  0.11317070  0.62696907  1
  Ta5+  Ta39  1  0.12449129  0.63210557  0.63679263  1
  Ta5+  Ta40  1  0.59450877  0.04703271  0.36438580  1
  Ta5+  Ta41  1  0.84844886  0.12084382  0.87126286  1
  Ta5+  Ta42  1  0.58233748  0.61343122  0.62670312  1
  Ta5+  Ta43  1  0.11717087  0.88673380  0.63528924  1
  Ta5+  Ta44  1  0.10736136  0.39785218  0.37667185  1
  Ta5+  Ta45  1  0.88921515  0.87265920  0.64415453  1
  Ta5+  Ta46  1  0.37422002  0.88369860  0.12025899  1
  Ta5+  Ta47  1  0.40433903  0.88898158  0.88073695  1
  Ta5+  Ta48  1  0.88001009  0.87507232  0.12619758  1
  Ta5+  Ta49  1  0.62404572  0.61493013  0.88598881  1
  Ta5+  Ta50  1  0.37080882  0.38118107  0.88248342  1
  Ta5+  Ta51  1  0.37160850  0.12353502  0.61415320  1
  Ta5+  Ta52  1  0.39987012  0.41468660  0.36587427  1
  Ta5+  Ta53  1  0.64081147  0.36837029  0.87791594  1
  Ta5+  Ta54  1  0.57513754  0.61044237  0.38319229  1
  Ta5+  Ta55  1  0.63817436  0.10884473  0.12339337  1
  Ta5+  Ta56  1  0.90595260  0.62263206  0.65637575  1
  Ta5+  Ta57  1  0.16432419  0.12646928  0.60425061  1
  Ta5+  Ta58  1  0.86672854  0.12220609  0.12232802  1
  Ta5+  Ta59  1  0.10123462  0.07180332  0.36823838  1
  Ta5+  Ta60  1  0.82718725  0.87449701  0.88203418  1
  Ta5+  Ta61  1  0.12486184  0.12032305  0.12616753  1
  Ta5+  Ta62  1  0.36960455  0.38585983  0.13184274  1
  Ta5+  Ta63  1  0.63832536  0.38554667  0.12922378  1
  Ta5+  Ta64  1  0.36797227  0.12479699  0.39856326  1
  Ta5+  Ta65  1  0.92377831  0.87876284  0.38110310  1
  Ta5+  Ta66  1  0.85885255  0.38297701  0.62876314  1
  Ta5+  Ta67  1  0.65919366  0.87284781  0.87888651  1
  Ta5+  Ta68  1  0.87543250  0.36936279  0.87621538  1
  Ta5+  Ta69  1  0.60538746  0.41300017  0.36548948  1
  Ta5+  Ta70  1  0.86274307  0.61700303  0.89800256  1
  Ta5+  Ta71  1  0.37239423  0.12494694  0.87615174  1
  Ta5+  Ta72  1  0.09219825  0.87565627  0.38105363  1
  Ta5+  Ta73  1  0.14833721  0.38708557  0.61568392  1
  Ta5+  Ta74  1  0.61508580  0.85384497  0.38220954  1
  W6+  W75  1  0.89375172  0.60605573  0.11624438  1
  W6+  W76  1  0.32821573  0.64940240  0.38983799  1
  W6+  W77  1  0.60786576  0.10672256  0.61990224  1
  W6+  W78  1  0.10483653  0.10570953  0.86723163  1
  W6+  W79  1  0.88379319  0.61361724  0.38584315  1
  W6+  W80  1  0.32606961  0.63742585  0.11995179  1
  W6+  W81  1  0.15019857  0.63801103  0.10552807  1
  W6+  W82  1  0.10202092  0.38773585  0.87270136  1
  O2-  O83  1  0.13859436  -0.00334806  0.13495129  1
  O2-  O84  1  0.17795385  -0.01880008  0.36989861  1
  O2-  O85  1  0.16654139  0.00615037  0.62245442  1
  O2-  O86  1  0.10680482  -0.02426281  0.85712941  1
  O2-  O87  1  0.17130138  0.50366546  0.10709007  1
  O2-  O88  1  0.15495680  0.51095207  0.37539950  1
  O2-  O89  1  0.13732568  0.50365938  0.64403189  1
  O2-  O90  1  0.10100896  0.51976968  0.85704269  1
  O2-  O91  1  0.38733344  0.01181161  0.14036189  1
  O2-  O92  1  0.35494826  0.00293650  0.39647068  1
  O2-  O93  1  0.39822078  0.00912096  0.62453221  1
  O2-  O94  1  0.42366741  0.01706962  0.87906404  1
  O2-  O95  1  0.36151594  0.50131621  0.12963965  1
  O2-  O96  1  0.33946202  0.51288067  0.36560323  1
  O2-  O97  1  0.39238966  0.49635342  0.63971419  1
  O2-  O98  1  0.37861788  0.50031926  0.88726852  1
  O2-  O99  1  0.62162546  -0.00912233  0.13169486  1
  O2-  O100  1  0.68058609  -0.03530755  0.35137544  1
  O2-  O101  1  0.64385237  -0.01490725  0.62000402  1
  O2-  O102  1  0.64178187  0.00264087  0.88127239  1
  O2-  O103  1  0.59161950  0.49604911  0.13373017  1
  O2-  O104  1  0.65725846  0.52081637  0.34657899  1
  O2-  O105  1  0.58800071  0.48303589  0.62808447  1
  O2-  O106  1  0.63909137  0.48945217  0.88082399  1
  O2-  O107  1  0.86305087  0.00340325  0.13456799  1
  O2-  O108  1  0.85164810  -0.01014450  0.38654817  1
  O2-  O109  1  0.84732437  -0.00504019  0.62744492  1
  O2-  O110  1  0.85682043  0.00115667  0.87884092  1
  O2-  O111  1  0.92995757  0.47064398  0.13591258  1
  O2-  O112  1  0.81261077  0.49568349  0.39999388  1
  O2-  O113  1  0.90772867  0.49361535  0.62777740  1
  O2-  O114  1  0.87263900  0.48727729  0.88142564  1
  O2-  O115  1  0.10954742  0.24796834  0.12859212  1
  O2-  O116  1  0.18659788  0.30806236  0.38705961  1
  O2-  O117  1  0.11835681  0.25226779  0.59259537  1
  O2-  O118  1  0.09320075  0.24534073  0.87501812  1
  O2-  O119  1  0.07140598  0.74936548  0.11803034  1
  O2-  O120  1  0.10378892  0.74827712  0.39171941  1
  O2-  O121  1  0.10650977  0.75978067  0.63216783  1
  O2-  O122  1  0.05343434  0.76500557  0.83921838  1
  O2-  O123  1  0.41859394  0.24874472  0.14483530  1
  O2-  O124  1  0.40483612  0.25479914  0.38157371  1
  O2-  O125  1  0.40553612  0.26866350  0.61714455  1
  O2-  O126  1  0.41847318  0.24760510  0.88272408  1
  O2-  O127  1  0.30957017  0.77850345  0.11877404  1
  O2-  O128  1  0.31594649  0.79154396  0.39505933  1
  O2-  O129  1  0.42789805  0.75644223  0.65743790  1
  O2-  O130  1  0.37025855  0.76156278  0.86632985  1
  O2-  O131  1  0.60189072  0.25838099  0.14178585  1
  O2-  O132  1  0.61863021  0.26989589  0.36637538  1
  O2-  O133  1  0.59661092  0.26276085  0.61471208  1
  O2-  O134  1  0.59290530  0.24541203  0.87972505  1
  O2-  O135  1  0.63674883  0.73393742  0.13834543  1
  O2-  O136  1  0.61844375  0.72912615  0.38781769  1
  O2-  O137  1  0.62274495  0.73492736  0.61871985  1
  O2-  O138  1  0.65546402  0.73654387  0.87929971  1
  O2-  O139  1  0.92083815  0.24886637  0.13579212  1
  O2-  O140  1  0.80362153  0.20126601  0.39716147  1
  O2-  O141  1  0.90943132  0.25669587  0.62001622  1
  O2-  O142  1  0.91212400  0.23790197  0.86793673  1
  O2-  O143  1  0.87960403  0.74562614  0.10321145  1
  O2-  O144  1  0.92390209  0.74712479  0.38277419  1
  O2-  O145  1  0.92277504  0.74925242  0.64788247  1
  O2-  O146  1  0.85437586  0.74504723  0.90307143  1
  O2-  O147  1  0.09097650  0.11554743  0.00707732  1
  O2-  O148  1  0.14105517  0.13423754  0.26510056  1
  O2-  O149  1  0.10930839  0.11948791  0.48623844  1
  O2-  O150  1  0.10790036  0.13972239  0.72258060  1
  O2-  O151  1  0.12249834  0.66491151  -0.03624066  1
  O2-  O152  1  0.14353856  0.65558485  0.25441976  1
  O2-  O153  1  0.12221783  0.62992479  0.51085609  1
  O2-  O154  1  0.18762405  0.65943871  0.75568825  1
  O2-  O155  1  0.39326262  0.14052460  0.00818834  1
  O2-  O156  1  0.33164033  0.14631702  0.26661306  1
  O2-  O157  1  0.44528507  0.13678419  0.50805156  1
  O2-  O158  1  0.39965026  0.14118609  0.75011902  1
  O2-  O159  1  0.30750694  0.63381829  -0.01763785  1
  O2-  O160  1  0.33130635  0.66648730  0.25303532  1
  O2-  O161  1  0.37164281  0.64051488  0.51741801  1
  O2-  O162  1  0.36278112  0.62978307  0.75740092  1
  O2-  O163  1  0.59644867  0.12595996  0.00568114  1
  O2-  O164  1  0.63631264  0.12422971  0.26075409  1
  O2-  O165  1  0.62495856  0.10553001  0.46846446  1
  O2-  O166  1  0.58610576  0.13006551  0.75618791  1
  O2-  O167  1  0.62655651  0.62134751  0.01345392  1
  O2-  O168  1  0.54760179  0.62432488  0.25670354  1
  O2-  O169  1  0.62620529  0.60409977  0.50172718  1
  O2-  O170  1  0.60044478  0.61909696  0.75593548  1
  O2-  O171  1  0.90316971  0.12968487  0.00144111  1
  O2-  O172  1  0.85502026  0.13246348  0.25642645  1
  O2-  O173  1  0.91161886  0.12251380  0.51312192  1
  O2-  O174  1  0.91096872  0.12221383  0.74202179  1
  O2-  O175  1  0.79963067  0.60127885  0.00909805  1
  O2-  O176  1  0.90827137  0.62338322  0.24688661  1
  O2-  O177  1  0.86262601  0.63946114  0.53160625  1
  O2-  O178  1  0.85012300  0.62022932  0.76512743  1
  O2-  O179  1  0.07752039  0.37765908  0.01299994  1
  O2-  O180  1  0.12693140  0.38313891  0.24159459  1
  O2-  O181  1  0.08108922  0.39162143  0.50622276  1
  O2-  O182  1  0.09892559  0.35236949  0.73215265  1
  O2-  O183  1  0.13957726  0.85562526  -0.00920868  1
  O2-  O184  1  0.11046099  0.85794567  0.24676222  1
  O2-  O185  1  0.09750932  0.88274131  0.51230262  1
  O2-  O186  1  0.18785921  0.86430992  0.74686998  1
  O2-  O187  1  0.41250472  0.36602546  0.00917821  1
  O2-  O188  1  0.33783097  0.36447311  0.25924003  1
  O2-  O189  1  0.40699690  0.38784355  0.49070775  1
  O2-  O190  1  0.40995935  0.36922374  0.76444347  1
  O2-  O191  1  0.35053856  0.90095024  -0.00533687  1
  O2-  O192  1  0.37801877  0.87640134  0.25489354  1
  O2-  O193  1  0.42256614  0.86440692  0.50917401  1
  O2-  O194  1  0.38243250  0.88929574  0.75382262  1
  O2-  O195  1  0.60459620  0.36287430  0.00272503  1
  O2-  O196  1  0.67092834  0.37645789  0.25275679  1
  O2-  O197  1  0.61223453  0.38095483  0.48910453  1
  O2-  O198  1  0.60571316  0.36021220  0.75520457  1
  O2-  O199  1  0.64891528  0.85677729  0.01130973  1
  O2-  O200  1  0.58745585  0.85341627  0.25549561  1
  O2-  O201  1  0.66975265  0.85134494  0.49952758  1
  O2-  O202  1  0.62814375  0.85782257  0.75090289  1
  O2-  O203  1  0.89727824  0.34936617  0.00109866  1
  O2-  O204  1  0.85257783  0.35640850  0.26475099  1
  O2-  O205  1  0.90106588  0.36712137  0.49464184  1
  O2-  O206  1  0.90649464  0.36191734  0.75060844  1
  O2-  O207  1  0.82103383  0.87695877  0.01388911  1
  O2-  O208  1  0.91089294  0.86060319  0.24957662  1
  O2-  O209  1  0.91077506  0.86582385  0.51339859  1
  O2-  O210  1  0.83358352  0.85968120  0.75281775  1
  O2-  O211  1  -0.00705970  -0.10633908  0.07959881  1
  O2-  O212  1  -0.00593251  0.15511019  0.36779306  1
  O2-  O213  1  0.01117217  -0.01319001  0.36713548  1
  O2-  O214  1  0.00522547  -0.08708055  0.67515988  1
  O2-  O215  1  -0.04560204  0.61796414  -0.01415906  1
  O2-  O216  1  0.00325842  0.33044959  0.36200370  1
  O2-  O217  1  -0.01820465  0.49853262  0.37112507  1
  O2-  O218  1  0.02263303  0.62217860  0.72343916  1
  O2-  O219  1  0.25413349  0.13245842  -0.12728867  1
  O2-  O220  1  0.24748860  0.14299110  0.11172025  1
  O2-  O221  1  0.28393672  0.13138161  0.51330031  1
  O2-  O222  1  0.26345625  0.16801259  0.66922959  1
  O2-  O223  1  0.25561794  0.35278653  -0.11279527  1
  O2-  O224  1  0.25678614  0.33741793  0.10577370  1
  O2-  O225  1  0.25197676  0.40416524  0.54256457  1
  O2-  O226  1  0.25661410  0.35507071  0.69315626  1
  O2-  O227  1  0.48882687  -0.14578166  0.10020269  1
  O2-  O228  1  0.48284764  0.10570311  0.33746598  1
  O2-  O229  1  0.51901313  -0.05278311  0.39184540  1
  O2-  O230  1  0.51883804  -0.14226191  0.88664248  1
  O2-  O231  1  0.46365061  0.65466006  0.09340452  1
  O2-  O232  1  0.50279937  0.37815747  0.29016054  1
  O2-  O233  1  0.50624262  0.49367943  0.39669850  1
  O2-  O234  1  0.49853138  0.64005325  0.89368442  1
  O2-  O235  1  0.75038254  0.15990728  -0.06082873  1
  O2-  O236  1  0.74978303  0.17194360  0.12728738  1
  O2-  O237  1  0.74645379  0.15174188  0.60424607  1
  O2-  O238  1  0.75254213  0.12053210  0.78559654  1
  O2-  O239  1  0.75633745  0.34082914  -0.12339344  1
  O2-  O240  1  0.75674914  0.38674828  0.10023170  1
  O2-  O241  1  0.75486044  0.34555667  0.56138683  1
  O2-  O242  1  0.75504514  0.42017736  0.69750771  1
