# generated using pymatgen
data_Gd19Ta56(WO20)8
_symmetry_space_group_name_H-M   'P 1'
_cell_length_a   15.58410039
_cell_length_b   15.19948639
_cell_length_c   14.93919543
_cell_angle_alpha   90.16958370
_cell_angle_beta   89.94952511
_cell_angle_gamma   89.91258421
_symmetry_Int_Tables_number   1
_chemical_formula_structural   Gd19Ta56(WO20)8
_chemical_formula_sum   'Gd19 Ta56 W8 O160'
_cell_volume   3538.63102393
_cell_formula_units_Z   1
loop_
 _symmetry_equiv_pos_site_id
 _symmetry_equiv_pos_as_xyz
  1  'x, y, z'
loop_
 _atom_type_symbol
 _atom_type_oxidation_number
  Gd3+  3.0
  Ta5+  5.0
  W6+  6.0
  O2-  -2.0
loop_
 _atom_site_type_symbol
 _atom_site_label
 _atom_site_symmetry_multiplicity
 _atom_site_fract_x
 _atom_site_fract_y
 _atom_site_fract_z
 _atom_site_occupancy
  Gd3+  Gd0  1  0.46858301  0.27942165  0.27746241  1
  Gd3+  Gd1  1  0.79229525  0.27814781  0.75969367  1
  Gd3+  Gd2  1  0.65738157  0.76866403  0.25406365  1
  Gd3+  Gd3  1  0.49279309  0.75833784  0.76704209  1
  Gd3+  Gd4  1  0.79753897  0.25723862  0.50681874  1
  Gd3+  Gd5  1  0.01928240  0.27686479  0.73721898  1
  Gd3+  Gd6  1  0.01424236  0.74333805  0.33318044  1
  Gd3+  Gd7  1  0.47994577  0.26896279  -0.01475652  1
  Gd3+  Gd8  1  0.70794142  0.26422660  0.27491353  1
  Gd3+  Gd9  1  0.03478942  0.23321232  0.48186457  1
  Gd3+  Gd10  1  -0.01422283  0.73522978  -0.00911283  1
  Gd3+  Gd11  1  0.73024124  0.71659083  0.01968964  1
  Gd3+  Gd12  1  0.27601034  0.22018280  0.71153378  1
  Gd3+  Gd13  1  0.77425960  0.89081067  0.66807485  1
  Gd3+  Gd14  1  0.73238265  0.27821554  0.00628721  1
  Gd3+  Gd15  1  0.49428772  0.75214694  0.48708090  1
  Gd3+  Gd16  1  0.01742381  0.74871694  0.74648318  1
  Gd3+  Gd17  1  0.71409888  0.74945222  0.49440008  1
  Gd3+  Gd18  1  0.48227722  0.75396459  0.02114583  1
  Ta5+  Ta19  1  0.63600252  0.13389613  0.86683206  1
  Ta5+  Ta20  1  0.45827933  0.13348148  0.62233615  1
  Ta5+  Ta21  1  0.09099543  0.86457033  0.14515592  1
  Ta5+  Ta22  1  0.82923143  0.61795376  0.36970045  1
  Ta5+  Ta23  1  0.12476401  0.08971574  0.60673983  1
  Ta5+  Ta24  1  0.59641773  0.39128482  0.41028475  1
  Ta5+  Ta25  1  0.88861815  0.38372328  0.32742915  1
  Ta5+  Ta26  1  0.32389701  0.61342075  0.10084595  1
  Ta5+  Ta27  1  0.09471587  0.61196630  0.14130272  1
  Ta5+  Ta28  1  0.55943716  0.93922515  0.63878220  1
  Ta5+  Ta29  1  0.66105888  0.12527136  0.62720060  1
  Ta5+  Ta30  1  0.83138565  0.60824777  0.84603106  1
  Ta5+  Ta31  1  0.86888981  0.38636661  0.13481227  1
  Ta5+  Ta32  1  0.66117435  0.60184407  0.65054935  1
  Ta5+  Ta33  1  0.41597931  0.37655491  0.62389560  1
  Ta5+  Ta34  1  0.61911186  0.34916148  0.62566543  1
  Ta5+  Ta35  1  0.41309862  0.12101973  0.38684864  1
  Ta5+  Ta36  1  0.93268138  0.42685755  0.57747206  1
  Ta5+  Ta37  1  0.58482381  0.59054112  0.12786094  1
  Ta5+  Ta38  1  0.17497867  0.35927043  0.58712980  1
  Ta5+  Ta39  1  0.88060015  0.12569119  0.33322961  1
  Ta5+  Ta40  1  0.33208579  0.36994324  0.86772129  1
  Ta5+  Ta41  1  0.59212183  0.94748274  0.12818526  1
  Ta5+  Ta42  1  0.15015064  0.86684772  0.89348106  1
  Ta5+  Ta43  1  0.91043292  0.39205713  0.92511941  1
  Ta5+  Ta44  1  0.58603999  0.39880162  0.12808243  1
  Ta5+  Ta45  1  0.12809801  0.60254516  0.62074680  1
  Ta5+  Ta46  1  0.16944650  0.85298435  0.62561622  1
  Ta5+  Ta47  1  0.39434428  0.11656819  0.86524668  1
  Ta5+  Ta48  1  0.59204012  0.14441290  0.12824529  1
  Ta5+  Ta49  1  0.09146854  0.35968238  0.10632412  1
  Ta5+  Ta50  1  0.18138372  0.58810814  0.37086422  1
  Ta5+  Ta51  1  0.85013569  0.12535763  0.12708604  1
  Ta5+  Ta52  1  0.89462604  0.63430426  0.60262992  1
  Ta5+  Ta53  1  0.37691380  0.88553672  0.36195091  1
  Ta5+  Ta54  1  0.38300150  0.11609538  0.12721313  1
  Ta5+  Ta55  1  0.32642060  0.88256135  0.10844765  1
  Ta5+  Ta56  1  0.33477184  0.36325667  0.13000278  1
  Ta5+  Ta57  1  0.58252199  0.12481801  0.39316121  1
  Ta5+  Ta58  1  0.20998253  0.84803573  0.37101475  1
  Ta5+  Ta59  1  0.37192674  0.62600087  0.62516130  1
  Ta5+  Ta60  1  0.13118537  0.34933883  0.32293106  1
  Ta5+  Ta61  1  0.56833984  0.93542609  0.37879129  1
  Ta5+  Ta62  1  0.85102902  0.88152108  0.90954940  1
  Ta5+  Ta63  1  0.64420372  0.88312774  0.88734158  1
  Ta5+  Ta64  1  0.34731502  0.61920507  0.87926422  1
  Ta5+  Ta65  1  0.62375791  0.60406470  0.87152214  1
  Ta5+  Ta66  1  0.39293027  0.89130784  0.62285433  1
  Ta5+  Ta67  1  0.65279979  0.55811170  0.34657193  1
  Ta5+  Ta68  1  0.85227464  0.87983915  0.38719388  1
  Ta5+  Ta69  1  0.83004067  0.87475807  0.15134155  1
  Ta5+  Ta70  1  0.34831811  0.88243044  0.88233305  1
  Ta5+  Ta71  1  0.84759367  0.61952429  0.17211806  1
  Ta5+  Ta72  1  0.16783471  0.35488427  0.86832986  1
  Ta5+  Ta73  1  0.13257661  0.11683980  0.87314509  1
  Ta5+  Ta74  1  0.06772842  0.11356083  0.12043731  1
  W6+  W75  1  0.95054662  0.89448057  0.57149293  1
  W6+  W76  1  0.14635670  0.60920727  0.88253416  1
  W6+  W77  1  0.15992049  0.09694050  0.34434011  1
  W6+  W78  1  0.89508802  0.13602054  0.91556715  1
  W6+  W79  1  0.32897354  0.38233137  0.39959118  1
  W6+  W80  1  0.93817632  0.07533216  0.68243207  1
  W6+  W81  1  0.59101572  0.37374375  0.84312638  1
  W6+  W82  1  0.36880497  0.64197106  0.35370058  1
  O2-  O83  1  0.04724545  -0.02106922  0.14402036  1
  O2-  O84  1  0.19937066  -0.03089610  0.35054439  1
  O2-  O85  1  0.18484936  -0.01849012  0.61395078  1
  O2-  O86  1  0.11977938  -0.01392287  0.87509901  1
  O2-  O87  1  0.09246218  0.48808356  0.14292747  1
  O2-  O88  1  0.13673218  0.47476740  0.33638472  1
  O2-  O89  1  0.16321122  0.48049712  0.61541014  1
  O2-  O90  1  0.15301783  0.47475597  0.86888822  1
  O2-  O91  1  0.31844380  0.01574693  0.10450964  1
  O2-  O92  1  0.36885237  0.00713923  0.39757809  1
  O2-  O93  1  0.41442911  0.01188708  0.60051756  1
  O2-  O94  1  0.33582121  0.00756615  0.87795018  1
  O2-  O95  1  0.30739079  0.48619185  0.11009062  1
  O2-  O96  1  0.29102161  0.53000371  0.38273240  1
  O2-  O97  1  0.40310246  0.50447710  0.62044095  1
  O2-  O98  1  0.35677031  0.49715387  0.86946036  1
  O2-  O99  1  0.66751258  0.04338234  0.11030535  1
  O2-  O100  1  0.65384597  0.01894536  0.35799890  1
  O2-  O101  1  0.68994750  -0.00071334  0.63201110  1
  O2-  O102  1  0.64723032  0.01053455  0.88935428  1
  O2-  O103  1  0.66816075  0.49625840  0.12075790  1
  O2-  O104  1  0.55827269  0.51349463  0.41811079  1
  O2-  O105  1  0.63276126  0.48930606  0.61772630  1
  O2-  O106  1  0.55789648  0.50664993  0.85018341  1
  O2-  O107  1  0.84427435  -0.00406578  0.13969984  1
  O2-  O108  1  0.85891442  0.00331949  0.36472026  1
  O2-  O109  1  0.89589288  -0.04937517  0.69290803  1
  O2-  O110  1  0.87650348  -0.00227129  0.90939529  1
  O2-  O111  1  0.90334966  0.50890425  0.16124286  1
  O2-  O112  1  0.88052915  0.50451201  0.36439769  1
  O2-  O113  1  0.84301169  0.51066424  0.60255153  1
  O2-  O114  1  0.90041799  0.52194824  0.90112585  1
  O2-  O115  1  0.05504825  0.24146583  0.12713956  1
  O2-  O116  1  0.10712799  0.22375096  0.34684513  1
  O2-  O117  1  0.18055337  0.22326087  0.59429284  1
  O2-  O118  1  0.09365988  0.23686447  0.86703778  1
  O2-  O119  1  0.03609963  0.74103221  0.14482917  1
  O2-  O120  1  0.23927633  0.70827905  0.35758026  1
  O2-  O121  1  0.10749040  0.73528208  0.61768342  1
  O2-  O122  1  0.10162553  0.74604524  0.87976489  1
  O2-  O123  1  0.32606943  0.23079451  0.12847273  1
  O2-  O124  1  0.38213244  0.24990256  0.39886388  1
  O2-  O125  1  0.39355719  0.24373523  0.61069913  1
  O2-  O126  1  0.35384399  0.23710001  0.86281398  1
  O2-  O127  1  0.35009358  0.75605760  0.09311147  1
  O2-  O128  1  0.42954609  0.76327797  0.34985495  1
  O2-  O129  1  0.43119751  0.74958176  0.63089423  1
  O2-  O130  1  0.40111084  0.75212665  0.88850572  1
  O2-  O131  1  0.64757401  0.27211907  0.13570076  1
  O2-  O132  1  0.58659409  0.26003430  0.39262301  1
  O2-  O133  1  0.71900847  0.24873361  0.63261065  1
  O2-  O134  1  0.67824484  0.26048144  0.86610909  1
  O2-  O135  1  0.59863478  0.72625114  0.11992177  1
  O2-  O136  1  0.60959840  0.80279832  0.39733055  1
  O2-  O137  1  0.76623313  0.66478149  0.61482383  1
  O2-  O138  1  0.62050081  0.75032166  0.89288076  1
  O2-  O139  1  0.85048322  0.25854100  0.12910590  1
  O2-  O140  1  0.84138332  0.25852041  0.34343411  1
  O2-  O141  1  0.86992308  0.32913701  0.62866771  1
  O2-  O142  1  0.86569355  0.27163826  0.92500634  1
  O2-  O143  1  0.78298528  0.74314426  0.16341804  1
  O2-  O144  1  0.78773580  0.76334671  0.36320030  1
  O2-  O145  1  0.91899223  0.75953525  0.62528447  1
  O2-  O146  1  0.82916634  0.72316643  0.89553779  1
  O2-  O147  1  0.12600375  0.11250863  0.00994512  1
  O2-  O148  1  0.15310876  0.10749810  0.20750620  1
  O2-  O149  1  0.12117420  0.10701666  0.47900241  1
  O2-  O150  1  0.15675003  0.11735917  0.74099174  1
  O2-  O151  1  0.06968316  0.61634600  0.01510774  1
  O2-  O152  1  0.09671852  0.63157519  0.27878571  1
  O2-  O153  1  0.13385050  0.60721893  0.48262270  1
  O2-  O154  1  0.08909771  0.61222295  0.74195810  1
  O2-  O155  1  0.41141252  0.13367086  -0.00277793  1
  O2-  O156  1  0.39966038  0.12577348  0.25545848  1
  O2-  O157  1  0.49465775  0.12977448  0.49715120  1
  O2-  O158  1  0.38508649  0.11827615  0.73375164  1
  O2-  O159  1  0.41185661  0.61945084  0.00529738  1
  O2-  O160  1  0.36890186  0.62340737  0.21494333  1
  O2-  O161  1  0.39514130  0.64307719  0.49861974  1
  O2-  O162  1  0.40776601  0.63345479  0.75319937  1
  O2-  O163  1  0.60459862  0.17142050  -0.00401864  1
  O2-  O164  1  0.58520539  0.16213069  0.25689636  1
  O2-  O165  1  0.68571125  0.14150680  0.50232793  1
  O2-  O166  1  0.70568954  0.13260180  0.75800867  1
  O2-  O167  1  0.58221565  0.61907980  -0.00524127  1
  O2-  O168  1  0.58330565  0.62271988  0.25719246  1
  O2-  O169  1  0.60158356  0.67546616  0.56678250  1
  O2-  O170  1  0.59062708  0.65034126  0.74648912  1
  O2-  O171  1  0.79115501  0.13657759  0.01413410  1
  O2-  O172  1  0.78323537  0.13343474  0.24502681  1
  O2-  O173  1  0.91039441  0.15876592  0.45498080  1
  O2-  O174  1  0.90565535  0.16885219  0.77697045  1
  O2-  O175  1  0.86901046  0.65216955  0.05047889  1
  O2-  O176  1  0.91318653  0.66371238  0.27158526  1
  O2-  O177  1  0.89591340  0.65901817  0.47601037  1
  O2-  O178  1  0.89988127  0.63226303  0.74262552  1
  O2-  O179  1  0.15485166  0.34573737  0.00504624  1
  O2-  O180  1  0.18121226  0.34400908  0.20252695  1
  O2-  O181  1  0.13961530  0.35095267  0.46307639  1
  O2-  O182  1  0.16544703  0.33200965  0.72950433  1
  O2-  O183  1  0.08360379  0.85011866  0.01452829  1
  O2-  O184  1  0.11060487  0.83341669  0.27700621  1
  O2-  O185  1  0.17714458  0.84153339  0.49030947  1
  O2-  O186  1  0.10716401  0.86528456  0.73777897  1
  O2-  O187  1  0.36036165  0.35723270  -0.00252276  1
  O2-  O188  1  0.35605617  0.37457903  0.25674339  1
  O2-  O189  1  0.29732322  0.37296672  0.55330336  1
  O2-  O190  1  0.34733344  0.36183368  0.73277814  1
  O2-  O191  1  0.40899206  0.88889257  0.00174227  1
  O2-  O192  1  0.37233055  0.89053417  0.22359027  1
  O2-  O193  1  0.38746044  0.86018394  0.49600162  1
  O2-  O194  1  0.40712405  0.88528444  0.76493630  1
  O2-  O195  1  0.59626079  0.36908629  -0.00497564  1
  O2-  O196  1  0.58750875  0.37575984  0.26632966  1
  O2-  O197  1  0.68196709  0.35968083  0.50547467  1
  O2-  O198  1  0.68118474  0.37561421  0.73722306  1
  O2-  O199  1  0.58071549  0.88973354  0.01270108  1
  O2-  O200  1  0.56255899  0.89612507  0.24326230  1
  O2-  O201  1  0.56706749  0.92835320  0.51159498  1
  O2-  O202  1  0.59532933  0.88168216  0.76346139  1
  O2-  O203  1  0.81184238  0.41031597  0.01727197  1
  O2-  O204  1  0.79085397  0.38927857  0.24056518  1
  O2-  O205  1  0.92123247  0.36279960  0.46647170  1
  O2-  O206  1  0.92482499  0.37249016  0.79973027  1
  O2-  O207  1  0.89141170  0.84630820  0.04083173  1
  O2-  O208  1  0.89805215  0.85609598  0.25610735  1
  O2-  O209  1  0.96301128  0.84903278  0.43151032  1
  O2-  O210  1  0.95206068  0.82962774  0.86322222  1
  O2-  O211  1  -0.04885720  0.11336184  0.05123054  1
  O2-  O212  1  -0.04689443  0.12460467  0.22910023  1
  O2-  O213  1  0.01971613  0.01435917  0.59148509  1
  O2-  O214  1  0.01822994  0.17356786  0.62797208  1
  O2-  O215  1  -0.02171145  0.38480215  0.03962131  1
  O2-  O216  1  0.00693729  0.35952413  0.30987657  1
  O2-  O217  1  -0.00077561  0.55533058  0.59359857  1
  O2-  O218  1  0.03937809  0.35740735  0.60604075  1
  O2-  O219  1  0.24667196  -0.11887278  -0.02372560  1
  O2-  O220  1  0.20932226  -0.12774808  0.14477915  1
  O2-  O221  1  0.28000960  -0.17740954  0.64803688  1
  O2-  O222  1  0.24888637  -0.16170133  0.82116034  1
  O2-  O223  1  0.25573547  0.62354477  -0.02676236  1
  O2-  O224  1  0.20742282  0.64742302  0.13919346  1
  O2-  O225  1  0.25376151  0.62925229  0.62300803  1
  O2-  O226  1  0.25130173  0.64426594  0.80798275  1
  O2-  O227  1  0.51727661  0.14949494  -0.15165904  1
  O2-  O228  1  0.50027908  0.03863617  0.12684373  1
  O2-  O229  1  0.55273541  0.06536572  0.68414249  1
  O2-  O230  1  0.56535344  0.21932139  0.63450429  1
  O2-  O231  1  0.46718378  0.33341579  0.12816209  1
  O2-  O232  1  0.50145230  0.50157540  0.13119513  1
  O2-  O233  1  0.51703962  0.37007585  0.53673874  1
  O2-  O234  1  0.51894599  0.37274211  0.70705648  1
  O2-  O235  1  0.74161724  -0.13860976  -0.01832486  1
  O2-  O236  1  0.70693146  -0.11357403  0.16570501  1
  O2-  O237  1  0.80852196  -0.12786341  0.51340671  1
  O2-  O238  1  0.75938693  -0.12266249  0.81699698  1
  O2-  O239  1  0.73165254  0.58668788  -0.06348632  1
  O2-  O240  1  0.75310754  0.58665190  0.25536384  1
  O2-  O241  1  0.72409946  0.60124200  0.44680404  1
  O2-  O242  1  0.72991581  0.58089442  0.77197198  1
