# generated using pymatgen
data_Gd19Ta56(WO20)8
_symmetry_space_group_name_H-M   'P 1'
_cell_length_a   15.56886445
_cell_length_b   15.43965050
_cell_length_c   15.24165274
_cell_angle_alpha   89.95147198
_cell_angle_beta   89.87307439
_cell_angle_gamma   90.09465278
_symmetry_Int_Tables_number   1
_chemical_formula_structural   Gd19Ta56(WO20)8
_chemical_formula_sum   'Gd19 Ta56 W8 O160'
_cell_volume   3663.74003291
_cell_formula_units_Z   1
loop_
 _symmetry_equiv_pos_site_id
 _symmetry_equiv_pos_as_xyz
  1  'x, y, z'
loop_
 _atom_type_symbol
 _atom_type_oxidation_number
  Gd3+  3.0
  Ta5+  5.0
  W6+  6.0
  O2-  -2.0
loop_
 _atom_site_type_symbol
 _atom_site_label
 _atom_site_symmetry_multiplicity
 _atom_site_fract_x
 _atom_site_fract_y
 _atom_site_fract_z
 _atom_site_occupancy
  Gd3+  Gd0  1  0.52614815  0.22576378  0.22155503  1
  Gd3+  Gd1  1  0.24765789  0.75015356  0.23986119  1
  Gd3+  Gd2  1  0.75620788  0.76978802  -0.00647049  1
  Gd3+  Gd3  1  -0.01136307  0.26281069  0.74813990  1
  Gd3+  Gd4  1  0.70586489  0.24805004  0.01882414  1
  Gd3+  Gd5  1  0.30137995  0.27404498  0.22505776  1
  Gd3+  Gd6  1  0.73466401  0.72414481  0.76360653  1
  Gd3+  Gd7  1  0.47776939  0.24522334  0.78671960  1
  Gd3+  Gd8  1  0.72078600  0.26064661  0.49316701  1
  Gd3+  Gd9  1  -0.01811253  0.73696307  0.50479708  1
  Gd3+  Gd10  1  0.27219102  0.24496792  -0.03918967  1
  Gd3+  Gd11  1  0.25830017  0.20485076  0.72143806  1
  Gd3+  Gd12  1  0.00706118  0.74901364  0.74281325  1
  Gd3+  Gd13  1  0.03901836  0.27432469  -0.00245021  1
  Gd3+  Gd14  1  0.49669860  0.75205975  0.49994772  1
  Gd3+  Gd15  1  0.00108250  0.24220078  0.24831526  1
  Gd3+  Gd16  1  -0.06394652  0.76893035  0.26898674  1
  Gd3+  Gd17  1  0.52900531  0.74007172  -0.02041303  1
  Gd3+  Gd18  1  0.26094877  0.77466818  -0.01360922  1
  Ta5+  Ta19  1  0.16075452  0.63125686  0.61281683  1
  Ta5+  Ta20  1  0.60145764  0.12312943  0.62509615  1
  Ta5+  Ta21  1  0.13997324  0.12637611  0.11551351  1
  Ta5+  Ta22  1  0.60028964  0.61597438  0.37082699  1
  Ta5+  Ta23  1  0.60309036  0.37587028  0.63293897  1
  Ta5+  Ta24  1  0.14253672  0.38300944  0.62095179  1
  Ta5+  Ta25  1  0.60179651  0.89117847  0.86221150  1
  Ta5+  Ta26  1  0.85660863  0.12944682  0.37030034  1
  Ta5+  Ta27  1  0.89359519  0.12759131  0.10363327  1
  Ta5+  Ta28  1  0.56646032  0.37443472  0.38233479  1
  Ta5+  Ta29  1  0.31800481  0.90352367  0.38118045  1
  Ta5+  Ta30  1  0.89261908  0.62362689  0.88376728  1
  Ta5+  Ta31  1  0.63950748  0.87881992  0.61428269  1
  Ta5+  Ta32  1  0.09744234  0.63238492  0.10489464  1
  Ta5+  Ta33  1  0.89141154  0.63164448  0.11487125  1
  Ta5+  Ta34  1  0.83636535  0.61055405  0.38021087  1
  Ta5+  Ta35  1  0.12235538  0.37223135  0.37459062  1
  Ta5+  Ta36  1  0.11212865  0.88910442  0.87127674  1
  Ta5+  Ta37  1  0.84728043  0.90044946  0.62820601  1
  Ta5+  Ta38  1  0.89570691  0.89203525  0.87236709  1
  Ta5+  Ta39  1  0.15078967  0.39530243  0.16120095  1
  Ta5+  Ta40  1  0.86662056  0.58568776  0.62698450  1
  Ta5+  Ta41  1  0.38644245  0.06520178  0.87248816  1
  Ta5+  Ta42  1  0.39803600  0.40608726  0.07215314  1
  Ta5+  Ta43  1  0.14154200  0.63550637  0.86272379  1
  Ta5+  Ta44  1  0.37964341  0.63426784  0.85965774  1
  Ta5+  Ta45  1  0.15812790  0.38945709  0.84172081  1
  Ta5+  Ta46  1  0.84377345  0.14962714  0.63118332  1
  Ta5+  Ta47  1  0.05439110  0.08883487  0.88440699  1
  Ta5+  Ta48  1  0.37714639  0.09707498  0.11931107  1
  Ta5+  Ta49  1  0.61683549  0.40380415  0.14359191  1
  Ta5+  Ta50  1  0.39335679  0.13767829  0.38256379  1
  Ta5+  Ta51  1  0.08641077  0.12300931  0.61897973  1
  Ta5+  Ta52  1  0.58132360  0.55986220  0.86263376  1
  Ta5+  Ta53  1  0.43445014  0.10963863  0.62518766  1
  Ta5+  Ta54  1  0.89338999  0.37320241  0.37748865  1
  Ta5+  Ta55  1  0.38519876  0.63152517  0.11959566  1
  Ta5+  Ta56  1  0.65794645  0.86302243  0.38214447  1
  Ta5+  Ta57  1  0.43642006  0.45187245  0.87305805  1
  Ta5+  Ta58  1  0.32703284  0.63665514  0.62301990  1
  Ta5+  Ta59  1  0.37263109  0.88078389  0.62718859  1
  Ta5+  Ta60  1  0.11477371  0.88455061  0.36872307  1
  Ta5+  Ta61  1  0.63105823  0.86375397  0.13199680  1
  Ta5+  Ta62  1  0.62683109  0.62047965  0.62309105  1
  Ta5+  Ta63  1  0.88122320  0.37896281  0.90012211  1
  Ta5+  Ta64  1  0.61881381  0.11637121  0.87865500  1
  Ta5+  Ta65  1  0.63111071  0.11272925  0.36893170  1
  Ta5+  Ta66  1  0.88531749  0.12444656  0.88383702  1
  Ta5+  Ta67  1  0.60088456  0.38605897  0.88636228  1
  Ta5+  Ta68  1  0.12782541  0.88225949  0.61639806  1
  Ta5+  Ta69  1  0.36785367  0.39054023  0.64584362  1
  Ta5+  Ta70  1  0.37155292  0.60432423  0.37604908  1
  Ta5+  Ta71  1  0.61723357  0.04631287  0.12289716  1
  Ta5+  Ta72  1  0.12905160  0.62560300  0.36460049  1
  Ta5+  Ta73  1  0.38438261  0.35974049  0.40975789  1
  Ta5+  Ta74  1  0.10264639  0.88127182  0.11923384  1
  W6+  W75  1  0.43394435  0.88700113  0.87616897  1
  W6+  W76  1  0.86116259  0.38683225  0.63304438  1
  W6+  W77  1  0.12382262  0.10194294  0.36746530  1
  W6+  W78  1  0.62783628  0.60798903  0.11520474  1
  W6+  W79  1  0.88488082  0.38101330  0.11658961  1
  W6+  W80  1  0.84745994  0.89482089  0.13169988  1
  W6+  W81  1  0.81481979  0.87992493  0.40216015  1
  W6+  W82  1  0.42637038  0.86074310  0.14581294  1
  O2-  O83  1  0.12163559  0.00453741  0.10730354  1
  O2-  O84  1  0.04703516  -0.01790366  0.35071159  1
  O2-  O85  1  0.08119156  -0.00544895  0.63018238  1
  O2-  O86  1  0.15550165  0.00204178  0.86104202  1
  O2-  O87  1  0.12064590  0.50754811  0.11963794  1
  O2-  O88  1  0.11708039  0.50739838  0.36672094  1
  O2-  O89  1  0.15343653  0.50632575  0.61630750  1
  O2-  O90  1  0.15432175  0.51493645  0.85151105  1
  O2-  O91  1  0.35264226  -0.01668922  0.13438486  1
  O2-  O92  1  0.36449353  0.01940546  0.37404030  1
  O2-  O93  1  0.42471274  -0.01498237  0.58951438  1
  O2-  O94  1  0.32279447  -0.03347720  0.90009296  1
  O2-  O95  1  0.34683752  0.51618092  0.11161109  1
  O2-  O96  1  0.37138459  0.48451321  0.38256386  1
  O2-  O97  1  0.34936944  0.50916785  0.63243983  1
  O2-  O98  1  0.32574997  0.53252282  0.89677693  1
  O2-  O99  1  0.71824176  -0.03558130  0.13274758  1
  O2-  O100  1  0.64976122  -0.00720282  0.37227912  1
  O2-  O101  1  0.63405682  0.00102744  0.62953840  1
  O2-  O102  1  0.65742627  0.00181731  0.85659797  1
  O2-  O103  1  0.69457178  0.49475622  0.13352186  1
  O2-  O104  1  0.55011559  0.50277436  0.38071797  1
  O2-  O105  1  0.61989538  0.49898274  0.64105735  1
  O2-  O106  1  0.67874162  0.48219671  0.85394239  1
  O2-  O107  1  0.90857022  0.01056223  0.10890660  1
  O2-  O108  1  0.84425123  0.01326169  0.38826811  1
  O2-  O109  1  0.84253753  0.01916981  0.63432191  1
  O2-  O110  1  0.84884757  0.00707052  0.85987633  1
  O2-  O111  1  0.87366380  0.51538284  0.12956147  1
  O2-  O112  1  0.87973068  0.49679411  0.36223517  1
  O2-  O113  1  0.94707985  0.50025976  0.64622105  1
  O2-  O114  1  0.88173013  0.50479647  0.89293501  1
  O2-  O115  1  0.12160367  0.27110261  0.13043069  1
  O2-  O116  1  0.11963041  0.24966733  0.35428927  1
  O2-  O117  1  0.12775530  0.24318677  0.64043157  1
  O2-  O118  1  0.19647169  0.26975823  0.83310593  1
  O2-  O119  1  0.14676586  0.75458057  0.11334855  1
  O2-  O120  1  0.06052414  0.75365741  0.35612429  1
  O2-  O121  1  0.09290520  0.75764655  0.61504310  1
  O2-  O122  1  0.16917807  0.76506522  0.86938594  1
  O2-  O123  1  0.41340634  0.28875292  0.12810493  1
  O2-  O124  1  0.32349755  0.24572069  0.37533180  1
  O2-  O125  1  0.39181712  0.23510770  0.66465909  1
  O2-  O126  1  0.34551521  0.19205271  0.84457864  1
  O2-  O127  1  0.33395341  0.75553874  0.11989034  1
  O2-  O128  1  0.47810986  0.66955657  0.36785982  1
  O2-  O129  1  0.39860845  0.75741193  0.61609506  1
  O2-  O130  1  0.36021788  0.75909458  0.88224258  1
  O2-  O131  1  0.63746345  0.27681676  0.14423751  1
  O2-  O132  1  0.60145553  0.25111348  0.37076658  1
  O2-  O133  1  0.62544482  0.25174896  0.61141787  1
  O2-  O134  1  0.61540152  0.24508607  0.90044722  1
  O2-  O135  1  0.63611809  0.74076107  0.09394859  1
  O2-  O136  1  0.63063154  0.74038412  0.40597538  1
  O2-  O137  1  0.60012707  0.75407885  0.61391962  1
  O2-  O138  1  0.65151872  0.77113910  0.87950466  1
  O2-  O139  1  0.93954751  0.25182158  0.10853282  1
  O2-  O140  1  0.92491749  0.23886866  0.37735502  1
  O2-  O141  1  0.79969398  0.26475762  0.63125829  1
  O2-  O142  1  0.93251894  0.25678278  0.89182396  1
  O2-  O143  1  0.83776963  0.74925951  0.12299024  1
  O2-  O144  1  0.86381904  0.73892941  0.40225489  1
  O2-  O145  1  0.91881218  0.70621815  0.63640196  1
  O2-  O146  1  0.84388192  0.75724955  0.86534618  1
  O2-  O147  1  0.14069201  0.15396937  -0.01656231  1
  O2-  O148  1  0.09268129  0.12483564  0.23057117  1
  O2-  O149  1  0.12340241  0.11601657  0.50413137  1
  O2-  O150  1  0.07030352  0.12981303  0.76426537  1
  O2-  O151  1  0.16373893  0.64041976  -0.00598374  1
  O2-  O152  1  0.14902978  0.63813955  0.23552310  1
  O2-  O153  1  0.10401947  0.64493629  0.48884884  1
  O2-  O154  1  0.13058078  0.65228189  0.73612623  1
  O2-  O155  1  0.35304780  0.12141830  -0.00161531  1
  O2-  O156  1  0.38198317  0.15041322  0.24063295  1
  O2-  O157  1  0.41357827  0.14850320  0.50140644  1
  O2-  O158  1  0.41480912  0.07663451  0.74950415  1
  O2-  O159  1  0.41266738  0.64748965  -0.00261252  1
  O2-  O160  1  0.35624916  0.63704477  0.24875429  1
  O2-  O161  1  0.37276998  0.63819849  0.49595513  1
  O2-  O162  1  0.32299693  0.65063524  0.74684061  1
  O2-  O163  1  0.64626319  0.10024647  0.01485007  1
  O2-  O164  1  0.63462861  0.10968368  0.22771041  1
  O2-  O165  1  0.63336957  0.12428202  0.49281743  1
  O2-  O166  1  0.59510487  0.14370902  0.75598533  1
  O2-  O167  1  0.60375855  0.60597532  -0.02328918  1
  O2-  O168  1  0.61942818  0.62122136  0.25271668  1
  O2-  O169  1  0.56694701  0.61882464  0.51378117  1
  O2-  O170  1  0.61323947  0.63637297  0.75013639  1
  O2-  O171  1  0.97659190  0.12211355  -0.01065110  1
  O2-  O172  1  0.88283685  0.13738764  0.23690040  1
  O2-  O173  1  0.83107120  0.15139080  0.50108249  1
  O2-  O174  1  0.87433997  0.15748335  0.75890586  1
  O2-  O175  1  0.82822952  0.63926118  -0.00661748  1
  O2-  O176  1  0.85340102  0.64152034  0.25912315  1
  O2-  O177  1  0.89093649  0.60668535  0.50034659  1
  O2-  O178  1  0.84554380  0.61776074  0.76640200  1
  O2-  O179  1  0.15149203  0.36576107  -0.03623756  1
  O2-  O180  1  0.05581042  0.38286729  0.24741774  1
  O2-  O181  1  0.15958016  0.36867260  0.49587327  1
  O2-  O182  1  0.07954547  0.38346430  0.73836046  1
  O2-  O183  1  0.14824247  0.87602601  -0.00244637  1
  O2-  O184  1  0.14989099  0.87355087  0.23559509  1
  O2-  O185  1  0.09566720  0.86993210  0.49318787  1
  O2-  O186  1  0.10361690  0.86586415  0.74315692  1
  O2-  O187  1  0.36460471  0.35597179  -0.04070627  1
  O2-  O188  1  0.45994531  0.33311744  0.30892063  1
  O2-  O189  1  0.34351100  0.35260393  0.52554247  1
  O2-  O190  1  0.40170188  0.37477705  0.77033988  1
  O2-  O191  1  0.44216758  0.85383517  0.01278506  1
  O2-  O192  1  0.36269250  0.85588957  0.27714418  1
  O2-  O193  1  0.37713561  0.85814534  0.47716238  1
  O2-  O194  1  0.39424838  0.88735571  0.74266843  1
  O2-  O195  1  0.62312277  0.38043919  0.01325684  1
  O2-  O196  1  0.62648299  0.39119159  0.27113215  1
  O2-  O197  1  0.62656735  0.38018548  0.49449631  1
  O2-  O198  1  0.59110730  0.34716193  0.75650338  1
  O2-  O199  1  0.62702847  0.88286119  0.00003305  1
  O2-  O200  1  0.64365937  0.84733752  0.26044247  1
  O2-  O201  1  0.58115760  0.87884689  0.49806305  1
  O2-  O202  1  0.59296346  0.87461624  0.73908422  1
  O2-  O203  1  0.96359837  0.39741704  -0.00101306  1
  O2-  O204  1  0.87230044  0.35010036  0.25523198  1
  O2-  O205  1  0.82849384  0.36384945  0.48208411  1
  O2-  O206  1  0.88424911  0.36580161  0.77126851  1
  O2-  O207  1  0.85009102  0.88231341  -0.01128622  1
  O2-  O208  1  0.84600496  0.87572490  0.26673486  1
  O2-  O209  1  0.92226731  0.86806258  0.53823791  1
  O2-  O210  1  0.91126486  0.87387737  0.73548072  1
  O2-  O211  1  0.00212330  -0.18271472  -0.11625283  1
  O2-  O212  1  -0.01113002  -0.14363849  0.14115346  1
  O2-  O213  1  -0.02985916  0.15756548  0.61373147  1
  O2-  O214  1  0.00402164  -0.03057250  0.87911663  1
  O2-  O215  1  -0.00900860  0.62315371  0.03069737  1
  O2-  O216  1  -0.00269962  0.66677007  0.18068861  1
  O2-  O217  1  0.00687027  0.38388918  0.41815496  1
  O2-  O218  1  0.01152887  0.64042364  0.85826876  1
  O2-  O219  1  0.25963561  0.16435454  0.12775065  1
  O2-  O220  1  0.20723928  -0.02771890  0.38856568  1
  O2-  O221  1  0.22817721  -0.18924825  0.37680901  1
  O2-  O222  1  0.24705445  -0.11091007  0.61429554  1
  O2-  O223  1  0.26409104  0.37009103  0.11106516  1
  O2-  O224  1  0.21492560  0.38953304  0.27448458  1
  O2-  O225  1  0.24908769  0.63560285  0.37734385  1
  O2-  O226  1  0.24794868  0.35578748  0.68595477  1
  O2-  O227  1  0.49893921  0.11522757  0.11652923  1
  O2-  O228  1  0.53610070  -0.04875503  0.15588103  1
  O2-  O229  1  0.50890448  0.11713940  0.34194935  1
  O2-  O230  1  0.50060608  0.10687869  0.90889986  1
  O2-  O231  1  0.47527598  0.46862514  -0.00600704  1
  O2-  O232  1  0.49991915  0.43184661  0.15142261  1
  O2-  O233  1  0.48662430  0.38527043  0.61126200  1
  O2-  O234  1  0.46802325  0.56421006  0.79523964  1
  O2-  O235  1  0.82102311  0.15304741  0.00230253  1
  O2-  O236  1  0.74392787  0.17177279  0.35308798  1
  O2-  O237  1  0.74756954  -0.11438383  0.53327807  1
  O2-  O238  1  0.74828757  -0.15563394  0.68665322  1
  O2-  O239  1  0.80550571  0.35153641  -0.00446334  1
  O2-  O240  1  0.72164207  0.58775718  0.40243607  1
  O2-  O241  1  0.74422173  0.65454743  0.62196053  1
  O2-  O242  1  0.78472364  0.49410230  0.61327207  1
