# generated using pymatgen
data_Gd19Ta56(WO20)8
_symmetry_space_group_name_H-M   'P 1'
_cell_length_a   15.53987289
_cell_length_b   15.45199933
_cell_length_c   15.31660433
_cell_angle_alpha   89.70184655
_cell_angle_beta   90.06198242
_cell_angle_gamma   89.90523966
_symmetry_Int_Tables_number   1
_chemical_formula_structural   Gd19Ta56(WO20)8
_chemical_formula_sum   'Gd19 Ta56 W8 O160'
_cell_volume   3677.79826766
_cell_formula_units_Z   1
loop_
 _symmetry_equiv_pos_site_id
 _symmetry_equiv_pos_as_xyz
  1  'x, y, z'
loop_
 _atom_type_symbol
 _atom_type_oxidation_number
  Gd3+  3.0
  Ta5+  5.0
  W6+  6.0
  O2-  -2.0
loop_
 _atom_site_type_symbol
 _atom_site_label
 _atom_site_symmetry_multiplicity
 _atom_site_fract_x
 _atom_site_fract_y
 _atom_site_fract_z
 _atom_site_occupancy
  Gd3+  Gd0  1  0.00124705  0.76762824  0.24342886  1
  Gd3+  Gd1  1  0.47698433  0.25964173  0.50224201  1
  Gd3+  Gd2  1  -0.02088959  0.26182533  0.23516501  1
  Gd3+  Gd3  1  0.01226795  0.23787624  0.50453985  1
  Gd3+  Gd4  1  0.01226026  0.75117782  0.51599811  1
  Gd3+  Gd5  1  0.48941005  0.75946967  0.26307249  1
  Gd3+  Gd6  1  0.23793081  0.73143419  -0.00976696  1
  Gd3+  Gd7  1  0.25971700  0.25346680  0.22250539  1
  Gd3+  Gd8  1  0.24974287  0.76393408  0.49908435  1
  Gd3+  Gd9  1  0.23456754  0.75036898  0.72560447  1
  Gd3+  Gd10  1  0.28463295  0.23706769  0.76309504  1
  Gd3+  Gd11  1  0.03719715  0.23705065  0.74697779  1
  Gd3+  Gd12  1  0.24839283  0.27726663  -0.01102951  1
  Gd3+  Gd13  1  -0.00510184  0.25654128  -0.01082742  1
  Gd3+  Gd14  1  0.47970571  0.24013060  -0.01389092  1
  Gd3+  Gd15  1  0.74968213  0.24159283  0.01582952  1
  Gd3+  Gd16  1  0.73686696  0.23986136  0.25989877  1
  Gd3+  Gd17  1  -0.02366571  0.73612380  0.75484597  1
  Gd3+  Gd18  1  -0.00189933  0.74279262  -0.00177730  1
  Ta5+  Ta19  1  0.32491067  0.38525106  0.61804833  1
  Ta5+  Ta20  1  0.62105150  0.38389234  0.14028712  1
  Ta5+  Ta21  1  0.12159676  0.38773617  0.11793855  1
  Ta5+  Ta22  1  0.12719918  0.11355260  0.10300953  1
  Ta5+  Ta23  1  0.86268525  0.87302610  0.88475486  1
  Ta5+  Ta24  1  0.65654248  0.88621594  0.37567205  1
  Ta5+  Ta25  1  0.87498152  0.87287271  0.38238787  1
  Ta5+  Ta26  1  0.12753358  0.62817462  0.13796870  1
  Ta5+  Ta27  1  0.16395001  0.86571511  0.12571560  1
  Ta5+  Ta28  1  0.12108828  0.88991413  0.37399209  1
  Ta5+  Ta29  1  0.41977479  0.05374735  0.87116505  1
  Ta5+  Ta30  1  0.13258542  0.12178820  0.36235461  1
  Ta5+  Ta31  1  0.88450810  0.09290453  0.12466403  1
  Ta5+  Ta32  1  0.88269170  0.60902297  0.62601104  1
  Ta5+  Ta33  1  0.89269762  0.37337480  0.84849742  1
  Ta5+  Ta34  1  0.65078526  0.11252160  0.87431350  1
  Ta5+  Ta35  1  0.36991799  0.10319170  0.11254545  1
  Ta5+  Ta36  1  0.33173454  0.85850467  0.12560313  1
  Ta5+  Ta37  1  0.62961295  0.38272180  0.39993385  1
  Ta5+  Ta38  1  0.87339788  0.60660879  0.88166033  1
  Ta5+  Ta39  1  0.36106507  0.38338616  0.36508708  1
  Ta5+  Ta40  1  0.12310191  0.38171222  0.36555111  1
  Ta5+  Ta41  1  0.37988922  0.40539276  0.11535813  1
  Ta5+  Ta42  1  0.62328380  0.87939243  0.61850244  1
  Ta5+  Ta43  1  0.38162275  0.64467609  0.86440605  1
  Ta5+  Ta44  1  0.37206794  0.65389137  0.12146167  1
  Ta5+  Ta45  1  0.63635113  0.87878367  0.12612920  1
  Ta5+  Ta46  1  0.39710828  0.87826901  0.62236974  1
  Ta5+  Ta47  1  0.86742277  0.87188597  0.63219690  1
  Ta5+  Ta48  1  0.12599281  0.56021661  0.61981512  1
  Ta5+  Ta49  1  0.86264617  0.62825645  0.13582393  1
  Ta5+  Ta50  1  0.86070685  0.63972409  0.37641280  1
  Ta5+  Ta51  1  0.32955659  0.63020257  0.36930168  1
  Ta5+  Ta52  1  0.11011653  0.91538000  0.62256110  1
  Ta5+  Ta53  1  0.38820477  0.61757359  0.61968491  1
  Ta5+  Ta54  1  0.13024481  0.11396077  0.89014476  1
  Ta5+  Ta55  1  0.56599323  0.38828519  0.65300797  1
  Ta5+  Ta56  1  0.87340505  0.39372954  0.39762743  1
  Ta5+  Ta57  1  0.37250068  0.86133054  0.87372765  1
  Ta5+  Ta58  1  0.85104225  0.06847760  0.38221556  1
  Ta5+  Ta59  1  0.88579111  0.11387227  0.85800759  1
  Ta5+  Ta60  1  0.39544205  0.40164895  0.86134855  1
  Ta5+  Ta61  1  0.16095971  0.36423221  0.61042858  1
  Ta5+  Ta62  1  0.37492199  0.12825459  0.37163927  1
  Ta5+  Ta63  1  0.61809383  0.12253263  0.38712509  1
  Ta5+  Ta64  1  0.14452229  0.10279444  0.62208297  1
  Ta5+  Ta65  1  0.60111909  0.87313287  0.87261522  1
  Ta5+  Ta66  1  0.88770285  0.36563542  0.64775431  1
  Ta5+  Ta67  1  0.61835306  0.63215507  0.13523993  1
  Ta5+  Ta68  1  0.11607362  0.87667109  0.86793260  1
  Ta5+  Ta69  1  0.12547152  0.60728297  0.86416012  1
  Ta5+  Ta70  1  0.86145472  0.89325260  0.12531527  1
  Ta5+  Ta71  1  0.60743470  0.37644495  0.84889399  1
  Ta5+  Ta72  1  0.36760558  0.88566971  0.37497684  1
  Ta5+  Ta73  1  0.60731113  0.11165196  0.13158576  1
  Ta5+  Ta74  1  0.62525684  0.63757803  0.63509609  1
  W6+  W75  1  0.38837885  0.12656742  0.63298524  1
  W6+  W76  1  0.13458438  0.39460561  0.86044142  1
  W6+  W77  1  0.58595444  0.12934730  0.63499116  1
  W6+  W78  1  0.86237275  0.41317638  0.07511694  1
  W6+  W79  1  0.16029958  0.63036550  0.37981700  1
  W6+  W80  1  0.62336877  0.62138029  0.88182353  1
  W6+  W81  1  0.88432509  0.10506524  0.60980412  1
  W6+  W82  1  0.61295409  0.63502384  0.38923666  1
  O2-  O83  1  0.14385669  -0.00587157  0.11516484  1
  O2-  O84  1  0.09852088  0.01040524  0.33568326  1
  O2-  O85  1  0.04500056  0.03478453  0.64426184  1
  O2-  O86  1  0.14756663  -0.00669978  0.89234941  1
  O2-  O87  1  0.09761929  0.50376741  0.14548448  1
  O2-  O88  1  0.15290349  0.49361610  0.36704013  1
  O2-  O89  1  0.06190499  0.46297405  0.58866134  1
  O2-  O90  1  0.19786564  0.51118810  0.86730633  1
  O2-  O91  1  0.33786628  -0.01029277  0.12201810  1
  O2-  O92  1  0.39758177  0.00725706  0.36701222  1
  O2-  O93  1  0.41382595  -0.00684027  0.64180919  1
  O2-  O94  1  0.32341469  -0.02186454  0.86487118  1
  O2-  O95  1  0.39565412  0.52165944  0.12560755  1
  O2-  O96  1  0.35056598  0.50367435  0.35742661  1
  O2-  O97  1  0.39945142  0.49758090  0.62724928  1
  O2-  O98  1  0.41184883  0.52252160  0.86487211  1
  O2-  O99  1  0.58215344  -0.00676334  0.13904996  1
  O2-  O100  1  0.60189700  0.00053109  0.38193015  1
  O2-  O101  1  0.62048204  0.00013799  0.61918083  1
  O2-  O102  1  0.66167295  -0.00624397  0.87401283  1
  O2-  O103  1  0.60845869  0.50354493  0.14691459  1
  O2-  O104  1  0.60531179  0.49736129  0.38091395  1
  O2-  O105  1  0.58896152  0.50415957  0.63758915  1
  O2-  O106  1  0.64509220  0.48113287  0.88530186  1
  O2-  O107  1  0.94820558  -0.02192464  0.10959574  1
  O2-  O108  1  0.93759841  -0.02047858  0.39106482  1
  O2-  O109  1  0.82962420  -0.01845739  0.60232425  1
  O2-  O110  1  0.87269182  -0.00236802  0.89569171  1
  O2-  O111  1  0.87740016  0.51310766  0.16664470  1
  O2-  O112  1  0.86093688  0.51281875  0.37221746  1
  O2-  O113  1  0.86228874  0.48684098  0.61616128  1
  O2-  O114  1  0.84859630  0.48373487  0.88279903  1
  O2-  O115  1  0.14135568  0.25197936  0.09619294  1
  O2-  O116  1  0.05082168  0.21843587  0.35713478  1
  O2-  O117  1  0.11837052  0.23069982  0.61468183  1
  O2-  O118  1  0.11898896  0.24853250  0.88969963  1
  O2-  O119  1  0.08602242  0.75041178  0.11953903  1
  O2-  O120  1  0.11895345  0.76348120  0.41018879  1
  O2-  O121  1  0.15030873  0.79196562  0.60363837  1
  O2-  O122  1  0.10672998  0.74359482  0.84022618  1
  O2-  O123  1  0.34861163  0.24320153  0.09113038  1
  O2-  O124  1  0.40519062  0.25392442  0.36563203  1
  O2-  O125  1  0.35325464  0.26264951  0.63317360  1
  O2-  O126  1  0.36530895  0.27034817  0.88721593  1
  O2-  O127  1  0.43071295  0.76137086  0.12307374  1
  O2-  O128  1  0.37530150  0.75559266  0.39249009  1
  O2-  O129  1  0.33753187  0.74911240  0.61444620  1
  O2-  O130  1  0.30371305  0.75221300  0.85978443  1
  O2-  O131  1  0.64396245  0.24754116  0.13274549  1
  O2-  O132  1  0.59979391  0.25677091  0.37523868  1
  O2-  O133  1  0.53710391  0.26003271  0.63797923  1
  O2-  O134  1  0.63836284  0.27145148  0.91188632  1
  O2-  O135  1  0.60432671  0.76178697  0.14703098  1
  O2-  O136  1  0.59429374  0.77959435  0.37245139  1
  O2-  O137  1  0.65968296  0.75641853  0.63602304  1
  O2-  O138  1  0.60180119  0.75467987  0.87670973  1
  O2-  O139  1  0.82555990  0.20834153  0.14749808  1
  O2-  O140  1  0.99667808  0.39078378  0.36294018  1
  O2-  O141  1  0.93382084  0.24020044  0.63547107  1
  O2-  O142  1  0.92536804  0.24081857  0.84842311  1
  O2-  O143  1  0.90702194  0.76116033  0.11924836  1
  O2-  O144  1  0.93409130  0.75353390  0.38052327  1
  O2-  O145  1  0.86588150  0.73763513  0.64190664  1
  O2-  O146  1  0.88086609  0.73894342  0.87827077  1
  O2-  O147  1  0.05359020  0.11775439  -0.00364817  1
  O2-  O148  1  0.15794874  0.14382531  0.22917847  1
  O2-  O149  1  0.11419409  0.11597741  0.48840697  1
  O2-  O150  1  0.16720183  0.13326855  0.75655769  1
  O2-  O151  1  0.11179435  0.63748671  -0.00376021  1
  O2-  O152  1  0.09805232  0.65000233  0.25557887  1
  O2-  O153  1  0.16538169  0.62807071  0.52694567  1
  O2-  O154  1  0.15105013  0.61818624  0.73265115  1
  O2-  O155  1  0.38659073  0.10238003  -0.01799354  1
  O2-  O156  1  0.35610876  0.13750672  0.23567033  1
  O2-  O157  1  0.38837338  0.13614860  0.49477996  1
  O2-  O158  1  0.38282640  0.12498786  0.77794511  1
  O2-  O159  1  0.37582905  0.65249185  -0.01120912  1
  O2-  O160  1  0.36771274  0.65477036  0.25161229  1
  O2-  O161  1  0.34630303  0.61993651  0.50139792  1
  O2-  O162  1  0.34164096  0.63435354  0.73746153  1
  O2-  O163  1  0.66475838  0.11534496  0.02205868  1
  O2-  O164  1  0.64325729  0.12261995  0.25181867  1
  O2-  O165  1  0.56985601  0.13900341  0.49866331  1
  O2-  O166  1  0.63400944  0.13956431  0.75999806  1
  O2-  O167  1  0.59039131  0.62816464  0.01855194  1
  O2-  O168  1  0.56736365  0.63684819  0.25379128  1
  O2-  O169  1  0.66020521  0.61973181  0.51872899  1
  O2-  O170  1  0.66198288  0.61697049  0.75057849  1
  O2-  O171  1  0.88477755  0.13889707  0.00740227  1
  O2-  O172  1  0.87904273  0.10457273  0.26838220  1
  O2-  O173  1  0.90594531  0.13935701  0.46671249  1
  O2-  O174  1  0.85967922  0.10039527  0.74324876  1
  O2-  O175  1  0.89867493  0.62362305  0.01392832  1
  O2-  O176  1  0.90546652  0.65302442  0.25598137  1
  O2-  O177  1  0.90143951  0.63501533  0.49668978  1
  O2-  O178  1  0.87572438  0.60763518  0.75250999  1
  O2-  O179  1  0.14872001  0.39569142  -0.00136618  1
  O2-  O180  1  0.11114675  0.33569460  0.24283000  1
  O2-  O181  1  0.12569762  0.33640126  0.48121013  1
  O2-  O182  1  0.14924167  0.33926693  0.73699950  1
  O2-  O183  1  0.12991889  0.84132083  -0.00645990  1
  O2-  O184  1  0.12550897  0.85585473  0.24985605  1
  O2-  O185  1  0.07879577  0.90637808  0.49767800  1
  O2-  O186  1  0.15202232  0.88604111  0.74651637  1
  O2-  O187  1  0.34899419  0.39958628  -0.00964381  1
  O2-  O188  1  0.38546743  0.36698629  0.23695729  1
  O2-  O189  1  0.36392031  0.37609180  0.49153295  1
  O2-  O190  1  0.32813003  0.38459599  0.75753878  1
  O2-  O191  1  0.34519686  0.85116798  -0.00493749  1
  O2-  O192  1  0.37054159  0.86409716  0.25278345  1
  O2-  O193  1  0.34133356  0.88785538  0.51053775  1
  O2-  O194  1  0.36415513  0.85177234  0.74166694  1
  O2-  O195  1  0.71901563  0.38866820  0.06642120  1
  O2-  O196  1  0.65786303  0.36835808  0.25950933  1
  O2-  O197  1  0.58262727  0.37166433  0.51607132  1
  O2-  O198  1  0.65526675  0.35914914  0.73219691  1
  O2-  O199  1  0.62674512  0.88075210  0.00417539  1
  O2-  O200  1  0.67810171  0.88684245  0.25145544  1
  O2-  O201  1  0.67525149  0.87412742  0.50184546  1
  O2-  O202  1  0.60678411  0.87975378  0.74827682  1
  O2-  O203  1  0.85767139  0.32590262  -0.03272531  1
  O2-  O204  1  0.85882038  0.30979388  0.30654239  1
  O2-  O205  1  0.90336995  0.35094242  0.51032147  1
  O2-  O206  1  0.97228698  0.38180388  0.73663741  1
  O2-  O207  1  0.82715095  0.86395312  0.00502771  1
  O2-  O208  1  0.87554279  0.87043961  0.25210363  1
  O2-  O209  1  0.89272879  0.84553435  0.50772888  1
  O2-  O210  1  0.84344508  0.87216832  0.75955669  1
  O2-  O211  1  0.01516457  0.10608152  -0.16532410  1
  O2-  O212  1  0.00292802  0.14355270  0.15211344  1
  O2-  O213  1  -0.00604577  -0.14729965  0.65631923  1
  O2-  O214  1  -0.01005857  -0.13464584  0.88187372  1
  O2-  O215  1  0.00487998  0.38502035  -0.09489660  1
  O2-  O216  1  -0.00443343  0.35352730  0.10898457  1
  O2-  O217  1  0.01087665  0.64229220  0.63182139  1
  O2-  O218  1  -0.00113238  0.60925105  0.86785737  1
  O2-  O219  1  0.21142779  0.12889054  0.00049929  1
  O2-  O220  1  0.24201560  -0.11165392  0.37800735  1
  O2-  O221  1  0.25071147  0.14519106  0.37630447  1
  O2-  O222  1  0.20813401  -0.00445547  0.60890151  1
  O2-  O223  1  0.25088359  0.38425597  0.13932664  1
  O2-  O224  1  0.24697977  0.62412738  0.11655507  1
  O2-  O225  1  0.24486104  0.33402938  0.34731075  1
  O2-  O226  1  0.22922935  0.48496039  0.62226993  1
  O2-  O227  1  0.52758633  0.12654738  -0.09661396  1
  O2-  O228  1  0.49381947  0.15156339  0.11309026  1
  O2-  O229  1  0.50882036  -0.15498499  0.58780522  1
  O2-  O230  1  0.48670357  -0.05968424  0.88236270  1
  O2-  O231  1  0.50398606  0.37071081  -0.07472785  1
  O2-  O232  1  0.50170306  0.35815297  0.10296710  1
  O2-  O233  1  0.50151376  0.65771062  0.62596737  1
  O2-  O234  1  0.50063100  0.39345793  0.76662273  1
  O2-  O235  1  0.79182797  0.00926681  0.13395911  1
  O2-  O236  1  0.77519621  -0.03698740  0.38328034  1
  O2-  O237  1  0.74246297  0.14522645  0.38758305  1
  O2-  O238  1  0.76819713  0.15772283  0.88730285  1
  O2-  O239  1  0.74212875  0.63961464  0.13997109  1
  O2-  O240  1  0.74881218  0.66551436  0.36323730  1
  O2-  O241  1  0.74837679  0.37799153  0.42280117  1
  O2-  O242  1  0.81619742  0.34742493  0.74487663  1
