# generated using pymatgen
data_Gd19Ta56(WO20)8
_symmetry_space_group_name_H-M   'P 1'
_cell_length_a   15.52807879
_cell_length_b   15.48419143
_cell_length_c   15.37356263
_cell_angle_alpha   90.06090373
_cell_angle_beta   89.92861679
_cell_angle_gamma   90.14046228
_symmetry_Int_Tables_number   1
_chemical_formula_structural   Gd19Ta56(WO20)8
_chemical_formula_sum   'Gd19 Ta56 W8 O160'
_cell_volume   3696.39941827
_cell_formula_units_Z   1
loop_
 _symmetry_equiv_pos_site_id
 _symmetry_equiv_pos_as_xyz
  1  'x, y, z'
loop_
 _atom_type_symbol
 _atom_type_oxidation_number
  Gd3+  3.0
  Ta5+  5.0
  W6+  6.0
  O2-  -2.0
loop_
 _atom_site_type_symbol
 _atom_site_label
 _atom_site_symmetry_multiplicity
 _atom_site_fract_x
 _atom_site_fract_y
 _atom_site_fract_z
 _atom_site_occupancy
  Gd3+  Gd0  1  0.49369301  0.69920898  0.01093894  1
  Gd3+  Gd1  1  0.24895914  0.75119457  0.73938571  1
  Gd3+  Gd2  1  0.25360166  0.76655311  0.48440099  1
  Gd3+  Gd3  1  0.51630686  0.27807576  0.75824233  1
  Gd3+  Gd4  1  0.73699695  0.74412325  0.75064809  1
  Gd3+  Gd5  1  0.49204349  0.25724418  0.00669680  1
  Gd3+  Gd6  1  0.76586963  0.75391487  0.25927650  1
  Gd3+  Gd7  1  -0.00271771  0.24357860  0.00546472  1
  Gd3+  Gd8  1  -0.00094914  0.72552486  0.23571059  1
  Gd3+  Gd9  1  0.23731492  0.24109536  0.23674776  1
  Gd3+  Gd10  1  0.00171590  0.24451229  0.75018082  1
  Gd3+  Gd11  1  0.73949658  0.74862337  0.50587216  1
  Gd3+  Gd12  1  0.54422728  0.26706772  0.24291274  1
  Gd3+  Gd13  1  0.49934875  0.26041938  0.50605169  1
  Gd3+  Gd14  1  0.49774749  0.73502940  0.23567429  1
  Gd3+  Gd15  1  0.29526917  0.27144565  0.71584959  1
  Gd3+  Gd16  1  0.76912888  0.24414752  0.50729252  1
  Gd3+  Gd17  1  0.25805883  0.24454113  0.49421060  1
  Gd3+  Gd18  1  0.48473753  0.74450192  0.77624082  1
  Ta5+  Ta19  1  0.62882952  0.62669451  0.37777423  1
  Ta5+  Ta20  1  0.61857299  0.88533527  0.89893046  1
  Ta5+  Ta21  1  0.12084606  0.87596328  0.87655997  1
  Ta5+  Ta22  1  0.42940073  0.87678616  0.38794521  1
  Ta5+  Ta23  1  0.86981082  0.11075082  0.87087709  1
  Ta5+  Ta24  1  0.14205289  0.12084943  0.61738168  1
  Ta5+  Ta25  1  0.60035852  0.89431595  0.59117371  1
  Ta5+  Ta26  1  0.35142255  0.12865322  0.87875649  1
  Ta5+  Ta27  1  0.86144568  0.11176077  0.12324859  1
  Ta5+  Ta28  1  0.62830534  0.10200323  0.12469887  1
  Ta5+  Ta29  1  0.38295193  0.12270362  0.12912452  1
  Ta5+  Ta30  1  0.32766479  0.38344508  0.92131845  1
  Ta5+  Ta31  1  0.64869815  0.40723693  0.62242818  1
  Ta5+  Ta32  1  0.14853138  0.12537867  0.86971543  1
  Ta5+  Ta33  1  0.63633831  0.12993958  0.62972958  1
  Ta5+  Ta34  1  0.13687058  0.10969109  0.10906276  1
  Ta5+  Ta35  1  0.13044758  0.85904646  0.12875789  1
  Ta5+  Ta36  1  0.12212828  0.62729506  0.37682198  1
  Ta5+  Ta37  1  0.38781528  0.62921231  0.61750012  1
  Ta5+  Ta38  1  0.37785373  0.39311249  0.13927990  1
  Ta5+  Ta39  1  0.38478700  0.62971594  0.39059222  1
  Ta5+  Ta40  1  0.87651550  0.87028057  0.62869655  1
  Ta5+  Ta41  1  0.87785263  0.61815631  0.88262730  1
  Ta5+  Ta42  1  0.63292644  0.13611976  0.88174724  1
  Ta5+  Ta43  1  0.41187064  0.45407372  0.61794618  1
  Ta5+  Ta44  1  0.12690727  0.38103227  0.87726523  1
  Ta5+  Ta45  1  0.87972688  0.60655108  0.38699219  1
  Ta5+  Ta46  1  0.37206021  0.88394533  0.89462014  1
  Ta5+  Ta47  1  0.12295208  0.62884047  0.87884829  1
  Ta5+  Ta48  1  0.88181351  0.61825411  0.63111864  1
  Ta5+  Ta49  1  0.16170137  0.63069595  0.12519863  1
  Ta5+  Ta50  1  0.85788982  0.10667789  0.36539521  1
  Ta5+  Ta51  1  0.88874460  0.37132595  0.62111007  1
  Ta5+  Ta52  1  0.89096828  0.36111730  0.36528862  1
  Ta5+  Ta53  1  0.59687834  0.88100956  0.37378421  1
  Ta5+  Ta54  1  0.64792305  0.58218419  0.12822865  1
  Ta5+  Ta55  1  0.65772072  0.38508971  0.94438179  1
  Ta5+  Ta56  1  0.35880793  0.61925216  0.88721262  1
  Ta5+  Ta57  1  0.85877769  0.59910597  0.13035115  1
  Ta5+  Ta58  1  0.11731839  0.87716004  0.62097814  1
  Ta5+  Ta59  1  0.13363008  0.37901395  0.36293500  1
  Ta5+  Ta60  1  0.32573094  0.63242848  0.14390160  1
  Ta5+  Ta61  1  0.14009291  0.38122120  0.10383552  1
  Ta5+  Ta62  1  0.55789963  0.61072182  0.61530143  1
  Ta5+  Ta63  1  0.10158147  0.11585374  0.36819359  1
  Ta5+  Ta64  1  0.39849728  0.88015013  0.60502748  1
  Ta5+  Ta65  1  0.87985004  0.86423039  0.87930252  1
  Ta5+  Ta66  1  0.63337308  0.12439692  0.37011755  1
  Ta5+  Ta67  1  0.85208386  0.37219619  0.11925123  1
  Ta5+  Ta68  1  0.08762034  0.87828385  0.37642135  1
  Ta5+  Ta69  1  0.11332017  0.62054596  0.62200363  1
  Ta5+  Ta70  1  0.38185626  0.38376205  0.37904750  1
  Ta5+  Ta71  1  0.40234350  0.11215815  0.37487876  1
  Ta5+  Ta72  1  0.90459631  0.86857903  0.38901718  1
  Ta5+  Ta73  1  0.64306329  0.87525375  0.13006095  1
  Ta5+  Ta74  1  0.85999637  0.36930115  0.87261761  1
  W6+  W75  1  0.88468105  0.11324297  0.62060493  1
  W6+  W76  1  0.89649406  0.87092155  0.13172127  1
  W6+  W77  1  0.63856810  0.39046223  0.37823251  1
  W6+  W78  1  0.35565888  0.87083700  0.13988668  1
  W6+  W79  1  0.69433967  0.41701286  0.12928255  1
  W6+  W80  1  0.39636120  0.11048693  0.62621125  1
  W6+  W81  1  0.61794995  0.61128611  0.87343957  1
  W6+  W82  1  0.12036681  0.37586086  0.61952662  1
  O2-  O83  1  0.13963287  -0.00925329  0.12335321  1
  O2-  O84  1  0.13966661  0.00333641  0.36477793  1
  O2-  O85  1  0.12314724  -0.00062881  0.62549495  1
  O2-  O86  1  0.13992359  0.00045172  0.86672638  1
  O2-  O87  1  0.14292010  0.50144877  0.12074614  1
  O2-  O88  1  0.12955043  0.49721778  0.36882024  1
  O2-  O89  1  0.08674220  0.50672054  0.61787187  1
  O2-  O90  1  0.13069480  0.50466275  0.87457509  1
  O2-  O91  1  0.37859943  0.00558418  0.13772096  1
  O2-  O92  1  0.37833821  -0.00433460  0.36570954  1
  O2-  O93  1  0.37007263  -0.01784383  0.65886263  1
  O2-  O94  1  0.34999339  0.00795092  0.87026192  1
  O2-  O95  1  0.35345182  0.50961972  0.15647897  1
  O2-  O96  1  0.37853248  0.50407937  0.36845559  1
  O2-  O97  1  0.30910516  0.51462028  0.63218978  1
  O2-  O98  1  0.34273792  0.49227833  0.87196381  1
  O2-  O99  1  0.58606978  -0.01201423  0.12171247  1
  O2-  O100  1  0.62804212  0.00313316  0.35987143  1
  O2-  O101  1  0.62803527  0.00477254  0.63930935  1
  O2-  O102  1  0.62010343  0.01599020  0.89141611  1
  O2-  O103  1  0.56770347  0.49551562  0.13533638  1
  O2-  O104  1  0.67769257  0.51872218  0.37988326  1
  O2-  O105  1  0.66686373  0.52382150  0.62027535  1
  O2-  O106  1  0.60524410  0.47533969  0.89010166  1
  O2-  O107  1  0.92031057  0.00854576  0.13277349  1
  O2-  O108  1  0.85405395  -0.01456601  0.36828709  1
  O2-  O109  1  0.84443543  -0.01637708  0.63264739  1
  O2-  O110  1  0.85518924  -0.01200344  0.86617724  1
  O2-  O111  1  0.90681095  0.48315641  0.11304673  1
  O2-  O112  1  0.87093292  0.48353496  0.38161683  1
  O2-  O113  1  0.89241047  0.49631462  0.62878295  1
  O2-  O114  1  0.87353343  0.49184469  0.87110994  1
  O2-  O115  1  0.12090054  0.24945598  0.09765353  1
  O2-  O116  1  0.17563278  0.21945444  0.36909850  1
  O2-  O117  1  0.17514356  0.24899163  0.63082874  1
  O2-  O118  1  0.09889264  0.24441685  0.88128687  1
  O2-  O119  1  0.08487134  0.74313541  0.11734653  1
  O2-  O120  1  0.11614540  0.75650663  0.38488862  1
  O2-  O121  1  0.16687988  0.75461657  0.61602693  1
  O2-  O122  1  0.16277136  0.75458125  0.86417083  1
  O2-  O123  1  0.38842674  0.26148617  0.11586593  1
  O2-  O124  1  0.37999379  0.24779493  0.40031718  1
  O2-  O125  1  0.37519543  0.23989455  0.59342504  1
  O2-  O126  1  0.38569449  0.27295060  0.89161659  1
  O2-  O127  1  0.39671496  0.74247702  0.12090443  1
  O2-  O128  1  0.39547144  0.75706631  0.41442501  1
  O2-  O129  1  0.35128550  0.76214765  0.61547182  1
  O2-  O130  1  0.39422991  0.75111090  0.90528091  1
  O2-  O131  1  0.50901780  0.15335851  0.14093571  1
  O2-  O132  1  0.59531040  0.25642328  0.38422687  1
  O2-  O133  1  0.58603617  0.24839827  0.62649450  1
  O2-  O134  1  0.58803496  0.26655875  0.88702569  1
  O2-  O135  1  0.56696481  0.78249996  0.10347741  1
  O2-  O136  1  0.66268082  0.75744690  0.37294074  1
  O2-  O137  1  0.67987151  0.81116800  0.63362254  1
  O2-  O138  1  0.58690672  0.75746821  0.88959022  1
  O2-  O139  1  0.89381567  0.23610959  0.11814539  1
  O2-  O140  1  0.83955977  0.24452597  0.37354361  1
  O2-  O141  1  0.92315668  0.24797007  0.61973739  1
  O2-  O142  1  0.91480970  0.24245547  0.87219969  1
  O2-  O143  1  0.87332770  0.72812500  0.14131460  1
  O2-  O144  1  0.84612726  0.73706310  0.38529553  1
  O2-  O145  1  0.83150568  0.74046560  0.62986066  1
  O2-  O146  1  0.83575445  0.74210642  0.87533665  1
  O2-  O147  1  0.08312962  0.11413297  -0.00542098  1
  O2-  O148  1  0.11744195  0.13616972  0.23397498  1
  O2-  O149  1  0.09992246  0.13297794  0.49893172  1
  O2-  O150  1  0.09906843  0.13214387  0.74099920  1
  O2-  O151  1  0.15184271  0.63598795  -0.00524539  1
  O2-  O152  1  0.12386067  0.63773616  0.25196913  1
  O2-  O153  1  0.15201494  0.63034902  0.50413737  1
  O2-  O154  1  0.15233730  0.63091923  0.74304959  1
  O2-  O155  1  0.41085488  0.12983674  -0.00606792  1
  O2-  O156  1  0.35538110  0.15012779  0.25309483  1
  O2-  O157  1  0.43816161  0.10988693  0.49466643  1
  O2-  O158  1  0.40953200  0.15873433  0.76699394  1
  O2-  O159  1  0.34496801  0.61807170  0.01055977  1
  O2-  O160  1  0.35123795  0.65605508  0.27096987  1
  O2-  O161  1  0.32454210  0.63106070  0.50012330  1
  O2-  O162  1  0.36077681  0.65406832  0.75663701  1
  O2-  O163  1  0.60766999  0.15084809  0.00742189  1
  O2-  O164  1  0.65280920  0.15340983  0.23512252  1
  O2-  O165  1  0.63737717  0.13035975  0.50061988  1
  O2-  O166  1  0.60339240  0.14406502  0.76054307  1
  O2-  O167  1  0.62375220  0.62074067  0.01258875  1
  O2-  O168  1  0.64040806  0.65261202  0.24178054  1
  O2-  O169  1  0.61626219  0.65106258  0.50591583  1
  O2-  O170  1  0.60483990  0.65812453  0.73394177  1
  O2-  O171  1  0.90069391  0.11866355  -0.00942758  1
  O2-  O172  1  0.83301533  0.11988158  0.24362366  1
  O2-  O173  1  0.84029599  0.12013618  0.49052025  1
  O2-  O174  1  0.91662335  0.11797936  0.75717538  1
  O2-  O175  1  0.85269368  0.61420832  0.00086595  1
  O2-  O176  1  0.89668213  0.61273890  0.25953470  1
  O2-  O177  1  0.83622681  0.61908253  0.51296013  1
  O2-  O178  1  0.83895714  0.62235554  0.75157423  1
  O2-  O179  1  0.06499183  0.37899989  -0.00586828  1
  O2-  O180  1  0.11999417  0.35547805  0.23567907  1
  O2-  O181  1  0.15873321  0.35404722  0.48400427  1
  O2-  O182  1  0.08190284  0.37161415  0.76208703  1
  O2-  O183  1  0.12682396  0.86886977  -0.00363911  1
  O2-  O184  1  0.09065440  0.86311620  0.24833135  1
  O2-  O185  1  0.15105005  0.87716482  0.50119594  1
  O2-  O186  1  0.15627200  0.87178414  0.74293682  1
  O2-  O187  1  0.41646264  0.39715149  0.01505856  1
  O2-  O188  1  0.42548478  0.36394734  0.25378543  1
  O2-  O189  1  0.40960780  0.38885173  0.50293907  1
  O2-  O190  1  0.40754352  0.36852188  0.71194507  1
  O2-  O191  1  0.32358726  0.88161946  0.00470122  1
  O2-  O192  1  0.41325297  0.85139153  0.26404888  1
  O2-  O193  1  0.33445187  0.89007505  0.49840581  1
  O2-  O194  1  0.35485989  0.84707061  0.77437165  1
  O2-  O195  1  0.61237059  0.33121397  0.04850409  1
  O2-  O196  1  0.64954900  0.36172942  0.24791486  1
  O2-  O197  1  0.59569048  0.38275953  0.51374589  1
  O2-  O198  1  0.59512019  0.39070482  0.72755825  1
  O2-  O199  1  0.67703378  0.88160822  0.00402667  1
  O2-  O200  1  0.60047749  0.85408811  0.24924801  1
  O2-  O201  1  0.66650552  0.88728762  0.48603815  1
  O2-  O202  1  0.69692767  0.87282543  0.81055103  1
  O2-  O203  1  0.88790021  0.35031616  -0.00640737  1
  O2-  O204  1  0.87534638  0.36504053  0.24289040  1
  O2-  O205  1  0.86613718  0.35961762  0.49744617  1
  O2-  O206  1  0.89836756  0.36131972  0.75216830  1
  O2-  O207  1  0.87567310  0.86974808  -0.00228552  1
  O2-  O208  1  0.90515377  0.84315568  0.26577684  1
  O2-  O209  1  0.84551365  0.85420923  0.50756237  1
  O2-  O210  1  0.85502218  0.84838882  0.74994804  1
  O2-  O211  1  0.00107481  -0.14048399  -0.14197731  1
  O2-  O212  1  -0.01767334  0.12176533  0.35949148  1
  O2-  O213  1  -0.00299416  -0.07577396  0.45076803  1
  O2-  O214  1  -0.00180071  -0.14141093  0.62900481  1
  O2-  O215  1  -0.00200290  0.63964922  -0.12922610  1
  O2-  O216  1  0.01123161  0.34805951  0.37555969  1
  O2-  O217  1  -0.00120920  0.62639259  0.40324819  1
  O2-  O218  1  -0.00410547  0.66303351  0.63039752  1
  O2-  O219  1  0.24379998  0.13939368  -0.05056178  1
  O2-  O220  1  0.25536456  0.13813404  0.11733826  1
  O2-  O221  1  0.25766238  0.11321537  0.58099714  1
  O2-  O222  1  0.24975887  0.15482070  0.79486413  1
  O2-  O223  1  0.22473092  0.38195983  -0.01071276  1
  O2-  O224  1  0.25913849  0.36164329  0.14948423  1
  O2-  O225  1  0.26196447  0.36142255  0.34012370  1
  O2-  O226  1  0.24137843  0.35002967  0.82893799  1
  O2-  O227  1  0.49287693  -0.10006754  -0.10428019  1
  O2-  O228  1  0.51178355  0.13092362  0.32242400  1
  O2-  O229  1  0.49379489  -0.09154643  0.51599113  1
  O2-  O230  1  0.50861798  -0.14992856  0.67335317  1
  O2-  O231  1  0.48154595  0.61047790  -0.12013785  1
  O2-  O232  1  0.50740675  0.63729729  0.35820938  1
  O2-  O233  1  0.47280871  0.54811621  0.53405567  1
  O2-  O234  1  0.47451956  0.53896294  0.69423707  1
  O2-  O235  1  0.74633486  0.08444678  0.08725533  1
  O2-  O236  1  0.75772881  -0.12919287  0.17004384  1
  O2-  O237  1  0.75077669  0.16206351  0.63907133  1
  O2-  O238  1  0.75297975  0.14720012  0.87308977  1
  O2-  O239  1  0.74782906  0.44660286  -0.00106508  1
  O2-  O240  1  0.75876334  0.54354024  0.18674378  1
  O2-  O241  1  0.75910559  0.35157618  0.63140575  1
  O2-  O242  1  0.74461283  0.33979192  0.85826744  1
