# generated using pymatgen
data_Gd19Ta56(WO20)8
_symmetry_space_group_name_H-M   'P 1'
_cell_length_a   15.49608780
_cell_length_b   15.48316571
_cell_length_c   15.36696442
_cell_angle_alpha   89.91838985
_cell_angle_beta   90.06310966
_cell_angle_gamma   89.84837818
_symmetry_Int_Tables_number   1
_chemical_formula_structural   Gd19Ta56(WO20)8
_chemical_formula_sum   'Gd19 Ta56 W8 O160'
_cell_volume   3686.95374900
_cell_formula_units_Z   1
loop_
 _symmetry_equiv_pos_site_id
 _symmetry_equiv_pos_as_xyz
  1  'x, y, z'
loop_
 _atom_type_symbol
 _atom_type_oxidation_number
  Gd3+  3.0
  Ta5+  5.0
  W6+  6.0
  O2-  -2.0
loop_
 _atom_site_type_symbol
 _atom_site_label
 _atom_site_symmetry_multiplicity
 _atom_site_fract_x
 _atom_site_fract_y
 _atom_site_fract_z
 _atom_site_occupancy
  Gd3+  Gd0  1  0.74676353  0.26967072  0.49974071  1
  Gd3+  Gd1  1  0.01139325  0.25074642  -0.01240127  1
  Gd3+  Gd2  1  0.74375974  0.74202800  0.51950312  1
  Gd3+  Gd3  1  0.25299580  0.74413329  0.50257293  1
  Gd3+  Gd4  1  0.50248811  0.74045741  0.02519869  1
  Gd3+  Gd5  1  -0.00136480  0.24655816  0.72921633  1
  Gd3+  Gd6  1  0.73164394  0.74827958  0.24675240  1
  Gd3+  Gd7  1  0.26269349  0.73622179  0.01230003  1
  Gd3+  Gd8  1  -0.01831974  0.76371815  0.19462680  1
  Gd3+  Gd9  1  0.52041383  0.23678334  0.51442454  1
  Gd3+  Gd10  1  0.73476668  0.24745030  -0.00692169  1
  Gd3+  Gd11  1  -0.03067803  0.76408835  0.76243317  1
  Gd3+  Gd12  1  0.25924279  0.77197257  0.75321088  1
  Gd3+  Gd13  1  0.48770538  0.75064789  0.74321707  1
  Gd3+  Gd14  1  0.73390910  0.76100423  0.01016627  1
  Gd3+  Gd15  1  0.47768605  0.74268680  0.25090190  1
  Gd3+  Gd16  1  0.73925838  0.75605100  0.76067073  1
  Gd3+  Gd17  1  0.27157553  0.24526853  0.23104337  1
  Gd3+  Gd18  1  0.73180824  0.26509260  0.23651888  1
  Ta5+  Ta19  1  0.13571397  0.36759813  0.85672466  1
  Ta5+  Ta20  1  0.86193243  0.60871406  0.11209348  1
  Ta5+  Ta21  1  0.88370885  0.12149913  0.86737458  1
  Ta5+  Ta22  1  0.89733016  0.88601757  0.94339315  1
  Ta5+  Ta23  1  0.63637207  0.11521880  0.86069960  1
  Ta5+  Ta24  1  0.62570065  0.37371576  0.64402755  1
  Ta5+  Ta25  1  0.88033244  0.14406300  0.12834443  1
  Ta5+  Ta26  1  0.84784527  0.11895482  0.62037310  1
  Ta5+  Ta27  1  0.41657335  0.61143198  0.62064470  1
  Ta5+  Ta28  1  0.61822572  0.61646153  0.87807465  1
  Ta5+  Ta29  1  0.37612077  0.36466912  0.87818196  1
  Ta5+  Ta30  1  0.11843526  0.87916215  0.37060948  1
  Ta5+  Ta31  1  0.10620369  0.62991512  0.62428374  1
  Ta5+  Ta32  1  0.15540928  0.88287386  0.13269612  1
  Ta5+  Ta33  1  0.36055491  0.88181051  0.13622811  1
  Ta5+  Ta34  1  0.14141304  0.13121277  0.37134550  1
  Ta5+  Ta35  1  0.57948954  0.36194451  0.11176428  1
  Ta5+  Ta36  1  0.10886218  0.61777048  0.10618306  1
  Ta5+  Ta37  1  0.41018954  0.35848706  0.11857255  1
  Ta5+  Ta38  1  0.87552868  0.61195631  0.64069348  1
  Ta5+  Ta39  1  0.85487790  0.40708424  0.10717912  1
  Ta5+  Ta40  1  0.37611637  0.88134473  0.38587602  1
  Ta5+  Ta41  1  0.87865725  0.38461045  0.35808257  1
  Ta5+  Ta42  1  0.87859262  0.88127118  0.38840606  1
  Ta5+  Ta43  1  0.58711927  0.61799544  0.62659350  1
  Ta5+  Ta44  1  0.41889278  0.88506065  0.88254093  1
  Ta5+  Ta45  1  0.60641912  0.11494247  0.11739546  1
  Ta5+  Ta46  1  0.61162481  0.61639546  0.39088080  1
  Ta5+  Ta47  1  0.13100615  0.38030826  0.60850826  1
  Ta5+  Ta48  1  0.11521548  0.63236553  0.36086594  1
  Ta5+  Ta49  1  0.12530604  0.12705630  0.11685632  1
  Ta5+  Ta50  1  0.15610718  0.61270802  0.86208585  1
  Ta5+  Ta51  1  0.37095577  0.61239471  0.86931887  1
  Ta5+  Ta52  1  0.58915392  0.87795290  0.88249156  1
  Ta5+  Ta53  1  0.36397145  0.60554870  0.13213046  1
  Ta5+  Ta54  1  0.61563936  0.38522566  0.36963558  1
  Ta5+  Ta55  1  0.63122338  0.36823690  0.86173541  1
  Ta5+  Ta56  1  0.37250015  0.36876006  0.62829861  1
  Ta5+  Ta57  1  0.12993961  0.11707077  0.85738887  1
  Ta5+  Ta58  1  0.60874704  0.88483931  0.63160568  1
  Ta5+  Ta59  1  0.35958059  0.12726555  0.38441088  1
  Ta5+  Ta60  1  0.12385211  0.12294740  0.60107294  1
  Ta5+  Ta61  1  0.36292360  0.14171668  0.63870270  1
  Ta5+  Ta62  1  0.88455437  0.38545843  0.87115591  1
  Ta5+  Ta63  1  0.82761359  0.12591369  0.37364481  1
  Ta5+  Ta64  1  0.38030816  0.36964884  0.37586517  1
  Ta5+  Ta65  1  0.37565093  0.60799973  0.38889930  1
  Ta5+  Ta66  1  0.61283163  0.87658484  0.39079375  1
  Ta5+  Ta67  1  0.87804650  0.62768815  0.37871051  1
  Ta5+  Ta68  1  0.67766297  0.10395362  0.62304250  1
  Ta5+  Ta69  1  0.11728313  0.87775261  0.88686393  1
  Ta5+  Ta70  1  0.83067725  0.93833917  0.62170964  1
  Ta5+  Ta71  1  0.36916076  0.89946297  0.62898005  1
  Ta5+  Ta72  1  0.60438545  0.91102073  0.13838461  1
  Ta5+  Ta73  1  0.86949335  0.37648767  0.62105955  1
  Ta5+  Ta74  1  0.62292704  0.60425004  0.13511029  1
  W6+  W75  1  0.85137492  0.56302214  0.90104098  1
  W6+  W76  1  0.14798600  0.37104219  0.11086739  1
  W6+  W77  1  0.40538068  0.13155574  0.88744774  1
  W6+  W78  1  0.66344186  0.11986364  0.37041986  1
  W6+  W79  1  0.12143440  0.87413161  0.62194190  1
  W6+  W80  1  0.84063716  0.89628381  0.13394154  1
  W6+  W81  1  0.13582782  0.38309242  0.36489705  1
  W6+  W82  1  0.44182787  0.11482992  0.13641385  1
  O2-  O83  1  0.13150244  0.00655468  0.13282291  1
  O2-  O84  1  0.14375393  -0.00400834  0.36363467  1
  O2-  O85  1  0.12067311  0.00532692  0.60979424  1
  O2-  O86  1  0.14836325  -0.00815885  0.85158918  1
  O2-  O87  1  0.10560313  0.50070862  0.11366021  1
  O2-  O88  1  0.15646020  0.52218492  0.35598856  1
  O2-  O89  1  0.13049458  0.51245417  0.63877932  1
  O2-  O90  1  0.14408539  0.49585152  0.85186847  1
  O2-  O91  1  0.37578610  -0.00143236  0.12282440  1
  O2-  O92  1  0.34128521  -0.00126671  0.39078053  1
  O2-  O93  1  0.38643963  0.01908136  0.62401092  1
  O2-  O94  1  0.38995920  0.00028291  0.88786116  1
  O2-  O95  1  0.38681698  0.48882625  0.12275238  1
  O2-  O96  1  0.34330953  0.49020668  0.38987134  1
  O2-  O97  1  0.39994101  0.48536616  0.61967486  1
  O2-  O98  1  0.39674533  0.49227479  0.87657400  1
  O2-  O99  1  0.66228275  0.00730970  0.08434660  1
  O2-  O100  1  0.65498496  -0.01699724  0.36916416  1
  O2-  O101  1  0.59475301  0.00255581  0.61624742  1
  O2-  O102  1  0.59572972  0.00104305  0.88116264  1
  O2-  O103  1  0.59644510  0.48821359  0.12263789  1
  O2-  O104  1  0.65854060  0.50324989  0.37227329  1
  O2-  O105  1  0.60157041  0.49683812  0.63455422  1
  O2-  O106  1  0.62927076  0.49742286  0.86797983  1
  O2-  O107  1  0.86308264  0.02824392  0.12563855  1
  O2-  O108  1  0.85643817  -0.00055343  0.37853900  1
  O2-  O109  1  0.92779996  0.00690356  0.60788971  1
  O2-  O110  1  0.91061463  -0.00165857  0.89436088  1
  O2-  O111  1  0.91385568  0.50377474  0.16062455  1
  O2-  O112  1  0.85022793  0.50924578  0.36777688  1
  O2-  O113  1  0.91030846  0.49825876  0.62350583  1
  O2-  O114  1  0.95310962  0.48575182  0.87057444  1
  O2-  O115  1  0.18711602  0.23506246  0.10345897  1
  O2-  O116  1  0.15030976  0.25038944  0.38317386  1
  O2-  O117  1  0.09430986  0.25766250  0.60997028  1
  O2-  O118  1  0.10616895  0.24372218  0.85642322  1
  O2-  O119  1  0.13161033  0.75887472  0.10869544  1
  O2-  O120  1  0.16425427  0.74948123  0.36618923  1
  O2-  O121  1  0.17356323  0.73593721  0.63368544  1
  O2-  O122  1  0.18382254  0.76849222  0.88633967  1
  O2-  O123  1  0.38703611  0.23645379  0.13251360  1
  O2-  O124  1  0.32881720  0.25150078  0.37926265  1
  O2-  O125  1  0.43433336  0.24884810  0.63719634  1
  O2-  O126  1  0.43633714  0.26106561  0.87152417  1
  O2-  O127  1  0.35808665  0.74593331  0.14124821  1
  O2-  O128  1  0.35129529  0.75224963  0.38348527  1
  O2-  O129  1  0.36595412  0.73930995  0.64226395  1
  O2-  O130  1  0.36956272  0.74914219  0.86044606  1
  O2-  O131  1  0.64261460  0.24740712  0.11432547  1
  O2-  O132  1  0.64817012  0.26062532  0.37901011  1
  O2-  O133  1  0.64742473  0.24636131  0.62384614  1
  O2-  O134  1  0.64761544  0.24554063  0.85808393  1
  O2-  O135  1  0.63889857  0.74129454  0.12522320  1
  O2-  O136  1  0.65769260  0.74787863  0.39274031  1
  O2-  O137  1  0.61654490  0.74998874  0.63144647  1
  O2-  O138  1  0.65115259  0.75136299  0.88499253  1
  O2-  O139  1  0.82405314  0.26853861  0.11706250  1
  O2-  O140  1  0.82657125  0.26635261  0.36725369  1
  O2-  O141  1  0.86947627  0.25094238  0.62537816  1
  O2-  O142  1  0.92139875  0.25092675  0.86498374  1
  O2-  O143  1  0.83068768  0.75101614  0.13241147  1
  O2-  O144  1  0.82955956  0.75071969  0.38373202  1
  O2-  O145  1  0.76224135  0.65986750  0.64707303  1
  O2-  O146  1  0.84065605  0.80411321  0.86668435  1
  O2-  O147  1  0.10975097  0.12087955  -0.01670389  1
  O2-  O148  1  0.14904825  0.13943680  0.24533657  1
  O2-  O149  1  0.08102681  0.12281801  0.48473282  1
  O2-  O150  1  0.10105186  0.12990150  0.73213724  1
  O2-  O151  1  0.10713710  0.63513153  -0.02086826  1
  O2-  O152  1  0.08865362  0.64624034  0.23804399  1
  O2-  O153  1  0.13547813  0.63822318  0.50237597  1
  O2-  O154  1  0.08549186  0.65500416  0.76269509  1
  O2-  O155  1  0.45220691  0.12338336  0.00400932  1
  O2-  O156  1  0.39538285  0.12630517  0.26950745  1
  O2-  O157  1  0.40772466  0.14286811  0.50378537  1
  O2-  O158  1  0.35692979  0.13829067  0.75890586  1
  O2-  O159  1  0.39000941  0.64291353  0.00938331  1
  O2-  O160  1  0.37158852  0.61730687  0.25978510  1
  O2-  O161  1  0.34247713  0.62334769  0.50926347  1
  O2-  O162  1  0.42379420  0.61535924  0.74865410  1
  O2-  O163  1  0.63479914  0.14165566  -0.00901973  1
  O2-  O164  1  0.66373771  0.13005246  0.22979370  1
  O2-  O165  1  0.63405572  0.13708975  0.50550804  1
  O2-  O166  1  0.62323554  0.11608129  0.73939148  1
  O2-  O167  1  0.63666459  0.62306482  0.00841300  1
  O2-  O168  1  0.61177075  0.64258035  0.26337016  1
  O2-  O169  1  0.64698074  0.62266049  0.50969907  1
  O2-  O170  1  0.61530616  0.64263396  0.75391340  1
  O2-  O171  1  0.87800596  0.15781472  -0.00384394  1
  O2-  O172  1  0.86627036  0.15270108  0.25329091  1
  O2-  O173  1  0.85699594  0.15338687  0.49157970  1
  O2-  O174  1  0.90938023  0.12548810  0.74490854  1
  O2-  O175  1  0.83447367  0.65626632  -0.00583715  1
  O2-  O176  1  0.88632701  0.65269932  0.25396526  1
  O2-  O177  1  0.85391650  0.63443852  0.50693934  1
  O2-  O178  1  0.88681409  0.63559745  0.76542143  1
  O2-  O179  1  0.10664932  0.36553508  -0.02282418  1
  O2-  O180  1  0.18216306  0.35899438  0.24072928  1
  O2-  O181  1  0.09262270  0.40282471  0.49772399  1
  O2-  O182  1  0.09322995  0.37018387  0.73521751  1
  O2-  O183  1  0.11149019  0.89903678  0.00398209  1
  O2-  O184  1  0.08392900  0.86070489  0.24533160  1
  O2-  O185  1  0.16007731  0.86309256  0.48742521  1
  O2-  O186  1  0.09596563  0.84740449  0.75426282  1
  O2-  O187  1  0.36218808  0.36162108  0.00125313  1
  O2-  O188  1  0.37199032  0.36140856  0.24899440  1
  O2-  O189  1  0.40935566  0.34640021  0.50213469  1
  O2-  O190  1  0.34834227  0.36577722  0.75067054  1
  O2-  O191  1  0.40048435  0.84462595  0.00254625  1
  O2-  O192  1  0.40243321  0.87335663  0.26579514  1
  O2-  O193  1  0.33985565  0.86767167  0.51058367  1
  O2-  O194  1  0.39300660  0.87382506  0.75462414  1
  O2-  O195  1  0.60154986  0.36011120  -0.01540634  1
  O2-  O196  1  0.62064310  0.36693613  0.24270107  1
  O2-  O197  1  0.62031589  0.36851857  0.50494961  1
  O2-  O198  1  0.56623143  0.36521971  0.75211626  1
  O2-  O199  1  0.60356503  0.86553363  0.01395505  1
  O2-  O200  1  0.58871024  0.84104470  0.27151015  1
  O2-  O201  1  0.65582661  0.86679735  0.51227995  1
  O2-  O202  1  0.63785384  0.87073553  0.75628487  1
  O2-  O203  1  0.90813816  0.35710462  0.00252579  1
  O2-  O204  1  0.83131446  0.38174914  0.23969942  1
  O2-  O205  1  0.85996906  0.37681591  0.49007303  1
  O2-  O206  1  0.89927732  0.36894808  0.74504035  1
  O2-  O207  1  0.78965274  0.89689027  0.00251202  1
  O2-  O208  1  0.88717321  0.85935008  0.26459842  1
  O2-  O209  1  0.83808800  0.86595007  0.50873178  1
  O2-  O210  1  0.84919190  0.83143206  0.68823321  1
  O2-  O211  1  -0.05025216  -0.14058204  0.05398594  1
  O2-  O212  1  0.00579227  0.16450102  0.12457401  1
  O2-  O213  1  0.00032126  -0.12555666  0.40679866  1
  O2-  O214  1  0.00216494  -0.17405603  0.88983385  1
  O2-  O215  1  -0.01734261  0.65114974  0.10078336  1
  O2-  O216  1  -0.00687745  0.38014182  0.34352477  1
  O2-  O217  1  -0.00254875  0.62698347  0.39718266  1
  O2-  O218  1  -0.01249604  0.67159097  0.62005096  1
  O2-  O219  1  0.25827681  -0.12461050  0.05629661  1
  O2-  O220  1  0.25018363  -0.11591805  0.21375019  1
  O2-  O221  1  0.24580707  0.15037478  0.60292906  1
  O2-  O222  1  0.25155225  -0.10807279  0.66316995  1
  O2-  O223  1  0.26101817  0.60580519  -0.06384512  1
  O2-  O224  1  0.23967542  0.61828204  0.11722415  1
  O2-  O225  1  0.25057396  0.36414319  0.59982368  1
  O2-  O226  1  0.25914630  0.62832593  0.78244272  1
  O2-  O227  1  0.49235602  -0.15740942  0.13574237  1
  O2-  O228  1  0.53686391  0.00946593  0.17969691  1
  O2-  O229  1  0.49396759  -0.11434005  0.42165444  1
  O2-  O230  1  0.48973450  -0.13965351  0.61722538  1
  O2-  O231  1  0.49650488  0.64066129  0.13988220  1
  O2-  O232  1  0.49816072  0.40436320  0.36417782  1
  O2-  O233  1  0.49284733  0.65845818  0.39336264  1
  O2-  O234  1  0.49977878  0.64642197  0.89176457  1
  O2-  O235  1  0.76344852  0.11429663  -0.13152782  1
  O2-  O236  1  0.71607103  -0.11527226  0.18954039  1
  O2-  O237  1  0.76182503  0.02589999  0.54833162  1
  O2-  O238  1  0.77490686  0.02249791  0.70286601  1
  O2-  O239  1  0.81666209  0.50443514  0.03336733  1
  O2-  O240  1  0.74528837  0.60259961  0.16603333  1
  O2-  O241  1  0.74969398  0.39266522  0.63400160  1
  O2-  O242  1  0.76094558  0.36645137  0.88994170  1
