# generated using pymatgen
data_Gd19Ta56(WO20)8
_symmetry_space_group_name_H-M   'P 1'
_cell_length_a   15.52163498
_cell_length_b   15.39409586
_cell_length_c   15.19158950
_cell_angle_alpha   90.25201350
_cell_angle_beta   89.90734830
_cell_angle_gamma   89.78121068
_symmetry_Int_Tables_number   1
_chemical_formula_structural   Gd19Ta56(WO20)8
_chemical_formula_sum   'Gd19 Ta56 W8 O160'
_cell_volume   3629.83531835
_cell_formula_units_Z   1
loop_
 _symmetry_equiv_pos_site_id
 _symmetry_equiv_pos_as_xyz
  1  'x, y, z'
loop_
 _atom_type_symbol
 _atom_type_oxidation_number
  Gd3+  3.0
  Ta5+  5.0
  W6+  6.0
  O2-  -2.0
loop_
 _atom_site_type_symbol
 _atom_site_label
 _atom_site_symmetry_multiplicity
 _atom_site_fract_x
 _atom_site_fract_y
 _atom_site_fract_z
 _atom_site_occupancy
  Gd3+  Gd0  1  0.28616278  0.74469031  0.24038347  1
  Gd3+  Gd1  1  0.02611302  0.24616065  0.26130359  1
  Gd3+  Gd2  1  0.50103058  0.75355383  0.00876141  1
  Gd3+  Gd3  1  0.50661876  0.75835064  0.24986519  1
  Gd3+  Gd4  1  0.75276787  0.22944009  0.74510602  1
  Gd3+  Gd5  1  0.48119295  0.75544110  0.50176141  1
  Gd3+  Gd6  1  0.81651646  0.73690696  0.72255859  1
  Gd3+  Gd7  1  0.73687099  0.75378946  0.50612558  1
  Gd3+  Gd8  1  0.25264233  0.75152467  0.01466453  1
  Gd3+  Gd9  1  0.44672136  0.76029996  0.75714704  1
  Gd3+  Gd10  1  0.24414703  0.25052622  -0.05211865  1
  Gd3+  Gd11  1  0.01304905  0.74771979  0.25551497  1
  Gd3+  Gd12  1  -0.00565749  0.74863579  0.50810173  1
  Gd3+  Gd13  1  0.78486590  0.28588896  0.22166495  1
  Gd3+  Gd14  1  0.76975386  0.75183049  0.23641452  1
  Gd3+  Gd15  1  0.48329314  0.26313267  0.50369837  1
  Gd3+  Gd16  1  0.04700958  0.22634244  0.52380959  1
  Gd3+  Gd17  1  0.01130252  0.73992448  -0.00815527  1
  Gd3+  Gd18  1  0.71260471  0.39699546  0.58381826  1
  Ta5+  Ta19  1  0.60195551  0.37199588  0.10659130  1
  Ta5+  Ta20  1  0.14745837  0.61284611  0.39228642  1
  Ta5+  Ta21  1  0.15491384  0.37195032  0.64040798  1
  Ta5+  Ta22  1  0.36101001  0.35371963  0.12664486  1
  Ta5+  Ta23  1  0.30764343  0.89055050  0.86391746  1
  Ta5+  Ta24  1  0.61175829  0.89170767  0.63176232  1
  Ta5+  Ta25  1  0.32332250  0.36230819  0.63240632  1
  Ta5+  Ta26  1  0.61657350  0.12627820  0.88848401  1
  Ta5+  Ta27  1  0.88569082  0.12671770  0.88742181  1
  Ta5+  Ta28  1  0.14755228  0.88271227  0.40325248  1
  Ta5+  Ta29  1  0.09787818  0.88477130  0.65163463  1
  Ta5+  Ta30  1  0.08587396  0.38163463  0.87766406  1
  Ta5+  Ta31  1  0.91149698  0.37284637  0.41040983  1
  Ta5+  Ta32  1  0.63152568  0.61755925  0.12329561  1
  Ta5+  Ta33  1  0.90208845  0.60525879  0.85030589  1
  Ta5+  Ta34  1  0.14124135  0.87680475  0.88087885  1
  Ta5+  Ta35  1  0.67503984  0.14521875  0.36697336  1
  Ta5+  Ta36  1  0.65454457  0.62019640  0.86513243  1
  Ta5+  Ta37  1  0.39894849  0.11577041  0.87072244  1
  Ta5+  Ta38  1  0.32765157  0.36202553  0.37886851  1
  Ta5+  Ta39  1  0.15958440  0.36421464  0.38733049  1
  Ta5+  Ta40  1  0.35478212  0.89332734  0.38740192  1
  Ta5+  Ta41  1  0.64476685  0.61623611  0.37375801  1
  Ta5+  Ta42  1  0.16429300  0.13094729  0.12749417  1
  Ta5+  Ta43  1  0.64987306  0.89769074  0.37054105  1
  Ta5+  Ta44  1  0.12835212  0.62152322  0.63560404  1
  Ta5+  Ta45  1  0.38670753  0.60220165  0.11946267  1
  Ta5+  Ta46  1  0.14846073  0.35804312  0.12588419  1
  Ta5+  Ta47  1  0.92778110  0.54699383  0.60398624  1
  Ta5+  Ta48  1  0.12922113  0.88603326  0.14569532  1
  Ta5+  Ta49  1  0.53882533  0.10989706  0.69438587  1
  Ta5+  Ta50  1  0.92278080  0.38195183  0.60530153  1
  Ta5+  Ta51  1  0.13421454  0.60529443  0.14383883  1
  Ta5+  Ta52  1  0.86525968  0.90884476  0.60054523  1
  Ta5+  Ta53  1  0.34445031  0.14580469  0.36942654  1
  Ta5+  Ta54  1  0.15190053  0.61617597  0.87778389  1
  Ta5+  Ta55  1  0.17967013  0.13029433  0.38507574  1
  Ta5+  Ta56  1  0.36091482  0.60417826  0.62066832  1
  Ta5+  Ta57  1  0.92597683  0.38794724  0.05939094  1
  Ta5+  Ta58  1  0.87631537  0.13343923  0.36234363  1
  Ta5+  Ta59  1  0.58313196  0.92554960  0.88213383  1
  Ta5+  Ta60  1  0.18133599  0.12266493  0.65347824  1
  Ta5+  Ta61  1  0.92731709  0.07363384  0.68614232  1
  Ta5+  Ta62  1  0.63996893  0.36815627  0.36839579  1
  Ta5+  Ta63  1  0.32402856  0.87920140  0.60866474  1
  Ta5+  Ta64  1  0.85440885  0.60736089  0.37392730  1
  Ta5+  Ta65  1  0.38024085  0.90016271  0.12202003  1
  Ta5+  Ta66  1  0.63309000  0.89149033  0.11914147  1
  Ta5+  Ta67  1  0.32808705  0.14555012  0.12196355  1
  Ta5+  Ta68  1  0.88586250  0.61339086  0.10992837  1
  Ta5+  Ta69  1  0.32214688  0.61780218  0.86945676  1
  Ta5+  Ta70  1  0.86019831  0.89166157  0.36622220  1
  Ta5+  Ta71  1  0.09616111  0.12004621  0.87861279  1
  Ta5+  Ta72  1  0.88458937  0.88207533  0.10357209  1
  Ta5+  Ta73  1  0.34455760  0.13027104  0.62087495  1
  Ta5+  Ta74  1  0.93590908  0.87915831  0.84720697  1
  W6+  W75  1  0.64499071  0.14578980  0.11758615  1
  W6+  W76  1  0.59374184  0.63745459  0.63663511  1
  W6+  W77  1  0.38649148  0.37315502  0.86995388  1
  W6+  W78  1  0.35384082  0.61220897  0.38339843  1
  W6+  W79  1  0.63055678  0.36523060  0.85319266  1
  W6+  W80  1  0.91013342  0.13641231  0.09249700  1
  W6+  W81  1  0.92448094  0.36696425  0.80004108  1
  W6+  W82  1  0.54188592  0.44428000  0.69352820  1
  O2-  O83  1  0.14241593  0.00536077  0.13217785  1
  O2-  O84  1  0.15161116  0.00262825  0.39032732  1
  O2-  O85  1  0.13767017  0.00276872  0.65181369  1
  O2-  O86  1  0.10507101  -0.00244568  0.89633464  1
  O2-  O87  1  0.16696843  0.48849949  0.13833426  1
  O2-  O88  1  0.14033598  0.49192879  0.39138840  1
  O2-  O89  1  0.14039138  0.50023957  0.62017524  1
  O2-  O90  1  0.10420875  0.50373423  0.90539555  1
  O2-  O91  1  0.35906802  0.01685987  0.12329141  1
  O2-  O92  1  0.35261650  0.01264064  0.37151684  1
  O2-  O93  1  0.32009631  0.00079160  0.60560158  1
  O2-  O94  1  0.32596213  0.01796279  0.86933332  1
  O2-  O95  1  0.37019498  0.48367250  0.11736299  1
  O2-  O96  1  0.34481703  0.48102292  0.38215285  1
  O2-  O97  1  0.32535044  0.49141296  0.60883825  1
  O2-  O98  1  0.35955976  0.50424316  0.88172386  1
  O2-  O99  1  0.64441882  0.00831479  0.12212036  1
  O2-  O100  1  0.64047489  0.01988901  0.37332751  1
  O2-  O101  1  0.55699975  0.00183042  0.62326443  1
  O2-  O102  1  0.67361084  0.01462207  0.89609639  1
  O2-  O103  1  0.63962751  0.49413769  0.11669544  1
  O2-  O104  1  0.63128228  0.49559120  0.37920123  1
  O2-  O105  1  0.63385451  0.50807274  0.62253256  1
  O2-  O106  1  0.64037955  0.50482883  0.85450484  1
  O2-  O107  1  0.88648622  0.00022134  0.11080962  1
  O2-  O108  1  0.89296002  0.00902552  0.34522318  1
  O2-  O109  1  0.82776278  0.02422128  0.60932269  1
  O2-  O110  1  0.90520973  -0.00568380  0.86811711  1
  O2-  O111  1  0.85963619  0.48663630  0.09835209  1
  O2-  O112  1  0.86400586  0.48798252  0.37004585  1
  O2-  O113  1  0.82239418  0.48917112  0.60056158  1
  O2-  O114  1  0.87896237  0.48940291  0.84890647  1
  O2-  O115  1  0.08718235  0.24037455  0.12214579  1
  O2-  O116  1  0.10964055  0.24058922  0.38574970  1
  O2-  O117  1  0.13013460  0.24112974  0.65283252  1
  O2-  O118  1  0.10068560  0.25182534  0.87862990  1
  O2-  O119  1  0.12889904  0.74431513  0.16207744  1
  O2-  O120  1  0.09582966  0.75067475  0.38472368  1
  O2-  O121  1  0.06563207  0.75094800  0.63621880  1
  O2-  O122  1  0.12440008  0.74626330  0.88076923  1
  O2-  O123  1  0.25573272  0.26711164  0.11284657  1
  O2-  O124  1  0.40638455  0.25849036  0.37094294  1
  O2-  O125  1  0.38267196  0.24902025  0.64491128  1
  O2-  O126  1  0.35539682  0.23051104  0.84754459  1
  O2-  O127  1  0.40414033  0.75347308  0.12984534  1
  O2-  O128  1  0.39485102  0.75832331  0.37321739  1
  O2-  O129  1  0.37976015  0.75823433  0.61360654  1
  O2-  O130  1  0.32153780  0.75808589  0.86629866  1
  O2-  O131  1  0.68525416  0.28002904  0.10757709  1
  O2-  O132  1  0.72420966  0.27422024  0.36348765  1
  O2-  O133  1  0.55648269  0.19053170  0.61005636  1
  O2-  O134  1  0.67812229  0.23238808  0.87157047  1
  O2-  O135  1  0.60498145  0.75189050  0.13067011  1
  O2-  O136  1  0.66020704  0.75731251  0.35414687  1
  O2-  O137  1  0.71382434  0.69711595  0.63803149  1
  O2-  O138  1  0.50403893  0.82499777  0.87948447  1
  O2-  O139  1  0.87722262  0.28264512  0.09256835  1
  O2-  O140  1  0.93529475  0.23191131  0.41166591  1
  O2-  O141  1  0.94994054  0.15808824  0.60774129  1
  O2-  O142  1  0.86771870  0.24598149  0.85174722  1
  O2-  O143  1  0.90059498  0.74092371  0.11204848  1
  O2-  O144  1  0.85426313  0.75499777  0.38131467  1
  O2-  O145  1  0.86436270  0.77728073  0.58529955  1
  O2-  O146  1  0.93449984  0.74170394  0.85191991  1
  O2-  O147  1  0.16400376  0.13398840  -0.00917433  1
  O2-  O148  1  0.15290751  0.14133639  0.25566911  1
  O2-  O149  1  0.16355192  0.13252474  0.51785884  1
  O2-  O150  1  0.17762524  0.12291975  0.78606916  1
  O2-  O151  1  0.13668866  0.64620579  0.01458677  1
  O2-  O152  1  0.08721717  0.61490537  0.26575319  1
  O2-  O153  1  0.08734493  0.63087283  0.50854662  1
  O2-  O154  1  0.10706222  0.61394503  0.75833212  1
  O2-  O155  1  0.36803642  0.14403454  -0.00772647  1
  O2-  O156  1  0.35297557  0.15673001  0.24177658  1
  O2-  O157  1  0.37084135  0.14694384  0.50033339  1
  O2-  O158  1  0.41593756  0.08776080  0.72888951  1
  O2-  O159  1  0.37053030  0.64990096  -0.00555851  1
  O2-  O160  1  0.40661923  0.62821891  0.24262535  1
  O2-  O161  1  0.41640861  0.62221698  0.50797155  1
  O2-  O162  1  0.36289713  0.63716477  0.74958698  1
  O2-  O163  1  0.57948131  0.14800501  0.00155222  1
  O2-  O164  1  0.69724675  0.15393924  0.24450057  1
  O2-  O165  1  0.57367055  0.18799397  0.41022439  1
  O2-  O166  1  0.65001628  0.10827763  0.74632406  1
  O2-  O167  1  0.62837717  0.65259790  -0.01705923  1
  O2-  O168  1  0.59304834  0.62792514  0.24729874  1
  O2-  O169  1  0.59655039  0.65876408  0.48619098  1
  O2-  O170  1  0.57980000  0.66990045  0.78339379  1
  O2-  O171  1  0.81472561  0.12413595  -0.01398464  1
  O2-  O172  1  0.88585291  0.16479076  0.23825182  1
  O2-  O173  1  0.77726803  0.12382104  0.43870818  1
  O2-  O174  1  0.83121677  0.10551646  0.76262551  1
  O2-  O175  1  0.89868056  0.62274890  -0.01740314  1
  O2-  O176  1  0.89885107  0.63963471  0.25108053  1
  O2-  O177  1  0.91572732  0.61930078  0.48718847  1
  O2-  O178  1  0.90489166  0.61881528  0.71682166  1
  O2-  O179  1  0.15231211  0.36202615  -0.00310337  1
  O2-  O180  1  0.13793731  0.34869936  0.25460615  1
  O2-  O181  1  0.13728017  0.34960036  0.51234254  1
  O2-  O182  1  0.13319346  0.38890659  0.76568692  1
  O2-  O183  1  0.13968718  0.85322832  0.01291105  1
  O2-  O184  1  0.09419180  0.88120848  0.27038121  1
  O2-  O185  1  0.09044506  0.87531127  0.51734887  1
  O2-  O186  1  0.04748247  0.87837284  0.77559876  1
  O2-  O187  1  0.34807840  0.34976356  -0.00639335  1
  O2-  O188  1  0.33025135  0.35804682  0.24471942  1
  O2-  O189  1  0.35780562  0.35022356  0.50592779  1
  O2-  O190  1  0.33148855  0.38321668  0.75511687  1
  O2-  O191  1  0.35204805  0.87202985  -0.00411717  1
  O2-  O192  1  0.40018928  0.87759756  0.25220925  1
  O2-  O193  1  0.41604116  0.88918369  0.50070490  1
  O2-  O194  1  0.36048514  0.88295921  0.73744906  1
  O2-  O195  1  0.59211843  0.37415787  -0.01352570  1
  O2-  O196  1  0.62966696  0.36615682  0.24373373  1
  O2-  O197  1  0.60310941  0.35166896  0.48966810  1
  O2-  O198  1  0.64971240  0.34735056  0.71263140  1
  O2-  O199  1  0.62705757  0.86706617  -0.01094776  1
  O2-  O200  1  0.59381529  0.88132226  0.25097741  1
  O2-  O201  1  0.54942230  0.78370132  0.63987607  1
  O2-  O202  1  0.61142283  0.90043488  0.76111530  1
  O2-  O203  1  0.97031131  0.37720473  -0.05523933  1
  O2-  O204  1  0.91114580  0.34288578  0.28296218  1
  O2-  O205  1  0.83338561  0.34220071  0.50369537  1
  O2-  O206  1  0.83797986  0.33111431  0.68927724  1
  O2-  O207  1  0.90539788  0.85717994  -0.02142221  1
  O2-  O208  1  0.89733413  0.85009079  0.24395129  1
  O2-  O209  1  0.92020413  0.89585259  0.48251587  1
  O2-  O210  1  0.87065037  0.87402289  0.73541714  1
  O2-  O211  1  -0.01611002  0.13462592  -0.03641123  1
  O2-  O212  1  0.00997961  -0.13441542  0.11533569  1
  O2-  O213  1  -0.02304807  -0.04022242  0.63999845  1
  O2-  O214  1  -0.00295075  0.11224884  0.78844898  1
  O2-  O215  1  0.02197223  0.39814101  0.12720855  1
  O2-  O216  1  0.00968904  0.60032435  0.11504048  1
  O2-  O217  1  -0.02675595  0.44970543  0.50050728  1
  O2-  O218  1  -0.02819884  0.45925380  0.69830745  1
  O2-  O219  1  0.25633827  -0.14421944  0.14121903  1
  O2-  O220  1  0.24743697  -0.14682433  0.32687023  1
  O2-  O221  1  0.25814719  -0.12663449  0.48147732  1
  O2-  O222  1  0.21386269  -0.15405226  0.65173886  1
  O2-  O223  1  0.26178114  0.64244554  0.12769778  1
  O2-  O224  1  0.24223991  0.62387748  0.30273431  1
  O2-  O225  1  0.24701908  0.63479620  0.46293338  1
  O2-  O226  1  0.24259464  0.65219681  0.63511780  1
  O2-  O227  1  0.50365803  0.01926514  -0.10964974  1
  O2-  O228  1  0.50258367  -0.11003417  0.09704669  1
  O2-  O229  1  0.60459295  -0.13720394  0.49308150  1
  O2-  O230  1  0.51597522  0.16831244  0.82119273  1
  O2-  O231  1  0.50746563  0.61280996  0.08798207  1
  O2-  O232  1  0.48503059  0.34842861  0.13467395  1
  O2-  O233  1  0.47841140  0.56190651  0.66090432  1
  O2-  O234  1  0.50108621  0.38347795  0.80241420  1
  O2-  O235  1  0.75749804  -0.14517022  0.11814014  1
  O2-  O236  1  0.75172580  -0.10530136  0.29215805  1
  O2-  O237  1  0.75983363  -0.10458659  0.45009236  1
  O2-  O238  1  0.73215491  -0.11870904  0.62536523  1
  O2-  O239  1  0.75488364  0.64245906  0.11945777  1
  O2-  O240  1  0.74780574  0.61483888  0.29404398  1
  O2-  O241  1  0.75132709  0.61805986  0.45166075  1
  O2-  O242  1  0.77350687  0.64586956  0.84536466  1
