# generated using pymatgen
data_Gd19Ta56(WO20)8
_symmetry_space_group_name_H-M   'P 1'
_cell_length_a   15.55446267
_cell_length_b   15.49205941
_cell_length_c   15.23824463
_cell_angle_alpha   89.83548095
_cell_angle_beta   89.93484339
_cell_angle_gamma   90.22406557
_symmetry_Int_Tables_number   1
_chemical_formula_structural   Gd19Ta56(WO20)8
_chemical_formula_sum   'Gd19 Ta56 W8 O160'
_cell_volume   3671.92422651
_cell_formula_units_Z   1
loop_
 _symmetry_equiv_pos_site_id
 _symmetry_equiv_pos_as_xyz
  1  'x, y, z'
loop_
 _atom_type_symbol
 _atom_type_oxidation_number
  Gd3+  3.0
  Ta5+  5.0
  W6+  6.0
  O2-  -2.0
loop_
 _atom_site_type_symbol
 _atom_site_label
 _atom_site_symmetry_multiplicity
 _atom_site_fract_x
 _atom_site_fract_y
 _atom_site_fract_z
 _atom_site_occupancy
  Gd3+  Gd0  1  0.02691834  0.67837359  0.32577449  1
  Gd3+  Gd1  1  0.23281554  0.23649956  0.47625114  1
  Gd3+  Gd2  1  0.02025370  0.26371969  0.22828783  1
  Gd3+  Gd3  1  0.76157901  0.74591138  -0.00543760  1
  Gd3+  Gd4  1  0.75001764  0.28191869  0.76334930  1
  Gd3+  Gd5  1  0.75735198  0.74307707  0.24220191  1
  Gd3+  Gd6  1  0.01469687  0.24504930  0.74837164  1
  Gd3+  Gd7  1  0.50718306  0.28668442  0.49147849  1
  Gd3+  Gd8  1  0.49119756  0.26350193  0.23680276  1
  Gd3+  Gd9  1  0.25690925  0.73452156  0.25016733  1
  Gd3+  Gd10  1  0.21596880  0.74725002  0.75704430  1
  Gd3+  Gd11  1  -0.03330321  0.74488479  0.73061353  1
  Gd3+  Gd12  1  0.72795444  0.26540693  0.52600837  1
  Gd3+  Gd13  1  0.25636302  0.73748332  -0.00539253  1
  Gd3+  Gd14  1  0.51609355  0.26808438  0.72185814  1
  Gd3+  Gd15  1  0.51012030  0.76134105  0.75205106  1
  Gd3+  Gd16  1  0.24021517  0.75379170  0.50023703  1
  Gd3+  Gd17  1  0.49915166  0.74851066  0.23503007  1
  Gd3+  Gd18  1  0.76373480  0.24465635  0.25103974  1
  Ta5+  Ta19  1  0.15169393  0.90024670  0.62621646  1
  Ta5+  Ta20  1  0.87344444  0.12891092  0.10609235  1
  Ta5+  Ta21  1  0.62057736  0.62625092  0.11634741  1
  Ta5+  Ta22  1  0.62459548  0.85938310  0.39636653  1
  Ta5+  Ta23  1  0.31633797  0.90567567  0.63930826  1
  Ta5+  Ta24  1  0.33650285  0.37476434  0.12712351  1
  Ta5+  Ta25  1  0.37742043  0.12935073  0.11983480  1
  Ta5+  Ta26  1  0.61364516  0.88439421  0.88901181  1
  Ta5+  Ta27  1  0.82313011  0.62807442  0.61256674  1
  Ta5+  Ta28  1  0.40685571  0.63295330  0.39973971  1
  Ta5+  Ta29  1  0.08487249  0.61015327  0.88812859  1
  Ta5+  Ta30  1  0.89598119  0.85483520  0.37510685  1
  Ta5+  Ta31  1  0.84584572  0.38078691  0.08069833  1
  Ta5+  Ta32  1  0.61905158  0.62539925  0.63835931  1
  Ta5+  Ta33  1  0.87975596  0.10138577  0.37555448  1
  Ta5+  Ta34  1  0.38484325  0.61193100  0.11975159  1
  Ta5+  Ta35  1  0.89190641  0.87995318  0.12420707  1
  Ta5+  Ta36  1  0.14926042  0.37555872  0.86952143  1
  Ta5+  Ta37  1  0.38441568  0.13357593  0.87555129  1
  Ta5+  Ta38  1  0.60173083  0.62739344  0.89303010  1
  Ta5+  Ta39  1  0.86996601  0.87224977  0.86542747  1
  Ta5+  Ta40  1  0.19759583  0.56040402  0.38200821  1
  Ta5+  Ta41  1  0.63197709  0.09184103  0.38042884  1
  Ta5+  Ta42  1  0.38130713  0.37618594  0.87412604  1
  Ta5+  Ta43  1  0.85936565  0.59911780  0.86626870  1
  Ta5+  Ta44  1  0.85815019  0.08851292  0.61752588  1
  Ta5+  Ta45  1  0.66320308  0.86203657  0.64467274  1
  Ta5+  Ta46  1  0.89669107  0.61216600  0.11518081  1
  Ta5+  Ta47  1  0.11159215  0.87666710  0.87888840  1
  Ta5+  Ta48  1  0.13344225  0.88164303  0.11993536  1
  Ta5+  Ta49  1  0.68763599  0.07545632  0.67402251  1
  Ta5+  Ta50  1  0.32033783  0.40779532  0.36116942  1
  Ta5+  Ta51  1  0.61809069  0.88449220  0.12559055  1
  Ta5+  Ta52  1  0.17101881  0.38334653  0.12046736  1
  Ta5+  Ta53  1  0.89171894  0.40873121  0.60132833  1
  Ta5+  Ta54  1  0.57456245  0.44930706  0.35046286  1
  Ta5+  Ta55  1  0.36959410  0.88100747  0.12575204  1
  Ta5+  Ta56  1  0.10878726  0.61792472  0.10146959  1
  Ta5+  Ta57  1  0.37166989  0.40895536  0.60484513  1
  Ta5+  Ta58  1  0.09388491  0.88134917  0.38835875  1
  Ta5+  Ta59  1  0.36122427  0.11857151  0.62197584  1
  Ta5+  Ta60  1  0.37028561  0.88718628  0.87013177  1
  Ta5+  Ta61  1  0.64073754  0.38439691  0.11996439  1
  Ta5+  Ta62  1  0.36139617  0.64963505  0.64752458  1
  Ta5+  Ta63  1  0.13473317  0.13169585  0.10815313  1
  Ta5+  Ta64  1  0.15214213  0.38293957  0.35357621  1
  Ta5+  Ta65  1  0.88012969  0.37010173  0.40945557  1
  Ta5+  Ta66  1  0.38280780  0.87592397  0.38914932  1
  Ta5+  Ta67  1  0.37045433  0.62163525  0.85537929  1
  Ta5+  Ta68  1  0.13962606  0.11117727  0.61878523  1
  Ta5+  Ta69  1  0.14313565  0.12482634  0.87803244  1
  Ta5+  Ta70  1  0.82532786  0.85905614  0.60798289  1
  Ta5+  Ta71  1  0.61997618  0.63420064  0.38584394  1
  Ta5+  Ta72  1  0.13116347  0.37257869  0.61391038  1
  Ta5+  Ta73  1  0.39818219  0.10499480  0.36915857  1
  Ta5+  Ta74  1  0.62446853  0.12597020  0.13050769  1
  W6+  W75  1  0.63170165  0.13228153  0.87580949  1
  W6+  W76  1  0.91465396  0.40368212  0.84185422  1
  W6+  W77  1  0.11628074  0.11745020  0.35335540  1
  W6+  W78  1  0.63198901  0.38335392  0.90479555  1
  W6+  W79  1  0.11801178  0.62256362  0.61975918  1
  W6+  W80  1  0.87608989  0.12062228  0.84251844  1
  W6+  W81  1  0.82743417  0.59265130  0.36057227  1
  W6+  W82  1  0.64524877  0.43729144  0.64539080  1
  O2-  O83  1  0.12951794  -0.00092936  0.11570922  1
  O2-  O84  1  0.12083626  -0.01933449  0.33059838  1
  O2-  O85  1  0.07703893  0.00662293  0.62567188  1
  O2-  O86  1  0.13472233  0.00090305  0.88460488  1
  O2-  O87  1  0.15539291  0.51288311  0.12929162  1
  O2-  O88  1  0.09057662  0.50210807  0.37665597  1
  O2-  O89  1  0.10141092  0.48709537  0.61464371  1
  O2-  O90  1  0.13337428  0.50095742  0.85821266  1
  O2-  O91  1  0.37900971  0.00057115  0.13125168  1
  O2-  O92  1  0.34344299  -0.01340540  0.36287844  1
  O2-  O93  1  0.40395388  0.00647309  0.61096645  1
  O2-  O94  1  0.39453702  0.01201128  0.87764756  1
  O2-  O95  1  0.36222499  0.49644062  0.13820638  1
  O2-  O96  1  0.32846567  0.53399783  0.42022009  1
  O2-  O97  1  0.34858528  0.52379830  0.62176201  1
  O2-  O98  1  0.39360040  0.49624297  0.85414610  1
  O2-  O99  1  0.63078125  0.00138805  0.16126647  1
  O2-  O100  1  0.66753114  -0.03066384  0.36784870  1
  O2-  O101  1  0.61633597  -0.02078467  0.66310550  1
  O2-  O102  1  0.60463399  0.00179594  0.86645100  1
  O2-  O103  1  0.63023608  0.50813075  0.13529113  1
  O2-  O104  1  0.66616164  0.52663586  0.33454234  1
  O2-  O105  1  0.54836796  0.52979622  0.65775892  1
  O2-  O106  1  0.58772626  0.50842529  0.89470801  1
  O2-  O107  1  0.89615765  0.00747381  0.12848189  1
  O2-  O108  1  0.90272263  -0.01403935  0.35644686  1
  O2-  O109  1  0.88130363  -0.02932613  0.60914017  1
  O2-  O110  1  0.88974529  -0.01153933  0.86515212  1
  O2-  O111  1  0.89808904  0.48462553  0.12232743  1
  O2-  O112  1  0.81045187  0.45926469  0.37853927  1
  O2-  O113  1  0.89504609  0.52877993  0.62603541  1
  O2-  O114  1  0.80405011  0.49406527  0.84979477  1
  O2-  O115  1  0.13105887  0.25595702  0.11715413  1
  O2-  O116  1  0.12841087  0.25391146  0.34730074  1
  O2-  O117  1  0.08852012  0.24121472  0.61665675  1
  O2-  O118  1  0.10560188  0.25183118  0.87604761  1
  O2-  O119  1  0.15518230  0.73463171  0.12706126  1
  O2-  O120  1  0.16553726  0.78221580  0.36399917  1
  O2-  O121  1  0.14317811  0.76399838  0.61928587  1
  O2-  O122  1  0.13692497  0.74146790  0.88776854  1
  O2-  O123  1  0.38760822  0.25413166  0.12996962  1
  O2-  O124  1  0.45952186  0.21675634  0.37035754  1
  O2-  O125  1  0.44910731  0.20335283  0.60116003  1
  O2-  O126  1  0.43379666  0.25862764  0.86037552  1
  O2-  O127  1  0.34756661  0.74603228  0.12168060  1
  O2-  O128  1  0.33865452  0.75212952  0.38003601  1
  O2-  O129  1  0.33455369  0.77473727  0.65577626  1
  O2-  O130  1  0.33097078  0.75575012  0.86421105  1
  O2-  O131  1  0.63125418  0.25607781  0.14557259  1
  O2-  O132  1  0.63219329  0.15914028  0.27725228  1
  O2-  O133  1  0.60749357  0.30747879  0.60699293  1
  O2-  O134  1  0.67868787  0.25773332  0.88995163  1
  O2-  O135  1  0.67058123  0.76072261  0.11534831  1
  O2-  O136  1  0.68598746  0.75085998  0.37983392  1
  O2-  O137  1  0.59546513  0.74948863  0.62887711  1
  O2-  O138  1  0.63342271  0.75594126  0.92221686  1
  O2-  O139  1  0.88463833  0.26474917  0.12490156  1
  O2-  O140  1  0.79500963  0.27149124  0.38824487  1
  O2-  O141  1  0.77373206  0.19296149  0.64595022  1
  O2-  O142  1  0.88213358  0.26586991  0.82244234  1
  O2-  O143  1  0.86453749  0.74565027  0.11962026  1
  O2-  O144  1  0.87888419  0.73080059  0.34577188  1
  O2-  O145  1  0.88246139  0.74007755  0.60622235  1
  O2-  O146  1  0.85971602  0.73629152  0.88460976  1
  O2-  O147  1  0.08504435  0.12636904  -0.00531305  1
  O2-  O148  1  0.07445434  0.12592841  0.21757930  1
  O2-  O149  1  0.14131216  0.11742662  0.49309818  1
  O2-  O150  1  0.12510105  0.12956336  0.75369001  1
  O2-  O151  1  0.17131884  0.61621205  -0.01303120  1
  O2-  O152  1  0.15723187  0.63118967  0.27714955  1
  O2-  O153  1  0.17684206  0.62081246  0.49274968  1
  O2-  O154  1  0.07795537  0.64623265  0.76306141  1
  O2-  O155  1  0.41177121  0.13622145  -0.00027256  1
  O2-  O156  1  0.35747614  0.13128158  0.25592709  1
  O2-  O157  1  0.34225157  0.12898063  0.47849924  1
  O2-  O158  1  0.37922945  0.13602585  0.74529555  1
  O2-  O159  1  0.35988562  0.62268413  -0.00702422  1
  O2-  O160  1  0.38967152  0.64027751  0.25562548  1
  O2-  O161  1  0.39366944  0.66652767  0.51956042  1
  O2-  O162  1  0.28813749  0.61914130  0.75853973  1
  O2-  O163  1  0.62351311  0.11848774  0.01329674  1
  O2-  O164  1  0.50345039  0.13141779  0.15904808  1
  O2-  O165  1  0.61994163  0.17259452  0.47014704  1
  O2-  O166  1  0.62061628  0.16410721  0.73801003  1
  O2-  O167  1  0.67667646  0.61865116  0.00305579  1
  O2-  O168  1  0.62131531  0.65916249  0.24318088  1
  O2-  O169  1  0.62320825  0.62173996  0.50734345  1
  O2-  O170  1  0.62120084  0.65329805  0.77156886  1
  O2-  O171  1  0.87095831  0.13253574  -0.01215451  1
  O2-  O172  1  0.89266004  0.15621318  0.25861713  1
  O2-  O173  1  0.90267662  0.12136876  0.49758953  1
  O2-  O174  1  0.93415442  0.12932445  0.70847405  1
  O2-  O175  1  0.84396744  0.61040472  0.00038957  1
  O2-  O176  1  0.81825049  0.60960739  0.21124666  1
  O2-  O177  1  0.81228794  0.61681255  0.49385216  1
  O2-  O178  1  0.86332762  0.64127212  0.74738380  1
  O2-  O179  1  0.14985283  0.38511384  -0.00692678  1
  O2-  O180  1  0.10580969  0.38368120  0.23028487  1
  O2-  O181  1  0.14222513  0.35656435  0.48656223  1
  O2-  O182  1  0.11518957  0.35939910  0.74393129  1
  O2-  O183  1  0.16172152  0.86192841  0.00200718  1
  O2-  O184  1  0.24580588  0.87347125  0.17745249  1
  O2-  O185  1  0.16253509  0.89185842  0.49467933  1
  O2-  O186  1  0.12512877  0.87803720  0.75429689  1
  O2-  O187  1  0.36007792  0.37450596  -0.00613187  1
  O2-  O188  1  0.37337172  0.35490146  0.26099473  1
  O2-  O189  1  0.47573292  0.41536267  0.54483127  1
  O2-  O190  1  0.40678238  0.36860966  0.71882366  1
  O2-  O191  1  0.34429720  0.87324242  0.00172284  1
  O2-  O192  1  0.39521205  0.85285530  0.25468707  1
  O2-  O193  1  0.34424621  0.87244038  0.50708341  1
  O2-  O194  1  0.30258915  0.90600851  0.76924358  1
  O2-  O195  1  0.56592965  0.37159453  0.02491243  1
  O2-  O196  1  0.57221785  0.38675987  0.23959885  1
  O2-  O197  1  0.61700151  0.35994133  0.41909726  1
  O2-  O198  1  0.62463925  0.36881908  0.76880471  1
  O2-  O199  1  0.66545056  0.90048716  0.01033862  1
  O2-  O200  1  0.61630934  0.84483117  0.25046631  1
  O2-  O201  1  0.63818106  0.87035593  0.51489566  1
  O2-  O202  1  0.64543139  0.84496886  0.77408128  1
  O2-  O203  1  0.90681615  0.37897854  -0.02162490  1
  O2-  O204  1  0.93833908  0.34632064  0.30665834  1
  O2-  O205  1  0.87216606  0.30385355  0.52761348  1
  O2-  O206  1  0.95147429  0.37466442  0.70104225  1
  O2-  O207  1  0.85140793  0.87464458  0.00566929  1
  O2-  O208  1  0.83830250  0.86994382  0.24124672  1
  O2-  O209  1  0.82028247  0.85671252  0.47001019  1
  O2-  O210  1  0.86055643  0.85038727  0.74075043  1
  O2-  O211  1  0.01015269  -0.14297062  0.11937448  1
  O2-  O212  1  0.01302117  -0.17528156  0.30007895  1
  O2-  O213  1  -0.00984117  -0.13103361  0.45735014  1
  O2-  O214  1  -0.00519295  -0.15809162  0.87176469  1
  O2-  O215  1  0.01422586  0.62167722  0.01784892  1
  O2-  O216  1  0.00348112  0.63605441  0.18418046  1
  O2-  O217  1  -0.04665093  0.43393871  0.49177946  1
  O2-  O218  1  -0.03006180  0.54599556  0.86774926  1
  O2-  O219  1  0.26198217  0.14529633  -0.11029532  1
  O2-  O220  1  0.25511739  0.12722600  0.09704304  1
  O2-  O221  1  0.23933370  0.02217959  0.63297547  1
  O2-  O222  1  0.25239467  0.18438756  0.61704160  1
  O2-  O223  1  0.26538484  0.35269020  -0.15868859  1
  O2-  O224  1  0.24225226  0.47914463  0.28885910  1
  O2-  O225  1  0.34057009  0.34398548  0.47977851  1
  O2-  O226  1  0.24999878  0.36925629  0.62484581  1
  O2-  O227  1  0.49899940  -0.13649352  0.10889421  1
  O2-  O228  1  0.50266379  -0.12109280  0.39858017  1
  O2-  O229  1  0.51185295  0.05464840  0.37093261  1
  O2-  O230  1  0.49096680  -0.14776078  0.87959468  1
  O2-  O231  1  0.50391564  0.66909269  0.10369010  1
  O2-  O232  1  0.51492875  0.71246410  0.37801069  1
  O2-  O233  1  0.50438590  0.54690051  0.39083704  1
  O2-  O234  1  0.48426568  0.66926269  0.87550475  1
  O2-  O235  1  0.75645152  0.13326296  0.14406687  1
  O2-  O236  1  0.76177075  0.10286634  0.37151583  1
  O2-  O237  1  0.74081880  0.06166524  0.55913854  1
  O2-  O238  1  0.78753572  0.05843156  0.74341076  1
  O2-  O239  1  0.73351577  0.39366173  0.02338582  1
  O2-  O240  1  0.75683743  0.37226143  0.18593784  1
  O2-  O241  1  0.77285808  0.37779604  0.64001344  1
  O2-  O242  1  0.72412060  0.55729964  0.65973818  1
