# generated using pymatgen
data_Gd19Ta56(WO20)8
_symmetry_space_group_name_H-M   'P 1'
_cell_length_a   15.58345390
_cell_length_b   15.38615318
_cell_length_c   15.18762249
_cell_angle_alpha   90.14818982
_cell_angle_beta   89.55873485
_cell_angle_gamma   89.88226066
_symmetry_Int_Tables_number   1
_chemical_formula_structural   Gd19Ta56(WO20)8
_chemical_formula_sum   'Gd19 Ta56 W8 O160'
_cell_volume   3641.39925232
_cell_formula_units_Z   1
loop_
 _symmetry_equiv_pos_site_id
 _symmetry_equiv_pos_as_xyz
  1  'x, y, z'
loop_
 _atom_type_symbol
 _atom_type_oxidation_number
  Gd3+  3.0
  Ta5+  5.0
  W6+  6.0
  O2-  -2.0
loop_
 _atom_site_type_symbol
 _atom_site_label
 _atom_site_symmetry_multiplicity
 _atom_site_fract_x
 _atom_site_fract_y
 _atom_site_fract_z
 _atom_site_occupancy
  Gd3+  Gd0  1  0.79638279  0.81975562  0.53087613  1
  Gd3+  Gd1  1  0.74962954  0.25092538  0.72844329  1
  Gd3+  Gd2  1  0.48123562  0.23397542  0.23355978  1
  Gd3+  Gd3  1  -0.01676577  0.26267904  0.76791059  1
  Gd3+  Gd4  1  -0.02700455  0.24408136  0.52787412  1
  Gd3+  Gd5  1  0.51121830  0.22994558  0.71085391  1
  Gd3+  Gd6  1  0.54174600  0.78632387  -0.03538379  1
  Gd3+  Gd7  1  0.44336323  0.21446269  0.48070135  1
  Gd3+  Gd8  1  0.25181169  0.73353894  0.76401460  1
  Gd3+  Gd9  1  0.02430413  0.72975701  0.76733672  1
  Gd3+  Gd10  1  0.25911482  0.72218984  0.01745873  1
  Gd3+  Gd11  1  0.75023375  0.29615670  0.22720039  1
  Gd3+  Gd12  1  0.48572767  0.74470157  0.23116128  1
  Gd3+  Gd13  1  0.21792084  0.23796902  0.51846447  1
  Gd3+  Gd14  1  0.77697429  0.27073301  -0.01568194  1
  Gd3+  Gd15  1  0.24052764  0.28530057  0.81823348  1
  Gd3+  Gd16  1  0.56492123  0.23274659  -0.00719825  1
  Gd3+  Gd17  1  0.45346470  0.75803307  0.49660491  1
  Gd3+  Gd18  1  0.24915655  0.25107826  0.26742878  1
  Ta5+  Ta19  1  0.57730294  0.41528059  0.13922096  1
  Ta5+  Ta20  1  0.18401700  0.63356283  0.38015276  1
  Ta5+  Ta21  1  0.10833824  0.39952458  0.35424272  1
  Ta5+  Ta22  1  0.81851519  0.63712578  0.12610252  1
  Ta5+  Ta23  1  0.64180204  0.10160985  0.15220734  1
  Ta5+  Ta24  1  0.92156967  0.16497818  0.28456687  1
  Ta5+  Ta25  1  0.30100602  0.05702448  0.34404380  1
  Ta5+  Ta26  1  0.11370738  0.37925214  0.12681320  1
  Ta5+  Ta27  1  0.88815628  0.64984046  0.62445251  1
  Ta5+  Ta28  1  0.13876674  0.87173411  0.38261528  1
  Ta5+  Ta29  1  0.16475167  0.62355892  0.62418162  1
  Ta5+  Ta30  1  0.15708853  0.61762082  0.16991093  1
  Ta5+  Ta31  1  0.37727454  0.37979630  0.08148761  1
  Ta5+  Ta32  1  0.13920029  0.59913390  0.89807504  1
  Ta5+  Ta33  1  0.30581667  0.85716223  0.36729634  1
  Ta5+  Ta34  1  0.62340508  0.86585307  0.64544342  1
  Ta5+  Ta35  1  0.57678048  0.39273256  0.57233909  1
  Ta5+  Ta36  1  0.90780286  0.41220536  0.38500735  1
  Ta5+  Ta37  1  0.88932070  0.85758132  0.88856883  1
  Ta5+  Ta38  1  0.37618037  0.58347153  0.13168588  1
  Ta5+  Ta39  1  0.83964281  0.43491004  0.85440953  1
  Ta5+  Ta40  1  0.71526634  0.82522613  0.84295000  1
  Ta5+  Ta41  1  0.59572975  0.63551582  0.37122124  1
  Ta5+  Ta42  1  0.45301529  0.40987087  0.36190402  1
  Ta5+  Ta43  1  0.92263604  0.41051662  0.08056493  1
  Ta5+  Ta44  1  0.61896607  0.05777731  0.82613732  1
  Ta5+  Ta45  1  0.16602941  0.87072314  0.89960013  1
  Ta5+  Ta46  1  0.44783354  0.36909412  0.86279541  1
  Ta5+  Ta47  1  0.57883251  0.63636046  0.63306389  1
  Ta5+  Ta48  1  0.42361893  0.10586039  0.88465055  1
  Ta5+  Ta49  1  0.91202931  0.09893427  0.09393212  1
  Ta5+  Ta50  1  0.12467807  0.11493410  0.10416428  1
  Ta5+  Ta51  1  0.30623612  0.11288190  0.68818393  1
  Ta5+  Ta52  1  0.37647673  0.60454475  0.87041376  1
  Ta5+  Ta53  1  0.14396461  0.86722451  0.63312929  1
  Ta5+  Ta54  1  0.85869962  0.10582256  0.85774550  1
  Ta5+  Ta55  1  0.66810519  0.84880743  0.36696064  1
  Ta5+  Ta56  1  0.67903643  0.45916508  0.36561767  1
  Ta5+  Ta57  1  0.33506137  0.37109327  0.63838245  1
  Ta5+  Ta58  1  0.89471826  0.94507219  0.38061184  1
  Ta5+  Ta59  1  0.83164721  0.68529458  0.87867952  1
  Ta5+  Ta60  1  0.11586972  0.08261592  0.64240409  1
  Ta5+  Ta61  1  0.64271767  0.64495325  0.10683272  1
  Ta5+  Ta62  1  0.17457553  0.87786252  0.16072643  1
  Ta5+  Ta63  1  0.39627727  0.05430599  0.11949647  1
  Ta5+  Ta64  1  0.64495907  0.09273211  0.58874120  1
  Ta5+  Ta65  1  0.97074269  0.88977330  0.63644908  1
  Ta5+  Ta66  1  0.09804436  0.07951873  0.38772168  1
  Ta5+  Ta67  1  0.83935031  0.07864636  0.60954927  1
  Ta5+  Ta68  1  0.31742221  0.87394450  0.62730898  1
  Ta5+  Ta69  1  0.64243046  0.40576216  0.86422070  1
  Ta5+  Ta70  1  0.33835422  0.87236723  0.88425932  1
  Ta5+  Ta71  1  0.13167710  0.41061004  0.66588672  1
  Ta5+  Ta72  1  0.33612035  0.61683009  0.61242875  1
  Ta5+  Ta73  1  0.60333505  0.06201838  0.35966642  1
  Ta5+  Ta74  1  0.65855182  0.65073847  0.84624508  1
  W6+  W75  1  0.34303421  0.61583716  0.35682464  1
  W6+  W76  1  0.89489068  0.40204119  0.62916975  1
  W6+  W77  1  0.89481731  0.85036091  0.14319483  1
  W6+  W78  1  0.10399458  0.11026495  0.89756215  1
  W6+  W79  1  0.83448690  0.64955804  0.38564982  1
  W6+  W80  1  0.35605941  0.86158997  0.11386544  1
  W6+  W81  1  0.68462127  0.85911354  0.10648052  1
  W6+  W82  1  0.09395764  0.38263232  0.91946404  1
  O2-  O83  1  0.14330166  0.00614895  0.15843625  1
  O2-  O84  1  0.03041448  -0.02325319  0.38444589  1
  O2-  O85  1  0.06846747  -0.02325591  0.59880872  1
  O2-  O86  1  0.11889265  -0.01936055  0.89570473  1
  O2-  O87  1  0.12154423  0.50017967  0.16482382  1
  O2-  O88  1  0.15941576  0.50403163  0.38276325  1
  O2-  O89  1  0.09297463  0.51827724  0.63040488  1
  O2-  O90  1  0.25770331  0.56867284  0.88376572  1
  O2-  O91  1  0.45984836  -0.04510164  0.14154438  1
  O2-  O92  1  0.37933848  -0.03425793  0.34638758  1
  O2-  O93  1  0.33859889  -0.00237620  0.65733627  1
  O2-  O94  1  0.37592572  -0.00602312  0.88660382  1
  O2-  O95  1  0.46330933  0.47638444  0.09692325  1
  O2-  O96  1  0.35775758  0.47741362  0.37450192  1
  O2-  O97  1  0.35383382  0.48608987  0.60648242  1
  O2-  O98  1  0.42493361  0.48929244  0.85488110  1
  O2-  O99  1  0.65577937  -0.00919252  0.10595409  1
  O2-  O100  1  0.57938723  -0.05446533  0.38249378  1
  O2-  O101  1  0.58668146  -0.01377146  0.63005902  1
  O2-  O102  1  0.63235317  -0.05994186  0.79906601  1
  O2-  O103  1  0.62956990  0.51903074  0.10195065  1
  O2-  O104  1  0.55416947  0.50755367  0.36868742  1
  O2-  O105  1  0.57541192  0.50652387  0.61662390  1
  O2-  O106  1  0.62632302  0.52537791  0.85110400  1
  O2-  O107  1  0.88594709  -0.00998550  0.12387239  1
  O2-  O108  1  0.87700751  0.06266089  0.33626733  1
  O2-  O109  1  0.91762198  -0.00017811  0.66096972  1
  O2-  O110  1  0.87346928  -0.01300102  0.87020385  1
  O2-  O111  1  0.87523961  0.51574610  0.11707179  1
  O2-  O112  1  0.89975643  0.52873395  0.40787386  1
  O2-  O113  1  0.90934453  0.53290709  0.61605267  1
  O2-  O114  1  0.84703212  0.55146869  0.85986455  1
  O2-  O115  1  0.15328113  0.22459588  0.15496258  1
  O2-  O116  1  0.18235632  0.30297763  0.39190072  1
  O2-  O117  1  0.03040227  0.34857290  0.62569775  1
  O2-  O118  1  0.11724586  0.24533279  0.89625146  1
  O2-  O119  1  0.18279232  0.74357994  0.14847736  1
  O2-  O120  1  0.20728977  0.76101197  0.36233458  1
  O2-  O121  1  0.12993998  0.74109955  0.64278296  1
  O2-  O122  1  0.15627573  0.73355370  0.90238318  1
  O2-  O123  1  0.34241180  0.29488965  0.16367905  1
  O2-  O124  1  0.39880635  0.29601280  0.34667963  1
  O2-  O125  1  0.25188951  0.24423788  0.67515664  1
  O2-  O126  1  0.46870622  0.23546749  0.87796352  1
  O2-  O127  1  0.37493477  0.71854227  0.13099529  1
  O2-  O128  1  0.38178859  0.75379178  0.34757383  1
  O2-  O129  1  0.35911456  0.74869496  0.61932078  1
  O2-  O130  1  0.34459743  0.73143355  0.88230278  1
  O2-  O131  1  0.62869492  0.21274061  0.23385755  1
  O2-  O132  1  0.50800772  0.13954449  0.35714614  1
  O2-  O133  1  0.55562728  0.17325009  0.56896771  1
  O2-  O134  1  0.66320410  0.27151506  0.88483441  1
  O2-  O135  1  0.57470212  0.76785647  0.11064102  1
  O2-  O136  1  0.56372317  0.76351035  0.37080418  1
  O2-  O137  1  0.54849749  0.76462822  0.64302779  1
  O2-  O138  1  0.59870153  0.76347010  0.82877071  1
  O2-  O139  1  0.82944411  0.33445904  0.11261123  1
  O2-  O140  1  0.87875985  0.27509553  0.31660534  1
  O2-  O141  1  0.88107856  0.26865653  0.65417822  1
  O2-  O142  1  0.84497170  0.24871393  0.84935495  1
  O2-  O143  1  0.73407330  0.73493220  0.12823377  1
  O2-  O144  1  0.74386298  0.75466529  0.39558166  1
  O2-  O145  1  0.93223044  0.77047348  0.60117313  1
  O2-  O146  1  0.95157314  0.74267006  0.89182198  1
  O2-  O147  1  0.19259041  0.11431872  0.00483496  1
  O2-  O148  1  0.18665018  0.11998827  0.30605233  1
  O2-  O149  1  0.09702307  0.12761326  0.50227350  1
  O2-  O150  1  0.03779096  0.17423027  0.65566971  1
  O2-  O151  1  0.16037489  0.61226129  0.03096112  1
  O2-  O152  1  0.10287465  0.64344015  0.27776701  1
  O2-  O153  1  0.15509627  0.64525180  0.49726631  1
  O2-  O154  1  0.14153179  0.62518901  0.76495868  1
  O2-  O155  1  0.40351343  0.12544497  0.01298572  1
  O2-  O156  1  0.35654150  0.11278463  0.23091017  1
  O2-  O157  1  0.31743647  0.14910436  0.42457617  1
  O2-  O158  1  0.32706354  0.15211831  0.81402133  1
  O2-  O159  1  0.37609055  0.60338447  0.00540750  1
  O2-  O160  1  0.43648557  0.60169985  0.24129125  1
  O2-  O161  1  0.37730782  0.63481023  0.48935921  1
  O2-  O162  1  0.35510805  0.61732208  0.74224685  1
  O2-  O163  1  0.68798791  0.16885655  0.06045750  1
  O2-  O164  1  0.68495126  0.05920973  0.26829866  1
  O2-  O165  1  0.66344661  0.09114830  0.45974249  1
  O2-  O166  1  0.63934751  0.13714820  0.72264235  1
  O2-  O167  1  0.62762742  0.65704534  -0.02068276  1
  O2-  O168  1  0.60970531  0.64606299  0.24365625  1
  O2-  O169  1  0.56544357  0.64950227  0.50039199  1
  O2-  O170  1  0.66790282  0.63909373  0.71054198  1
  O2-  O171  1  0.85628935  0.13896890  -0.01124347  1
  O2-  O172  1  0.83953725  0.16452209  0.17936699  1
  O2-  O173  1  0.90130981  0.11878273  0.51283166  1
  O2-  O174  1  0.83071760  0.12061398  0.73381214  1
  O2-  O175  1  0.83649928  0.66028028  0.00346528  1
  O2-  O176  1  0.83820426  0.64595913  0.24989835  1
  O2-  O177  1  0.81100680  0.67030763  0.52578355  1
  O2-  O178  1  0.88189390  0.67226821  0.74587419  1
  O2-  O179  1  0.18441851  0.36034798  0.02917758  1
  O2-  O180  1  0.16982846  0.36874494  0.24307337  1
  O2-  O181  1  0.02421090  0.35810871  0.43920290  1
  O2-  O182  1  0.10289739  0.35519292  0.77986617  1
  O2-  O183  1  0.16875023  0.86455752  0.03301106  1
  O2-  O184  1  0.09714064  0.86389619  0.25689252  1
  O2-  O185  1  0.12589233  0.84891387  0.50156200  1
  O2-  O186  1  0.14081642  0.84646814  0.77115082  1
  O2-  O187  1  0.35918852  0.35251014  -0.03953431  1
  O2-  O188  1  0.49304189  0.39120907  0.24440431  1
  O2-  O189  1  0.34224385  0.30550256  0.52856187  1
  O2-  O190  1  0.38114700  0.32690839  0.76070285  1
  O2-  O191  1  0.41199622  0.84570713  -0.01370216  1
  O2-  O192  1  0.27766730  0.87242211  0.23297095  1
  O2-  O193  1  0.33316758  0.86405392  0.49187997  1
  O2-  O194  1  0.34012612  0.85716080  0.75805979  1
  O2-  O195  1  0.65286085  0.33505124  0.08780154  1
  O2-  O196  1  0.65246175  0.41017805  0.24696708  1
  O2-  O197  1  0.51359237  0.35362679  0.45931697  1
  O2-  O198  1  0.64063160  0.31795405  0.63981207  1
  O2-  O199  1  0.67737708  0.84680678  -0.03283564  1
  O2-  O200  1  0.67488070  0.85591277  0.24843688  1
  O2-  O201  1  0.65162417  0.84686532  0.52556363  1
  O2-  O202  1  0.72662745  0.83354054  0.69821841  1
  O2-  O203  1  0.90053959  0.38514966  -0.04239477  1
  O2-  O204  1  0.79174930  0.41309748  0.33009373  1
  O2-  O205  1  0.87215140  0.35925441  0.49510526  1
  O2-  O206  1  0.92376077  0.40273085  0.76899207  1
  O2-  O207  1  0.87767326  0.85812711  0.00940151  1
  O2-  O208  1  0.90689403  0.87460902  0.28606983  1
  O2-  O209  1  0.91573730  0.90561434  0.49976465  1
  O2-  O210  1  0.95214546  0.85951419  0.75820464  1
  O2-  O211  1  0.02474942  0.10185753  0.02592188  1
  O2-  O212  1  0.00050921  0.13194849  0.18735991  1
  O2-  O213  1  0.02092974  0.17477179  0.36048507  1
  O2-  O214  1  -0.02011763  0.12971138  0.83967591  1
  O2-  O215  1  0.03886589  0.44063465  0.03610238  1
  O2-  O216  1  0.00000311  0.32950894  0.14561185  1
  O2-  O217  1  0.00014232  0.42408269  0.29394283  1
  O2-  O218  1  0.06092316  0.51209420  0.88378432  1
  O2-  O219  1  0.30192462  -0.01100515  0.09048357  1
  O2-  O220  1  0.20362676  -0.01071285  0.40411098  1
  O2-  O221  1  0.22803124  0.09956765  0.58623241  1
  O2-  O222  1  0.17519204  0.09499007  0.75224404  1
  O2-  O223  1  0.30705960  0.47458289  0.12250336  1
  O2-  O224  1  0.26927190  0.60441248  0.22425799  1
  O2-  O225  1  0.20486543  0.37762789  0.57123129  1
  O2-  O226  1  0.24609193  0.41208756  0.72880593  1
  O2-  O227  1  0.55354217  0.08650626  -0.06769867  1
  O2-  O228  1  0.52038404  0.12181250  0.13720653  1
  O2-  O229  1  0.40024394  0.16473472  0.63133855  1
  O2-  O230  1  0.49523453  0.08916873  0.77872646  1
  O2-  O231  1  0.54410483  0.38488747  -0.05047187  1
  O2-  O232  1  0.49069527  0.31366972  0.09806789  1
  O2-  O233  1  0.46914523  0.34960809  0.62213676  1
  O2-  O234  1  0.54943055  0.36414027  0.78252753  1
  O2-  O235  1  0.72635165  0.09226871  -0.12932627  1
  O2-  O236  1  0.77120423  -0.07738565  0.40106324  1
  O2-  O237  1  0.74980327  -0.00130934  0.58599185  1
  O2-  O238  1  0.74353178  0.16879172  0.59580022  1
  O2-  O239  1  0.74125815  0.41449899  -0.05626361  1
  O2-  O240  1  0.70891033  0.57692726  0.38950155  1
  O2-  O241  1  0.66809259  0.40900711  0.47627031  1
  O2-  O242  1  0.74379072  0.39862965  0.77561909  1
