# generated using pymatgen
data_Gd19Ta56(WO20)8
_symmetry_space_group_name_H-M   'P 1'
_cell_length_a   15.64777529
_cell_length_b   15.61210489
_cell_length_c   15.02961769
_cell_angle_alpha   90.01869323
_cell_angle_beta   89.70350557
_cell_angle_gamma   90.22203180
_symmetry_Int_Tables_number   1
_chemical_formula_structural   Gd19Ta56(WO20)8
_chemical_formula_sum   'Gd19 Ta56 W8 O160'
_cell_volume   3671.57917984
_cell_formula_units_Z   1
loop_
 _symmetry_equiv_pos_site_id
 _symmetry_equiv_pos_as_xyz
  1  'x, y, z'
loop_
 _atom_type_symbol
 _atom_type_oxidation_number
  Gd3+  3.0
  Ta5+  5.0
  W6+  6.0
  O2-  -2.0
loop_
 _atom_site_type_symbol
 _atom_site_label
 _atom_site_symmetry_multiplicity
 _atom_site_fract_x
 _atom_site_fract_y
 _atom_site_fract_z
 _atom_site_occupancy
  Gd3+  Gd0  1  -0.00228227  0.76281407  0.24947471  1
  Gd3+  Gd1  1  0.00298024  0.25903295  0.49213860  1
  Gd3+  Gd2  1  0.03825141  0.24591268  0.00931700  1
  Gd3+  Gd3  1  0.74029704  0.75682182  0.77358081  1
  Gd3+  Gd4  1  0.53886541  0.24693564  0.02896270  1
  Gd3+  Gd5  1  0.52695119  0.74487013  0.52812214  1
  Gd3+  Gd6  1  0.72718757  0.24978914  0.52673125  1
  Gd3+  Gd7  1  -0.02789737  0.75205377  0.75007200  1
  Gd3+  Gd8  1  0.50409892  0.75224744  -0.00064053  1
  Gd3+  Gd9  1  0.24631118  0.25726242  0.73483483  1
  Gd3+  Gd10  1  -0.04011159  0.75385832  0.49198410  1
  Gd3+  Gd11  1  0.24850887  0.25638393  0.49207877  1
  Gd3+  Gd12  1  0.27776303  0.25519460  -0.02648050  1
  Gd3+  Gd13  1  0.76495568  0.25479295  -0.05432141  1
  Gd3+  Gd14  1  0.19786513  0.74145383  0.53476202  1
  Gd3+  Gd15  1  -0.01898041  0.24275203  0.24504201  1
  Gd3+  Gd16  1  -0.00290973  0.75766096  0.00815286  1
  Gd3+  Gd17  1  0.49630670  0.75316184  0.24633194  1
  Gd3+  Gd18  1  0.24327017  0.76380208  0.23746204  1
  Ta5+  Ta19  1  0.61707451  0.12309009  0.87384823  1
  Ta5+  Ta20  1  0.58335707  0.11956893  0.63262737  1
  Ta5+  Ta21  1  0.84792366  0.13060133  0.10718290  1
  Ta5+  Ta22  1  0.06707096  0.88253895  0.62512455  1
  Ta5+  Ta23  1  0.63187546  0.88628277  0.88879111  1
  Ta5+  Ta24  1  0.67492546  0.88942897  0.62723261  1
  Ta5+  Ta25  1  0.13961689  0.38508569  0.88326315  1
  Ta5+  Ta26  1  0.87227687  0.61694517  0.88464540  1
  Ta5+  Ta27  1  0.14332582  0.37440123  0.15798758  1
  Ta5+  Ta28  1  0.35595525  0.61749356  0.36667869  1
  Ta5+  Ta29  1  0.39075630  0.38371267  0.60584546  1
  Ta5+  Ta30  1  0.84961869  0.36807590  0.36880033  1
  Ta5+  Ta31  1  0.86942159  0.12282049  0.63020811  1
  Ta5+  Ta32  1  0.84476342  0.88017384  0.61592844  1
  Ta5+  Ta33  1  0.18604681  0.13022097  0.14343420  1
  Ta5+  Ta34  1  0.38006880  0.87028023  0.84470510  1
  Ta5+  Ta35  1  0.12698950  0.62010461  0.12555394  1
  Ta5+  Ta36  1  0.38468178  0.37172863  0.35018695  1
  Ta5+  Ta37  1  0.12506551  0.62686866  0.86753111  1
  Ta5+  Ta38  1  0.36506144  0.62684726  0.85807670  1
  Ta5+  Ta39  1  0.87604990  0.89016746  0.88279665  1
  Ta5+  Ta40  1  0.65531391  0.88080270  0.13389788  1
  Ta5+  Ta41  1  0.36437939  0.88202665  0.37606013  1
  Ta5+  Ta42  1  0.37102646  0.88415722  0.10952034  1
  Ta5+  Ta43  1  0.68060957  0.37851675  0.13263155  1
  Ta5+  Ta44  1  0.63522975  0.62434598  0.37408168  1
  Ta5+  Ta45  1  0.63497085  0.61526703  0.12840368  1
  Ta5+  Ta46  1  0.90123238  0.12781302  0.84165522  1
  Ta5+  Ta47  1  0.14874808  0.61929033  0.37166586  1
  Ta5+  Ta48  1  0.34809748  0.12228034  0.10325232  1
  Ta5+  Ta49  1  0.67673282  0.61960848  0.62627090  1
  Ta5+  Ta50  1  0.15444997  0.88762223  0.38517626  1
  Ta5+  Ta51  1  0.83454222  0.87990839  0.35319683  1
  Ta5+  Ta52  1  0.60983813  0.12966851  0.37758254  1
  Ta5+  Ta53  1  0.85459874  0.88619200  0.13327625  1
  Ta5+  Ta54  1  0.86565441  0.55833986  0.11814564  1
  Ta5+  Ta55  1  0.87721579  0.38114595  0.63243315  1
  Ta5+  Ta56  1  0.36096647  0.61692354  0.11724645  1
  Ta5+  Ta57  1  0.90775512  0.38186203  0.84589708  1
  Ta5+  Ta58  1  0.13842390  0.87621898  0.86912165  1
  Ta5+  Ta59  1  0.37391540  0.11625811  0.61427928  1
  Ta5+  Ta60  1  0.35244757  0.87388859  0.59444749  1
  Ta5+  Ta61  1  0.39470519  0.11837145  0.83674770  1
  Ta5+  Ta62  1  0.05752073  0.61790823  0.62198222  1
  Ta5+  Ta63  1  0.11026274  0.11601107  0.37971913  1
  Ta5+  Ta64  1  0.08676652  0.38478742  0.63775690  1
  Ta5+  Ta65  1  0.68516316  0.13049211  0.13713569  1
  Ta5+  Ta66  1  0.60925250  0.37920955  0.86574671  1
  Ta5+  Ta67  1  0.62169010  0.37877277  0.38398516  1
  Ta5+  Ta68  1  0.07851271  0.12430209  0.63884470  1
  Ta5+  Ta69  1  0.14004251  0.11767902  0.87836345  1
  Ta5+  Ta70  1  0.84806961  0.62377127  0.61913827  1
  Ta5+  Ta71  1  0.63490987  0.61863067  0.88451756  1
  Ta5+  Ta72  1  0.62347182  0.88072979  0.38102933  1
  Ta5+  Ta73  1  0.40571316  0.38552494  0.84363251  1
  Ta5+  Ta74  1  0.84968433  0.35651987  0.10795324  1
  W6+  W75  1  0.36235875  0.12483611  0.36029503  1
  W6+  W76  1  0.11718316  0.89311497  0.12706070  1
  W6+  W77  1  0.37453929  0.37504057  0.09438441  1
  W6+  W78  1  0.11644229  0.37492578  0.36476351  1
  W6+  W79  1  0.87998053  0.61422252  0.35715270  1
  W6+  W80  1  0.85457281  0.11959381  0.37094333  1
  W6+  W81  1  0.60436124  0.38166504  0.64630264  1
  W6+  W82  1  0.37717537  0.62478784  0.60104921  1
  O2-  O83  1  0.15605154  0.01694643  0.12753525  1
  O2-  O84  1  0.15079417  0.00488432  0.41463094  1
  O2-  O85  1  0.09254188  0.00555395  0.61740063  1
  O2-  O86  1  0.16345813  0.00076806  0.88409556  1
  O2-  O87  1  0.14014671  0.50209378  0.13338828  1
  O2-  O88  1  0.13545193  0.50451411  0.37597337  1
  O2-  O89  1  0.10589114  0.50342739  0.61907198  1
  O2-  O90  1  0.14448158  0.50281680  0.89268083  1
  O2-  O91  1  0.38176252  0.00157024  0.09291209  1
  O2-  O92  1  0.39503976  -0.00469096  0.37736009  1
  O2-  O93  1  0.34669881  -0.00468808  0.61190116  1
  O2-  O94  1  0.40048653  -0.00820421  0.84242477  1
  O2-  O95  1  0.33811979  0.50362656  0.11530422  1
  O2-  O96  1  0.36625825  0.49616053  0.36282207  1
  O2-  O97  1  0.41748193  0.49710226  0.60653776  1
  O2-  O98  1  0.40775509  0.50914619  0.85615823  1
  O2-  O99  1  0.66216842  0.00045458  0.12676583  1
  O2-  O100  1  0.61613713  -0.00017217  0.38190227  1
  O2-  O101  1  0.63431385  0.00641339  0.61889029  1
  O2-  O102  1  0.60216465  0.00229298  0.89937735  1
  O2-  O103  1  0.61601361  0.49723866  0.12342939  1
  O2-  O104  1  0.60741752  0.50852206  0.38678391  1
  O2-  O105  1  0.63305758  0.51014046  0.62829977  1
  O2-  O106  1  0.60256619  0.50214346  0.88763630  1
  O2-  O107  1  0.85820771  0.00570952  0.11276664  1
  O2-  O108  1  0.81132457  -0.00543635  0.36501156  1
  O2-  O109  1  0.86357243  0.00059874  0.62790700  1
  O2-  O110  1  0.91039738  0.00121535  0.85559346  1
  O2-  O111  1  0.93658068  0.46355135  0.10093327  1
  O2-  O112  1  0.86518538  0.48297995  0.35911035  1
  O2-  O113  1  0.85634009  0.50111684  0.62451789  1
  O2-  O114  1  0.91801152  0.50861168  0.86319493  1
  O2-  O115  1  0.11319458  0.24449714  0.14871955  1
  O2-  O116  1  0.08376060  0.24335431  0.36190762  1
  O2-  O117  1  0.09821334  0.25411230  0.64698046  1
  O2-  O118  1  0.17000525  0.25200185  0.86929653  1
  O2-  O119  1  0.10010352  0.75307148  0.13250940  1
  O2-  O120  1  0.16611451  0.75475952  0.37467176  1
  O2-  O121  1  0.07096372  0.74917293  0.62977004  1
  O2-  O122  1  0.10140342  0.75134461  0.86271026  1
  O2-  O123  1  0.39854549  0.23937417  0.06909422  1
  O2-  O124  1  0.33158525  0.26105476  0.36714744  1
  O2-  O125  1  0.33794388  0.24553652  0.61673919  1
  O2-  O126  1  0.36255879  0.25281746  0.83924026  1
  O2-  O127  1  0.40544421  0.75311267  0.11942433  1
  O2-  O128  1  0.36002642  0.75158861  0.33861415  1
  O2-  O129  1  0.32532196  0.75091602  0.59524121  1
  O2-  O130  1  0.41826937  0.74291798  0.86356919  1
  O2-  O131  1  0.64558922  0.25654477  0.13825933  1
  O2-  O132  1  0.65075446  0.25435249  0.38645347  1
  O2-  O133  1  0.62851309  0.23529516  0.63959909  1
  O2-  O134  1  0.63855348  0.25156812  0.86489798  1
  O2-  O135  1  0.59637034  0.74820946  0.13012585  1
  O2-  O136  1  0.56954220  0.74714777  0.38029005  1
  O2-  O137  1  0.67206611  0.75671445  0.63644886  1
  O2-  O138  1  0.61550816  0.75513045  0.88421371  1
  O2-  O139  1  0.92381158  0.24414647  0.09654595  1
  O2-  O140  1  0.90418814  0.24828400  0.38300775  1
  O2-  O141  1  0.86317471  0.25439322  0.62822724  1
  O2-  O142  1  0.89343195  0.25325029  0.84908021  1
  O2-  O143  1  0.91732083  0.77615984  0.13004287  1
  O2-  O144  1  0.89514023  0.75282267  0.35512989  1
  O2-  O145  1  0.87745261  0.75344776  0.61982802  1
  O2-  O146  1  0.90113169  0.75311937  0.88995852  1
  O2-  O147  1  0.15895481  0.15374012  0.00699585  1
  O2-  O148  1  0.18066434  0.12652777  0.27768426  1
  O2-  O149  1  0.13173573  0.15667570  0.50664542  1
  O2-  O150  1  0.14583307  0.12648970  0.75116220  1
  O2-  O151  1  0.09093898  0.63310411  0.00366352  1
  O2-  O152  1  0.08908296  0.63607235  0.25299796  1
  O2-  O153  1  0.08139508  0.64406190  0.48557022  1
  O2-  O154  1  0.06613477  0.61516219  0.75872318  1
  O2-  O155  1  0.33426093  0.11818392  -0.04914956  1
  O2-  O156  1  0.36447889  0.13226983  0.22353101  1
  O2-  O157  1  0.32036697  0.12799203  0.49845862  1
  O2-  O158  1  0.31220114  0.11989830  0.73875031  1
  O2-  O159  1  0.40442801  0.62956444  -0.00128994  1
  O2-  O160  1  0.41366912  0.62299988  0.23589800  1
  O2-  O161  1  0.43222702  0.64402007  0.46283528  1
  O2-  O162  1  0.34958296  0.62864222  0.73806357  1
  O2-  O163  1  0.65644113  0.14785335  0.00170286  1
  O2-  O164  1  0.66960206  0.12590469  0.26564683  1
  O2-  O165  1  0.63614445  0.13341922  0.50410710  1
  O2-  O166  1  0.63109030  0.10469900  0.75384505  1
  O2-  O167  1  0.58719270  0.63045144  0.00919407  1
  O2-  O168  1  0.58983684  0.63032065  0.24982626  1
  O2-  O169  1  0.63720898  0.64909484  0.50161216  1
  O2-  O170  1  0.66094652  0.62978076  0.75997342  1
  O2-  O171  1  0.85101047  0.13434876  -0.03295844  1
  O2-  O172  1  0.87192791  0.14279587  0.23450556  1
  O2-  O173  1  0.81713091  0.13210411  0.51232266  1
  O2-  O174  1  0.81490802  0.12381293  0.75111880  1
  O2-  O175  1  0.90341436  0.62428840  0.01553142  1
  O2-  O176  1  0.91066385  0.61269708  0.21741392  1
  O2-  O177  1  0.86804408  0.63417253  0.49162288  1
  O2-  O178  1  0.85288404  0.65072412  0.75783649  1
  O2-  O179  1  0.15456468  0.35251399  0.01672202  1
  O2-  O180  1  0.21537345  0.37082714  0.25477047  1
  O2-  O181  1  0.13705754  0.35287330  0.51005133  1
  O2-  O182  1  0.15708574  0.38209023  0.75462824  1
  O2-  O183  1  0.09962057  0.86904771  -0.01142770  1
  O2-  O184  1  0.09618203  0.87674441  0.27298484  1
  O2-  O185  1  0.08286543  0.85478002  0.49031635  1
  O2-  O186  1  0.07933507  0.88674529  0.75946751  1
  O2-  O187  1  0.33113546  0.38655353  -0.05002330  1
  O2-  O188  1  0.40194163  0.36649824  0.23130413  1
  O2-  O189  1  0.33565821  0.37737683  0.49263106  1
  O2-  O190  1  0.33953471  0.38149245  0.72934266  1
  O2-  O191  1  0.40195689  0.86470686  -0.01799885  1
  O2-  O192  1  0.40997037  0.88008085  0.23382931  1
  O2-  O193  1  0.42901719  0.85210255  0.48907031  1
  O2-  O194  1  0.39044194  0.85931351  0.71922072  1
  O2-  O195  1  0.65871306  0.35984893  -0.00446068  1
  O2-  O196  1  0.66406309  0.38751713  0.26492615  1
  O2-  O197  1  0.65143834  0.37665241  0.50805277  1
  O2-  O198  1  0.67164197  0.39250909  0.76117897  1
  O2-  O199  1  0.58969409  0.87478049  0.01871225  1
  O2-  O200  1  0.59248985  0.87017697  0.25161907  1
  O2-  O201  1  0.61056433  0.86440153  0.50892312  1
  O2-  O202  1  0.65142308  0.88300772  0.75806993  1
  O2-  O203  1  0.85334353  0.37074392  -0.03238601  1
  O2-  O204  1  0.86452219  0.34014390  0.24033909  1
  O2-  O205  1  0.82963701  0.36143876  0.50018738  1
  O2-  O206  1  0.82778900  0.38541587  0.75304640  1
  O2-  O207  1  0.91276712  0.88529202  0.00398844  1
  O2-  O208  1  0.91788117  0.89155393  0.25366880  1
  O2-  O209  1  0.87065347  0.87286986  0.47999040  1
  O2-  O210  1  0.85659096  0.85391734  0.75344541  1
  O2-  O211  1  0.02163882  0.13954794  -0.09830611  1
  O2-  O212  1  -0.00538617  0.09544309  0.35943679  1
  O2-  O213  1  -0.02205196  0.13228299  0.55790844  1
  O2-  O214  1  -0.02350236  0.12468312  0.72264469  1
  O2-  O215  1  0.02335542  0.35565067  -0.09529702  1
  O2-  O216  1  0.04836523  0.37774798  0.23746542  1
  O2-  O217  1  -0.01602222  0.38563316  0.55959562  1
  O2-  O218  1  -0.01537056  0.38383041  0.72416858  1
  O2-  O219  1  0.25583308  -0.14274054  0.11503088  1
  O2-  O220  1  0.25823109  -0.10586810  0.30671780  1
  O2-  O221  1  0.26933040  -0.12872279  0.47538925  1
  O2-  O222  1  0.26102650  -0.14537582  0.85719001  1
  O2-  O223  1  0.24583897  0.66065489  0.10898855  1
  O2-  O224  1  0.25155925  0.62266883  0.28365710  1
  O2-  O225  1  0.25753283  0.62743562  0.45236786  1
  O2-  O226  1  0.24998565  0.64404051  0.89235369  1
  O2-  O227  1  0.49974794  0.15235468  -0.09685184  1
  O2-  O228  1  0.49729103  0.14904323  0.36112432  1
  O2-  O229  1  0.48209524  0.10799238  0.55608004  1
  O2-  O230  1  0.47031807  0.13061913  0.71619665  1
  O2-  O231  1  0.49610996  0.34773813  -0.06904315  1
  O2-  O232  1  0.50047175  0.36151142  0.38399459  1
  O2-  O233  1  0.49394829  0.33336722  0.58521170  1
  O2-  O234  1  0.51154794  0.37692407  0.76895082  1
  O2-  O235  1  0.75430097  -0.15959479  0.06919558  1
  O2-  O236  1  0.76089085  -0.12178430  0.22535335  1
  O2-  O237  1  0.72848528  -0.17711360  0.38309256  1
  O2-  O238  1  0.75358096  -0.11950843  0.89579647  1
  O2-  O239  1  0.75178736  0.62917948  0.12183208  1
  O2-  O240  1  0.77761103  0.46617561  0.12935959  1
  O2-  O241  1  0.74627436  0.63117463  0.34383509  1
  O2-  O242  1  0.75205514  0.64622224  0.91366716  1
