# generated using pymatgen
data_Gd19Ta56(WO20)8
_symmetry_space_group_name_H-M   'P 1'
_cell_length_a   15.51372915
_cell_length_b   15.55988007
_cell_length_c   15.35755911
_cell_angle_alpha   90.29023023
_cell_angle_beta   89.77293332
_cell_angle_gamma   89.94618775
_symmetry_Int_Tables_number   1
_chemical_formula_structural   Gd19Ta56(WO20)8
_chemical_formula_sum   'Gd19 Ta56 W8 O160'
_cell_volume   3707.10991898
_cell_formula_units_Z   1
loop_
 _symmetry_equiv_pos_site_id
 _symmetry_equiv_pos_as_xyz
  1  'x, y, z'
loop_
 _atom_type_symbol
 _atom_type_oxidation_number
  Gd3+  3.0
  Ta5+  5.0
  W6+  6.0
  O2-  -2.0
loop_
 _atom_site_type_symbol
 _atom_site_label
 _atom_site_symmetry_multiplicity
 _atom_site_fract_x
 _atom_site_fract_y
 _atom_site_fract_z
 _atom_site_occupancy
  Gd3+  Gd0  1  0.24815295  0.74331073  0.76193300  1
  Gd3+  Gd1  1  0.25077467  0.73987852  0.51851981  1
  Gd3+  Gd2  1  0.00442180  0.24953939  0.72597483  1
  Gd3+  Gd3  1  0.49131230  0.75893347  0.23973061  1
  Gd3+  Gd4  1  0.22830705  0.23982401  0.23608248  1
  Gd3+  Gd5  1  0.24675323  0.74938199  0.00949568  1
  Gd3+  Gd6  1  0.49780569  0.24636404  0.49018190  1
  Gd3+  Gd7  1  0.75412249  0.74202462  0.74285949  1
  Gd3+  Gd8  1  0.26498922  0.23991407  0.49605131  1
  Gd3+  Gd9  1  0.75699658  0.76037697  0.25235908  1
  Gd3+  Gd10  1  -0.03271326  0.75968965  0.50320163  1
  Gd3+  Gd11  1  0.22990442  0.75622436  0.24664756  1
  Gd3+  Gd12  1  0.74567852  0.74948776  0.47976497  1
  Gd3+  Gd13  1  -0.01763939  0.77432329  0.74027013  1
  Gd3+  Gd14  1  0.51498936  0.24524104  0.20892944  1
  Gd3+  Gd15  1  -0.01667710  0.75403134  0.27013420  1
  Gd3+  Gd16  1  0.49820748  0.25243516  0.76183739  1
  Gd3+  Gd17  1  0.49092555  0.75335208  0.48479775  1
  Gd3+  Gd18  1  0.01022314  0.25806819  0.00000619  1
  Ta5+  Ta19  1  0.11655973  0.61580904  0.38334473  1
  Ta5+  Ta20  1  0.87496377  0.12488640  0.57106458  1
  Ta5+  Ta21  1  0.87383613  0.61372232  0.91499474  1
  Ta5+  Ta22  1  0.91444850  0.61744273  0.10716779  1
  Ta5+  Ta23  1  0.87142794  0.13884642  0.85481483  1
  Ta5+  Ta24  1  0.33699880  0.36930771  0.14355535  1
  Ta5+  Ta25  1  0.62564072  0.89560150  0.37566611  1
  Ta5+  Ta26  1  0.63391281  0.35581395  0.36111906  1
  Ta5+  Ta27  1  0.61958286  0.60847573  0.36878549  1
  Ta5+  Ta28  1  0.35892186  0.10700623  0.14795518  1
  Ta5+  Ta29  1  0.37143063  0.37828552  0.90186470  1
  Ta5+  Ta30  1  0.85599950  0.35578446  0.59337100  1
  Ta5+  Ta31  1  0.64572425  0.60715171  0.62411735  1
  Ta5+  Ta32  1  0.37396682  0.61087712  0.13127623  1
  Ta5+  Ta33  1  0.15115881  0.38100641  0.62257623  1
  Ta5+  Ta34  1  0.37918148  0.90125746  0.13198481  1
  Ta5+  Ta35  1  0.35866618  0.37050392  0.34620330  1
  Ta5+  Ta36  1  0.36625880  0.88695810  0.37834017  1
  Ta5+  Ta37  1  0.63899025  0.12732677  0.87863013  1
  Ta5+  Ta38  1  0.37082774  0.12093624  0.63441050  1
  Ta5+  Ta39  1  0.63317721  0.88036582  0.11645205  1
  Ta5+  Ta40  1  0.61901661  0.88070584  0.62279607  1
  Ta5+  Ta41  1  0.38331763  0.88019658  0.88387959  1
  Ta5+  Ta42  1  0.39301981  0.62046420  0.88584540  1
  Ta5+  Ta43  1  0.13208899  0.38535699  0.86634599  1
  Ta5+  Ta44  1  0.35471008  0.38481837  0.65710192  1
  Ta5+  Ta45  1  0.64524957  0.14435491  0.36134708  1
  Ta5+  Ta46  1  0.15797684  0.37818969  0.12066230  1
  Ta5+  Ta47  1  0.08877166  0.61651673  0.63067081  1
  Ta5+  Ta48  1  0.81047352  0.15394613  0.33905665  1
  Ta5+  Ta49  1  0.17922013  0.10746886  0.36607491  1
  Ta5+  Ta50  1  0.86265617  0.93730228  0.41114034  1
  Ta5+  Ta51  1  0.10572033  0.88152332  0.39323102  1
  Ta5+  Ta52  1  0.12552906  0.88604182  0.88022484  1
  Ta5+  Ta53  1  0.88023580  0.89796253  0.89444394  1
  Ta5+  Ta54  1  0.62303739  0.87731379  0.86901650  1
  Ta5+  Ta55  1  0.68634480  0.37681709  0.12645233  1
  Ta5+  Ta56  1  0.91872096  0.87743924  0.11154998  1
  Ta5+  Ta57  1  0.86727787  0.12305085  0.10548796  1
  Ta5+  Ta58  1  0.63916737  0.12566174  0.62102787  1
  Ta5+  Ta59  1  0.88744360  0.59937521  0.61567448  1
  Ta5+  Ta60  1  0.35178882  0.11406726  0.35546567  1
  Ta5+  Ta61  1  0.08520161  0.87779492  0.12557517  1
  Ta5+  Ta62  1  0.36980469  0.61763918  0.37434659  1
  Ta5+  Ta63  1  0.86829199  0.59977563  0.36687800  1
  Ta5+  Ta64  1  0.68939638  0.12658999  0.12198022  1
  Ta5+  Ta65  1  0.87564479  0.38027094  0.85536286  1
  Ta5+  Ta66  1  0.14300358  0.13043835  0.86837146  1
  Ta5+  Ta67  1  0.15017974  0.37443308  0.37473897  1
  Ta5+  Ta68  1  0.79868658  0.35948749  0.34652887  1
  Ta5+  Ta69  1  0.62564522  0.62616355  0.11646962  1
  Ta5+  Ta70  1  0.62653342  0.36432785  0.62234148  1
  Ta5+  Ta71  1  0.86327198  0.37376834  0.11016384  1
  Ta5+  Ta72  1  0.63303634  0.62290983  0.86946466  1
  Ta5+  Ta73  1  0.11626610  0.88482762  0.62003258  1
  Ta5+  Ta74  1  0.63716209  0.37609128  0.88211096  1
  W6+  W75  1  0.12329677  0.62211790  0.12374017  1
  W6+  W76  1  0.36186882  0.86764265  0.63884666  1
  W6+  W77  1  0.37819801  0.60437622  0.63751184  1
  W6+  W78  1  0.39184475  0.12985955  0.89772622  1
  W6+  W79  1  0.92535823  0.96414112  0.56627764  1
  W6+  W80  1  0.12747735  0.12197301  0.61759801  1
  W6+  W81  1  0.09777312  0.62847849  0.88691407  1
  W6+  W82  1  0.10936469  0.11717611  0.11638534  1
  O2-  O83  1  0.08177708  -0.00505822  0.14037187  1
  O2-  O84  1  0.12227146  -0.00408547  0.36805964  1
  O2-  O85  1  0.15730437  -0.00709254  0.63916613  1
  O2-  O86  1  0.15418539  0.00228664  0.86414732  1
  O2-  O87  1  0.13966392  0.49399418  0.13131892  1
  O2-  O88  1  0.15322032  0.50402059  0.36363015  1
  O2-  O89  1  0.10589786  0.49638643  0.62469409  1
  O2-  O90  1  0.08891447  0.49520887  0.86862744  1
  O2-  O91  1  0.29882787  -0.01076344  0.14527309  1
  O2-  O92  1  0.36680902  0.00075623  0.41332768  1
  O2-  O93  1  0.36895837  0.00459658  0.62562967  1
  O2-  O94  1  0.38854263  -0.00368272  0.89002381  1
  O2-  O95  1  0.37028303  0.49463367  0.13143819  1
  O2-  O96  1  0.35057257  0.50138859  0.36502739  1
  O2-  O97  1  0.41359486  0.47730049  0.61286050  1
  O2-  O98  1  0.40910335  0.49640239  0.91165016  1
  O2-  O99  1  0.67006657  -0.00827827  0.13399743  1
  O2-  O100  1  0.63858033  0.01316053  0.36495646  1
  O2-  O101  1  0.61219020  0.00474436  0.62475317  1
  O2-  O102  1  0.63751125  0.00224605  0.86194410  1
  O2-  O103  1  0.66187616  0.51482674  0.13673390  1
  O2-  O104  1  0.63131110  0.49073866  0.36194405  1
  O2-  O105  1  0.62471671  0.48937201  0.62164450  1
  O2-  O106  1  0.61938130  0.50008268  0.86296836  1
  O2-  O107  1  0.88884741  0.00377784  0.10654284  1
  O2-  O108  1  0.84731507  0.02955361  0.33597819  1
  O2-  O109  1  0.99459071  0.08656676  0.58547682  1
  O2-  O110  1  0.86468325  0.01469407  0.87154676  1
  O2-  O111  1  0.90336068  0.49621467  0.12031478  1
  O2-  O112  1  0.83317387  0.48653347  0.35498171  1
  O2-  O113  1  0.88308448  0.47571629  0.60332129  1
  O2-  O114  1  0.88998718  0.50232322  0.85945532  1
  O2-  O115  1  0.13715151  0.24542010  0.10686799  1
  O2-  O116  1  0.16439412  0.24622044  0.37909309  1
  O2-  O117  1  0.11278876  0.26248517  0.61758248  1
  O2-  O118  1  0.09840254  0.25861378  0.87130692  1
  O2-  O119  1  0.14820183  0.75844161  0.12118658  1
  O2-  O120  1  0.07821227  0.74811777  0.40153323  1
  O2-  O121  1  0.07102967  0.74819419  0.61593120  1
  O2-  O122  1  0.16015222  0.75912903  0.89109338  1
  O2-  O123  1  0.35713170  0.23703737  0.15347925  1
  O2-  O124  1  0.34663800  0.24110139  0.34403155  1
  O2-  O125  1  0.40162351  0.26855721  0.63266042  1
  O2-  O126  1  0.41978882  0.26507298  0.89183445  1
  O2-  O127  1  0.35825584  0.77113237  0.15434423  1
  O2-  O128  1  0.40381188  0.75483103  0.35876488  1
  O2-  O129  1  0.35547139  0.73235201  0.65416560  1
  O2-  O130  1  0.34715962  0.74396028  0.88067833  1
  O2-  O131  1  0.68844585  0.25363411  0.11884274  1
  O2-  O132  1  0.55721721  0.24566705  0.35371078  1
  O2-  O133  1  0.57656513  0.24245103  0.62321753  1
  O2-  O134  1  0.60059222  0.25521739  0.88245015  1
  O2-  O135  1  0.67460106  0.75080029  0.12626041  1
  O2-  O136  1  0.61446573  0.75355623  0.39596935  1
  O2-  O137  1  0.67272073  0.75283970  0.61516456  1
  O2-  O138  1  0.65847244  0.75701842  0.86183562  1
  O2-  O139  1  0.89199358  0.25503114  0.12038082  1
  O2-  O140  1  0.85876553  0.26162171  0.30637036  1
  O2-  O141  1  0.92099922  0.25173402  0.59941442  1
  O2-  O142  1  0.92767738  0.25814841  0.86215717  1
  O2-  O143  1  0.94904193  0.74208974  0.11284919  1
  O2-  O144  1  0.88391328  0.73211126  0.37721805  1
  O2-  O145  1  0.87394070  0.72596905  0.64523675  1
  O2-  O146  1  0.91787061  0.70751439  0.85650264  1
  O2-  O147  1  0.08425250  0.12612265  -0.02168704  1
  O2-  O148  1  0.14178422  0.12343861  0.24745044  1
  O2-  O149  1  0.17818189  0.11857971  0.49201078  1
  O2-  O150  1  0.09105395  0.13169491  0.75591743  1
  O2-  O151  1  0.16806842  0.62415591  -0.00305342  1
  O2-  O152  1  0.10772006  0.65664041  0.26129810  1
  O2-  O153  1  0.15229144  0.62661079  0.51062424  1
  O2-  O154  1  0.13830630  0.64355396  0.74485259  1
  O2-  O155  1  0.38429978  0.11324146  0.03080719  1
  O2-  O156  1  0.43273330  0.10750798  0.25217834  1
  O2-  O157  1  0.38238415  0.14823589  0.50289574  1
  O2-  O158  1  0.41108665  0.13410901  0.75191445  1
  O2-  O159  1  0.35535245  0.63954824  0.00792432  1
  O2-  O160  1  0.25794292  0.63334906  0.16208360  1
  O2-  O161  1  0.37059868  0.64647593  0.49961083  1
  O2-  O162  1  0.34440996  0.60043140  0.77597585  1
  O2-  O163  1  0.65037400  0.12003348  0.00102981  1
  O2-  O164  1  0.62068971  0.14078065  0.23184334  1
  O2-  O165  1  0.62216913  0.14138266  0.49620462  1
  O2-  O166  1  0.60838484  0.14023260  0.74793476  1
  O2-  O167  1  0.63946181  0.62880436  -0.00631194  1
  O2-  O168  1  0.60366909  0.65232293  0.24941137  1
  O2-  O169  1  0.64410415  0.62431343  0.49949401  1
  O2-  O170  1  0.61004377  0.64072158  0.73830690  1
  O2-  O171  1  0.89877906  0.14677152  -0.01902312  1
  O2-  O172  1  0.79061936  0.13010490  0.20756583  1
  O2-  O173  1  0.85747514  0.16587829  0.46041149  1
  O2-  O174  1  0.89930076  0.13744478  0.73539782  1
  O2-  O175  1  0.81834213  0.63668213  0.02602036  1
  O2-  O176  1  0.87793152  0.63580088  0.23417762  1
  O2-  O177  1  0.83496786  0.62065624  0.49307941  1
  O2-  O178  1  0.75942238  0.62511234  0.84887343  1
  O2-  O179  1  0.11140635  0.37169701  -0.00644419  1
  O2-  O180  1  0.13185012  0.35869428  0.24691837  1
  O2-  O181  1  0.11565752  0.38146346  0.49363713  1
  O2-  O182  1  0.09058383  0.36879591  0.74531118  1
  O2-  O183  1  0.13738398  0.88283515  0.00543713  1
  O2-  O184  1  0.10185265  0.84766484  0.25866515  1
  O2-  O185  1  0.17767557  0.86353503  0.49713349  1
  O2-  O186  1  0.12095454  0.84618472  0.75744964  1
  O2-  O187  1  0.34542983  0.35983384  0.02007526  1
  O2-  O188  1  0.43046985  0.36726922  0.24353727  1
  O2-  O189  1  0.39892489  0.34699534  0.46040035  1
  O2-  O190  1  0.40915863  0.37829934  0.77066134  1
  O2-  O191  1  0.34998269  0.86626946  0.00643579  1
  O2-  O192  1  0.40875732  0.89678665  0.25801267  1
  O2-  O193  1  0.36588670  0.83684711  0.49901095  1
  O2-  O194  1  0.32407723  0.87658115  0.77689984  1
  O2-  O195  1  0.65053359  0.38751200  0.00242602  1
  O2-  O196  1  0.61295772  0.35807996  0.23176034  1
  O2-  O197  1  0.61115226  0.35388950  0.49761530  1
  O2-  O198  1  0.59883785  0.36390932  0.74829081  1
  O2-  O199  1  0.64456848  0.87711537  -0.00887662  1
  O2-  O200  1  0.62363208  0.85391706  0.25211094  1
  O2-  O201  1  0.65790511  0.88217257  0.50400032  1
  O2-  O202  1  0.66295661  0.87161194  0.74068675  1
  O2-  O203  1  0.89719740  0.36999789  -0.01820197  1
  O2-  O204  1  0.78639878  0.38827654  0.21293223  1
  O2-  O205  1  0.82746774  0.35379322  0.47692590  1
  O2-  O206  1  0.89847281  0.36269417  0.73360071  1
  O2-  O207  1  0.84409976  0.85230371  -0.00112182  1
  O2-  O208  1  0.86846805  0.84405849  0.21896023  1
  O2-  O209  1  0.85090923  0.84869808  0.51496411  1
  O2-  O210  1  0.83812092  0.84685114  0.79358888  1
  O2-  O211  1  -0.00078414  -0.12026186  -0.11866829  1
  O2-  O212  1  -0.03009460  -0.11104244  0.36853080  1
  O2-  O213  1  0.03469641  -0.10481175  0.51375000  1
  O2-  O214  1  -0.00498187  -0.10005340  0.66902322  1
  O2-  O215  1  -0.01963091  0.60567344  -0.01152484  1
  O2-  O216  1  -0.00700797  0.59000605  0.37517331  1
  O2-  O217  1  -0.01053854  0.61790242  0.54366086  1
  O2-  O218  1  -0.02203775  0.60570718  0.70460293  1
  O2-  O219  1  0.25655497  0.15754201  -0.13033616  1
  O2-  O220  1  0.24738754  -0.13685222  0.35061366  1
  O2-  O221  1  0.22942728  -0.17422802  0.63920527  1
  O2-  O222  1  0.25829110  0.16237302  0.63959644  1
  O2-  O223  1  0.25269646  0.38190822  -0.12534314  1
  O2-  O224  1  0.24863519  0.66424093  0.36759947  1
  O2-  O225  1  0.26371281  0.36475280  0.56474953  1
  O2-  O226  1  0.24580128  0.41520058  0.71000758  1
  O2-  O227  1  0.51078293  -0.13693931  0.11629277  1
  O2-  O228  1  0.50561939  -0.11510962  0.40380425  1
  O2-  O229  1  0.50527691  -0.15013267  0.61432069  1
  O2-  O230  1  0.50406720  -0.14281250  0.86144440  1
  O2-  O231  1  0.50343310  0.64326839  0.11112865  1
  O2-  O232  1  0.41005888  0.63038586  0.25244111  1
  O2-  O233  1  0.49928547  0.61736119  0.39921259  1
  O2-  O234  1  0.50778286  0.65068333  0.87876956  1
  O2-  O235  1  0.75402576  0.16334163  -0.14688466  1
  O2-  O236  1  0.75583558  -0.13757159  0.36667533  1
  O2-  O237  1  0.81422596  0.01457244  0.51084901  1
  O2-  O238  1  0.75727484  0.13693973  0.62656848  1
  O2-  O239  1  0.75608478  0.36502656  -0.14818376  1
  O2-  O240  1  0.74241314  0.64754775  0.34988592  1
  O2-  O241  1  0.76241989  0.60070442  0.65727903  1
  O2-  O242  1  0.74397269  0.33604708  0.64046102  1
