# generated using pymatgen
data_Gd19Ta56(WO20)8
_symmetry_space_group_name_H-M   'P 1'
_cell_length_a   15.45641233
_cell_length_b   15.45432274
_cell_length_c   15.23253019
_cell_angle_alpha   89.88579517
_cell_angle_beta   89.95883189
_cell_angle_gamma   89.96956160
_symmetry_Int_Tables_number   1
_chemical_formula_structural   Gd19Ta56(WO20)8
_chemical_formula_sum   'Gd19 Ta56 W8 O160'
_cell_volume   3638.56119912
_cell_formula_units_Z   1
loop_
 _symmetry_equiv_pos_site_id
 _symmetry_equiv_pos_as_xyz
  1  'x, y, z'
loop_
 _atom_type_symbol
 _atom_type_oxidation_number
  Gd3+  3.0
  Ta5+  5.0
  W6+  6.0
  O2-  -2.0
loop_
 _atom_site_type_symbol
 _atom_site_label
 _atom_site_symmetry_multiplicity
 _atom_site_fract_x
 _atom_site_fract_y
 _atom_site_fract_z
 _atom_site_occupancy
  Gd3+  Gd0  1  0.01568574  0.76647705  0.01110215  1
  Gd3+  Gd1  1  -0.01648476  0.24501396  0.75275716  1
  Gd3+  Gd2  1  0.72289412  0.24595894  0.23017593  1
  Gd3+  Gd3  1  0.77736543  0.76511048  0.72190418  1
  Gd3+  Gd4  1  0.48417444  0.23840437  0.46835183  1
  Gd3+  Gd5  1  0.77277809  0.75359626  0.48109978  1
  Gd3+  Gd6  1  0.00578766  0.74995025  0.74702419  1
  Gd3+  Gd7  1  0.24058927  0.77530740  0.02778511  1
  Gd3+  Gd8  1  0.73032140  0.27121679  0.75333092  1
  Gd3+  Gd9  1  0.00817939  0.73246154  0.25505577  1
  Gd3+  Gd10  1  -0.00424991  0.25875744  0.50661083  1
  Gd3+  Gd11  1  0.52451723  0.73360486  0.76047244  1
  Gd3+  Gd12  1  0.51068119  0.74746468  0.01014879  1
  Gd3+  Gd13  1  0.24852438  0.76351818  0.25500438  1
  Gd3+  Gd14  1  0.01935658  0.22926737  0.25809578  1
  Gd3+  Gd15  1  0.50632554  0.74288441  0.25354732  1
  Gd3+  Gd16  1  0.70395955  0.25648828  0.01241745  1
  Gd3+  Gd17  1  0.24076990  0.23959243  0.22248936  1
  Gd3+  Gd18  1  0.74339271  0.76597054  0.24147238  1
  Ta5+  Ta19  1  0.82403897  0.35384599  0.37627739  1
  Ta5+  Ta20  1  0.38444546  0.88259087  0.38608755  1
  Ta5+  Ta21  1  0.86235017  0.39557273  0.62414531  1
  Ta5+  Ta22  1  0.14534667  0.38120549  0.62925079  1
  Ta5+  Ta23  1  0.85676227  0.87974612  0.87968948  1
  Ta5+  Ta24  1  0.67329796  0.62403138  0.89308668  1
  Ta5+  Ta25  1  0.16140448  0.36173964  0.40158087  1
  Ta5+  Ta26  1  0.86783050  0.62103016  0.10824474  1
  Ta5+  Ta27  1  0.37663575  0.92427208  0.13164845  1
  Ta5+  Ta28  1  0.14699820  0.62661703  0.62492300  1
  Ta5+  Ta29  1  0.11702692  0.13324349  0.89383725  1
  Ta5+  Ta30  1  0.88677586  0.38359347  0.89316877  1
  Ta5+  Ta31  1  0.32922509  0.37280962  0.37670003  1
  Ta5+  Ta32  1  0.07391362  0.36253067  0.07821066  1
  Ta5+  Ta33  1  0.87529758  0.63178551  0.88962612  1
  Ta5+  Ta34  1  0.61556367  0.38414857  0.61970739  1
  Ta5+  Ta35  1  0.84571368  0.60772532  0.62585740  1
  Ta5+  Ta36  1  0.56703684  0.37960697  0.14107795  1
  Ta5+  Ta37  1  0.61871241  0.89374600  0.12650638  1
  Ta5+  Ta38  1  0.66189153  0.12867987  0.60801368  1
  Ta5+  Ta39  1  0.86824236  0.37403821  0.11799752  1
  Ta5+  Ta40  1  0.37043268  0.61769494  0.38295749  1
  Ta5+  Ta41  1  0.91538201  0.92648231  0.35335107  1
  Ta5+  Ta42  1  0.66768162  0.13630524  0.39234275  1
  Ta5+  Ta43  1  0.37052150  0.86402335  0.63107179  1
  Ta5+  Ta44  1  0.87678591  0.12702518  0.89058000  1
  Ta5+  Ta45  1  0.13711819  0.87636500  0.61694371  1
  Ta5+  Ta46  1  0.88395865  0.59376960  0.37303189  1
  Ta5+  Ta47  1  0.61126284  0.12648369  0.87244528  1
  Ta5+  Ta48  1  0.57403870  0.12179174  0.14131077  1
  Ta5+  Ta49  1  0.89295111  0.89132742  0.59901384  1
  Ta5+  Ta50  1  0.10727301  0.88116367  0.38845693  1
  Ta5+  Ta51  1  0.63212477  0.89209965  0.38824361  1
  Ta5+  Ta52  1  0.37581667  0.59986756  0.87656320  1
  Ta5+  Ta53  1  0.88580710  0.13551412  0.11714508  1
  Ta5+  Ta54  1  0.60049421  0.40029764  0.88289528  1
  Ta5+  Ta55  1  0.38376789  0.58581650  0.13133910  1
  Ta5+  Ta56  1  0.62793976  0.61056361  0.13301554  1
  Ta5+  Ta57  1  0.38243024  0.61993848  0.62597408  1
  Ta5+  Ta58  1  0.67467231  0.61377301  0.63896482  1
  Ta5+  Ta59  1  0.31832544  0.11622584  0.37935025  1
  Ta5+  Ta60  1  0.14756599  0.62854077  0.87128552  1
  Ta5+  Ta61  1  0.14120763  0.88859107  0.86670077  1
  Ta5+  Ta62  1  0.13094331  0.60944749  0.37433309  1
  Ta5+  Ta63  1  0.86961006  0.89014042  0.11706344  1
  Ta5+  Ta64  1  0.38281162  0.87202452  0.87989477  1
  Ta5+  Ta65  1  0.40276461  0.12977928  0.12707111  1
  Ta5+  Ta66  1  0.13779537  0.12073552  0.63882940  1
  Ta5+  Ta67  1  0.39546477  0.37623795  0.13123911  1
  Ta5+  Ta68  1  0.83666910  0.16364155  0.38121380  1
  Ta5+  Ta69  1  0.61977929  0.61836884  0.39332363  1
  Ta5+  Ta70  1  0.65359748  0.36970475  0.38173897  1
  Ta5+  Ta71  1  0.38493827  0.36966682  0.61815540  1
  Ta5+  Ta72  1  0.64926969  0.88188777  0.88187014  1
  Ta5+  Ta73  1  0.12207834  0.38139419  0.86483434  1
  Ta5+  Ta74  1  0.15181286  0.12118107  0.41411812  1
  W6+  W75  1  0.83533686  0.13633569  0.61313977  1
  W6+  W76  1  0.13758435  0.60275354  0.12550066  1
  W6+  W77  1  0.62804268  0.88088113  0.63607786  1
  W6+  W78  1  0.13097963  0.94975197  0.18659284  1
  W6+  W79  1  0.36812970  0.12602159  0.87962914  1
  W6+  W80  1  0.38268465  0.36501545  0.87618986  1
  W6+  W81  1  0.04359212  0.15077950  0.05495077  1
  W6+  W82  1  0.37777844  0.11960210  0.62701105  1
  O2-  O83  1  0.09070558  0.04135847  0.12388572  1
  O2-  O84  1  0.11554700  -0.00194416  0.42256922  1
  O2-  O85  1  0.16117487  -0.00303549  0.63083138  1
  O2-  O86  1  0.14857442  0.00667147  0.87071771  1
  O2-  O87  1  0.10515334  0.47244087  0.11127772  1
  O2-  O88  1  0.14714152  0.49116531  0.38376583  1
  O2-  O89  1  0.12335983  0.50531895  0.63586970  1
  O2-  O90  1  0.12757091  0.50976234  0.88633104  1
  O2-  O91  1  0.31995446  0.02539773  0.10144032  1
  O2-  O92  1  0.32540578  -0.01382621  0.39879357  1
  O2-  O93  1  0.37407179  -0.01881750  0.62455235  1
  O2-  O94  1  0.39656146  -0.01164904  0.89282139  1
  O2-  O95  1  0.31248739  0.49062267  0.12258168  1
  O2-  O96  1  0.36037466  0.50035879  0.39008642  1
  O2-  O97  1  0.40624829  0.50137165  0.60877956  1
  O2-  O98  1  0.32808966  0.49230382  0.87381828  1
  O2-  O99  1  0.63992009  0.01086984  0.11524290  1
  O2-  O100  1  0.66053526  0.00679064  0.39794752  1
  O2-  O101  1  0.64800281  0.01084514  0.62213214  1
  O2-  O102  1  0.63636311  0.00415211  0.88307384  1
  O2-  O103  1  0.64350179  0.49347923  0.12534124  1
  O2-  O104  1  0.64710084  0.50189417  0.39417785  1
  O2-  O105  1  0.61530865  0.50793063  0.61556922  1
  O2-  O106  1  0.67379274  0.49790287  0.89767097  1
  O2-  O107  1  0.88137581  0.00923491  0.13167219  1
  O2-  O108  1  0.86402796  0.03354193  0.36321749  1
  O2-  O109  1  0.84922979  -0.00073141  0.61620877  1
  O2-  O110  1  0.87250162  -0.00210609  0.86940450  1
  O2-  O111  1  0.86872414  0.50008441  0.11041111  1
  O2-  O112  1  0.85174202  0.48235902  0.35149089  1
  O2-  O113  1  0.91790402  0.50106364  0.64406096  1
  O2-  O114  1  0.88356014  0.51117316  0.88028242  1
  O2-  O115  1  0.11562520  0.25386689  0.13293459  1
  O2-  O116  1  0.14874447  0.24438205  0.44872001  1
  O2-  O117  1  0.09226418  0.26616067  0.64633716  1
  O2-  O118  1  0.10266074  0.25268834  0.85391435  1
  O2-  O119  1  0.10718023  0.73838591  0.14002159  1
  O2-  O120  1  0.13053835  0.74752247  0.34263456  1
  O2-  O121  1  0.09862761  0.74451924  0.62859247  1
  O2-  O122  1  0.09400032  0.75013671  0.86984972  1
  O2-  O123  1  0.37735124  0.25074651  0.14996420  1
  O2-  O124  1  0.32564554  0.24510285  0.37183894  1
  O2-  O125  1  0.42496345  0.25187994  0.61223323  1
  O2-  O126  1  0.33522778  0.25300195  0.87533788  1
  O2-  O127  1  0.28893463  0.67450848  0.13078543  1
  O2-  O128  1  0.37137621  0.75897342  0.34521885  1
  O2-  O129  1  0.43202455  0.73710843  0.63796164  1
  O2-  O130  1  0.42907325  0.74400145  0.88511706  1
  O2-  O131  1  0.60470423  0.25170575  0.13378702  1
  O2-  O132  1  0.60868437  0.24882434  0.37719417  1
  O2-  O133  1  0.63519949  0.25423181  0.63687283  1
  O2-  O134  1  0.64417378  0.26425609  0.87548375  1
  O2-  O135  1  0.62951488  0.75502379  0.14354264  1
  O2-  O136  1  0.63907422  0.75278452  0.36183267  1
  O2-  O137  1  0.64153025  0.74446957  0.65904755  1
  O2-  O138  1  0.61435520  0.74901092  0.89105754  1
  O2-  O139  1  0.82441934  0.25275576  0.10420315  1
  O2-  O140  1  0.92972876  0.27222913  0.36718904  1
  O2-  O141  1  0.90085320  0.26866161  0.62853704  1
  O2-  O142  1  0.89919393  0.25423258  0.89362197  1
  O2-  O143  1  0.89881129  0.75605020  0.11939222  1
  O2-  O144  1  0.81038706  0.69502557  0.35178776  1
  O2-  O145  1  0.86712468  0.75313538  0.59881611  1
  O2-  O146  1  0.91954998  0.76344095  0.88420412  1
  O2-  O147  1  0.17852582  0.15085483  -0.00603355  1
  O2-  O148  1  0.14130953  0.14559703  0.29081100  1
  O2-  O149  1  0.07425827  0.12636679  0.53404007  1
  O2-  O150  1  0.07405040  0.12122835  0.74743449  1
  O2-  O151  1  0.15182243  0.65446582  -0.00431026  1
  O2-  O152  1  0.09173299  0.60497900  0.25281897  1
  O2-  O153  1  0.15199749  0.63127277  0.50181713  1
  O2-  O154  1  0.09999749  0.62968500  0.75286432  1
  O2-  O155  1  0.40931985  0.14120933  0.00359282  1
  O2-  O156  1  0.33650723  0.11810126  0.25339756  1
  O2-  O157  1  0.38598309  0.12790767  0.48850484  1
  O2-  O158  1  0.35101442  0.10903887  0.75833790  1
  O2-  O159  1  0.40550432  0.61035240  0.00052707  1
  O2-  O160  1  0.40568954  0.61940552  0.25440198  1
  O2-  O161  1  0.35299566  0.64481475  0.50614414  1
  O2-  O162  1  0.42496612  0.61252848  0.76035277  1
  O2-  O163  1  0.61028849  0.14050734  0.00137654  1
  O2-  O164  1  0.62075692  0.12515352  0.25772053  1
  O2-  O165  1  0.58118694  0.13688037  0.50807884  1
  O2-  O166  1  0.66768411  0.13529702  0.75556787  1
  O2-  O167  1  0.60761410  0.62848731  0.00463843  1
  O2-  O168  1  0.60775452  0.62326904  0.26089309  1
  O2-  O169  1  0.66566041  0.64755451  0.50768148  1
  O2-  O170  1  0.62889024  0.61635657  0.77381854  1
  O2-  O171  1  0.81192657  0.12635699  -0.00227330  1
  O2-  O172  1  0.87155478  0.16129291  0.24275516  1
  O2-  O173  1  0.90107667  0.15127473  0.49328879  1
  O2-  O174  1  0.86330613  0.14961362  0.76121462  1
  O2-  O175  1  0.94913865  0.63263890  0.00367468  1
  O2-  O176  1  0.90957177  0.62272770  0.23104078  1
  O2-  O177  1  0.85054299  0.60542603  0.49409824  1
  O2-  O178  1  0.89251557  0.64960936  0.75075316  1
  O2-  O179  1  0.15811593  0.35663946  -0.01757973  1
  O2-  O180  1  0.13434543  0.32710677  0.28720607  1
  O2-  O181  1  0.08852494  0.38606313  0.51612198  1
  O2-  O182  1  0.18169108  0.38537448  0.75739599  1
  O2-  O183  1  0.12546098  0.86415158  -0.00975581  1
  O2-  O184  1  0.19067378  0.89492668  0.29499088  1
  O2-  O185  1  0.16467932  0.84947674  0.49667362  1
  O2-  O186  1  0.09727828  0.87258938  0.74885064  1
  O2-  O187  1  0.39259807  0.37086708  0.00943683  1
  O2-  O188  1  0.33587688  0.37646597  0.25258259  1
  O2-  O189  1  0.40354596  0.36377449  0.48506224  1
  O2-  O190  1  0.38963852  0.37525817  0.73956838  1
  O2-  O191  1  0.37796775  0.84818273  0.01617348  1
  O2-  O192  1  0.37469668  0.89648151  0.25331099  1
  O2-  O193  1  0.37361568  0.84406043  0.50547660  1
  O2-  O194  1  0.40639138  0.85702668  0.75787953  1
  O2-  O195  1  0.59936867  0.36819192  0.00794334  1
  O2-  O196  1  0.61719921  0.37372690  0.25701822  1
  O2-  O197  1  0.59104099  0.36200528  0.49969353  1
  O2-  O198  1  0.62336893  0.38447123  0.75776411  1
  O2-  O199  1  0.58952365  0.87555418  0.00052529  1
  O2-  O200  1  0.63728102  0.88592009  0.25738473  1
  O2-  O201  1  0.66688142  0.85475656  0.50352776  1
  O2-  O202  1  0.58329163  0.87172436  0.77462852  1
  O2-  O203  1  0.80351524  0.37715526  -0.01031088  1
  O2-  O204  1  0.81757666  0.36310733  0.23433661  1
  O2-  O205  1  0.86999213  0.37593963  0.49965809  1
  O2-  O206  1  0.84556824  0.36855116  0.76922116  1
  O2-  O207  1  0.92455213  0.88617779  0.00149908  1
  O2-  O208  1  0.86579926  0.86290759  0.25331322  1
  O2-  O209  1  0.85977638  0.88293490  0.47305089  1
  O2-  O210  1  0.89972449  0.85731982  0.73357184  1
  O2-  O211  1  -0.00318304  0.10035909  -0.08153371  1
  O2-  O212  1  0.02335285  -0.05411595  0.28358312  1
  O2-  O213  1  -0.00633238  -0.17562370  0.39185867  1
  O2-  O214  1  0.01347956  -0.10104712  0.58792976  1
  O2-  O215  1  -0.03012892  0.38129588  0.00752374  1
  O2-  O216  1  -0.02233916  0.34776300  0.17308094  1
  O2-  O217  1  0.00171328  0.62460271  0.39403283  1
  O2-  O218  1  0.00484914  0.38612764  0.82826344  1
  O2-  O219  1  0.26024245  -0.15073013  -0.12717652  1
  O2-  O220  1  0.25301201  -0.12948699  0.13632721  1
  O2-  O221  1  0.24609932  0.16637021  0.62354365  1
  O2-  O222  1  0.25414607  -0.16317482  0.65468341  1
  O2-  O223  1  0.26721345  0.65884026  -0.14148453  1
  O2-  O224  1  0.25211788  0.63410474  0.34035805  1
  O2-  O225  1  0.26185861  0.36929342  0.59779599  1
  O2-  O226  1  0.26434256  0.63082300  0.66250271  1
  O2-  O227  1  0.47621100  0.02009459  0.15113860  1
  O2-  O228  1  0.49465007  -0.15033123  0.14337937  1
  O2-  O229  1  0.50628577  -0.11639395  0.38184445  1
  O2-  O230  1  0.49908305  0.13771624  0.84640702  1
  O2-  O231  1  0.47692754  0.48254576  0.14715993  1
  O2-  O232  1  0.50149452  0.65633096  0.13001301  1
  O2-  O233  1  0.49857519  0.63518889  0.40516268  1
  O2-  O234  1  0.49248654  0.45096586  0.87638676  1
  O2-  O235  1  0.76039392  -0.14074598  -0.04481578  1
  O2-  O236  1  0.74853313  -0.12733765  0.12533839  1
  O2-  O237  1  0.74162310  0.15404415  0.50445238  1
  O2-  O238  1  0.75133080  -0.11567298  0.79928807  1
  O2-  O239  1  0.78720988  0.62396960  -0.01294643  1
  O2-  O240  1  0.75083069  0.64129134  0.15478584  1
  O2-  O241  1  0.74120638  0.38415313  0.62421588  1
  O2-  O242  1  0.76815723  0.69221383  0.84735204  1
