# generated using pymatgen
data_Gd19Ta56(WO20)8
_symmetry_space_group_name_H-M   'P 1'
_cell_length_a   15.53149586
_cell_length_b   15.51209319
_cell_length_c   15.27111672
_cell_angle_alpha   90.03197976
_cell_angle_beta   89.99478359
_cell_angle_gamma   89.99180293
_symmetry_Int_Tables_number   1
_chemical_formula_structural   Gd19Ta56(WO20)8
_chemical_formula_sum   'Gd19 Ta56 W8 O160'
_cell_volume   3679.20861042
_cell_formula_units_Z   1
loop_
 _symmetry_equiv_pos_site_id
 _symmetry_equiv_pos_as_xyz
  1  'x, y, z'
loop_
 _atom_type_symbol
 _atom_type_oxidation_number
  Gd3+  3.0
  Ta5+  5.0
  W6+  6.0
  O2-  -2.0
loop_
 _atom_site_type_symbol
 _atom_site_label
 _atom_site_symmetry_multiplicity
 _atom_site_fract_x
 _atom_site_fract_y
 _atom_site_fract_z
 _atom_site_occupancy
  Gd3+  Gd0  1  -0.02277949  0.26947286  0.75698366  1
  Gd3+  Gd1  1  0.48631591  0.73563248  0.24483705  1
  Gd3+  Gd2  1  0.24135926  0.74692927  -0.03347604  1
  Gd3+  Gd3  1  -0.00729629  0.27969959  0.00395051  1
  Gd3+  Gd4  1  0.50461197  0.75104353  -0.00230382  1
  Gd3+  Gd5  1  0.73778220  0.74919152  0.76974492  1
  Gd3+  Gd6  1  -0.01048497  0.25427961  0.24334882  1
  Gd3+  Gd7  1  0.01418215  0.74816492  0.49646751  1
  Gd3+  Gd8  1  -0.02886740  0.74817082  0.76408854  1
  Gd3+  Gd9  1  0.26670752  0.75019441  0.48773030  1
  Gd3+  Gd10  1  0.25682376  0.75006265  0.72195231  1
  Gd3+  Gd11  1  0.50899045  0.25384778  0.23969390  1
  Gd3+  Gd12  1  0.29272033  0.22768697  0.73938871  1
  Gd3+  Gd13  1  0.76446280  0.74871287  0.50860129  1
  Gd3+  Gd14  1  0.71259044  0.24849297  0.04881946  1
  Gd3+  Gd15  1  0.24429271  0.74906897  0.25436284  1
  Gd3+  Gd16  1  -0.03574615  0.74514554  0.00933974  1
  Gd3+  Gd17  1  0.24942946  0.23006448  0.49076443  1
  Gd3+  Gd18  1  0.49523113  0.22130678  -0.00961537  1
  Ta5+  Ta19  1  0.37743300  0.60235482  0.36888312  1
  Ta5+  Ta20  1  0.67967849  0.13190020  0.63241711  1
  Ta5+  Ta21  1  0.39960155  0.11852092  0.59844244  1
  Ta5+  Ta22  1  0.65553627  0.63176471  0.12955392  1
  Ta5+  Ta23  1  0.13729452  0.88711927  0.36425222  1
  Ta5+  Ta24  1  0.62242628  0.88024221  0.13994746  1
  Ta5+  Ta25  1  0.32833613  0.37387224  0.35467524  1
  Ta5+  Ta26  1  0.33664668  0.38282427  0.61066704  1
  Ta5+  Ta27  1  0.30960806  0.11390645  0.91619430  1
  Ta5+  Ta28  1  0.16619498  0.36612237  0.62445848  1
  Ta5+  Ta29  1  0.34128091  0.87321549  0.11376495  1
  Ta5+  Ta30  1  0.84478081  0.14336436  0.63699391  1
  Ta5+  Ta31  1  0.82208283  0.63521482  0.14115359  1
  Ta5+  Ta32  1  0.86639357  0.89269826  0.88922729  1
  Ta5+  Ta33  1  0.35709059  0.11991323  0.13733436  1
  Ta5+  Ta34  1  0.61332282  0.61768580  0.87752337  1
  Ta5+  Ta35  1  0.11714585  0.88995838  0.62236014  1
  Ta5+  Ta36  1  0.15417160  0.37816798  0.15739947  1
  Ta5+  Ta37  1  0.84211536  0.42552339  0.13848296  1
  Ta5+  Ta38  1  0.13035446  0.61310114  0.36521079  1
  Ta5+  Ta39  1  0.13615226  0.37903460  0.87087553  1
  Ta5+  Ta40  1  0.82460923  0.37143271  0.88614782  1
  Ta5+  Ta41  1  0.60662404  0.59100920  0.62660526  1
  Ta5+  Ta42  1  0.85018582  0.37142516  0.37818324  1
  Ta5+  Ta43  1  0.61942981  0.13044858  0.39018866  1
  Ta5+  Ta44  1  0.41122464  0.61423969  0.61446279  1
  Ta5+  Ta45  1  0.66982680  0.35933562  0.63551722  1
  Ta5+  Ta46  1  0.82634415  0.13139232  0.88074640  1
  Ta5+  Ta47  1  0.09968835  0.13531777  0.62229705  1
  Ta5+  Ta48  1  0.85633705  0.88486998  0.14336275  1
  Ta5+  Ta49  1  0.63293827  0.43312595  0.14107411  1
  Ta5+  Ta50  1  0.17017699  0.61588642  0.10702425  1
  Ta5+  Ta51  1  0.37260284  0.37469761  0.10775065  1
  Ta5+  Ta52  1  0.37830276  0.88365966  0.85341130  1
  Ta5+  Ta53  1  0.38240509  0.37173755  0.86654087  1
  Ta5+  Ta54  1  0.34080116  0.62096938  0.11215222  1
  Ta5+  Ta55  1  0.11260798  0.88693771  0.84769685  1
  Ta5+  Ta56  1  0.61389465  0.88006536  0.39632866  1
  Ta5+  Ta57  1  0.85858641  0.11439888  0.13419941  1
  Ta5+  Ta58  1  0.65654244  0.37876615  0.88198508  1
  Ta5+  Ta59  1  0.90550631  0.89895191  0.63451859  1
  Ta5+  Ta60  1  0.62395772  0.62813875  0.38255944  1
  Ta5+  Ta61  1  0.89036578  0.88583717  0.39007819  1
  Ta5+  Ta62  1  0.11336559  0.60839690  0.62224181  1
  Ta5+  Ta63  1  0.11109480  0.61704209  0.84672791  1
  Ta5+  Ta64  1  0.62649532  0.89016397  0.87737154  1
  Ta5+  Ta65  1  0.11639347  0.13247602  0.36335273  1
  Ta5+  Ta66  1  0.86033536  0.13291985  0.38568363  1
  Ta5+  Ta67  1  0.88388263  0.61461398  0.37854230  1
  Ta5+  Ta68  1  0.42832781  0.87251506  0.60868133  1
  Ta5+  Ta69  1  0.83739823  0.36665647  0.63265543  1
  Ta5+  Ta70  1  0.38651071  0.88411240  0.36790602  1
  Ta5+  Ta71  1  0.15806508  0.37706018  0.37250457  1
  Ta5+  Ta72  1  0.10457754  0.12897889  0.87826848  1
  Ta5+  Ta73  1  0.86030055  0.60892646  0.88775359  1
  Ta5+  Ta74  1  0.62979597  0.88622946  0.62152391  1
  W6+  W75  1  0.66145739  0.13121131  0.87501340  1
  W6+  W76  1  0.36635070  0.61815181  0.85775778  1
  W6+  W77  1  0.13009836  0.12996277  0.10510178  1
  W6+  W78  1  0.90037912  0.60776691  0.63191322  1
  W6+  W79  1  0.61546545  0.09083709  0.13707848  1
  W6+  W80  1  0.60975412  0.37940459  0.38970222  1
  W6+  W81  1  0.37526684  0.12090371  0.37441170  1
  W6+  W82  1  0.17207908  0.88098429  0.10587695  1
  O2-  O83  1  0.14740617  0.00308908  0.10024710  1
  O2-  O84  1  0.11929038  0.00574874  0.37445303  1
  O2-  O85  1  0.11926379  0.01331990  0.62384775  1
  O2-  O86  1  0.09463206  0.00616150  0.85689508  1
  O2-  O87  1  0.14054664  0.49110365  0.12177233  1
  O2-  O88  1  0.11180816  0.49645244  0.38488891  1
  O2-  O89  1  0.13755382  0.49212495  0.61899222  1
  O2-  O90  1  0.10784874  0.49531635  0.84261330  1
  O2-  O91  1  0.34886637  -0.00551939  0.12666502  1
  O2-  O92  1  0.42359169  -0.00509322  0.37120022  1
  O2-  O93  1  0.42443938  -0.00543830  0.60028520  1
  O2-  O94  1  0.33849465  -0.00139651  0.87571852  1
  O2-  O95  1  0.36265370  0.49574632  0.10540125  1
  O2-  O96  1  0.39817941  0.48504260  0.35990209  1
  O2-  O97  1  0.34945690  0.50021657  0.62368782  1
  O2-  O98  1  0.39808312  0.48775749  0.86452116  1
  O2-  O99  1  0.54928399  -0.02663367  0.14851804  1
  O2-  O100  1  0.60786791  0.00238952  0.39739038  1
  O2-  O101  1  0.65914058  0.00399965  0.62852378  1
  O2-  O102  1  0.60994659  0.00787384  0.86968545  1
  O2-  O103  1  0.56435523  0.53170950  0.13417035  1
  O2-  O104  1  0.64844947  0.51179766  0.38803705  1
  O2-  O105  1  0.66849992  0.48597655  0.64383744  1
  O2-  O106  1  0.60410208  0.49690532  0.87549671  1
  O2-  O107  1  0.90653411  -0.00172107  0.14583988  1
  O2-  O108  1  0.88427416  0.00910377  0.38848897  1
  O2-  O109  1  0.88097099  0.01470928  0.64506255  1
  O2-  O110  1  0.87874563  0.01001180  0.86489470  1
  O2-  O111  1  0.90045637  0.53041836  0.15732398  1
  O2-  O112  1  0.88853298  0.49336110  0.36646860  1
  O2-  O113  1  0.87356319  0.47849848  0.64571261  1
  O2-  O114  1  0.87585851  0.49070462  0.87828181  1
  O2-  O115  1  0.09400430  0.27033816  0.12022246  1
  O2-  O116  1  0.16206684  0.24681494  0.35389387  1
  O2-  O117  1  0.18003745  0.22921689  0.63638279  1
  O2-  O118  1  0.08418845  0.25728896  0.87799381  1
  O2-  O119  1  0.16165829  0.74665408  0.10023208  1
  O2-  O120  1  0.15152554  0.75000379  0.37583037  1
  O2-  O121  1  0.11881233  0.75501305  0.62988905  1
  O2-  O122  1  0.13260405  0.75026819  0.83880478  1
  O2-  O123  1  0.40507849  0.24129025  0.10867979  1
  O2-  O124  1  0.34383164  0.25241578  0.36819531  1
  O2-  O125  1  0.36509696  0.24612197  0.59372624  1
  O2-  O126  1  0.36230362  0.22551308  0.88390082  1
  O2-  O127  1  0.40451100  0.74549870  0.11510359  1
  O2-  O128  1  0.34963474  0.74212936  0.36404176  1
  O2-  O129  1  0.35645883  0.75810328  0.61074626  1
  O2-  O130  1  0.33231677  0.76114975  0.84723136  1
  O2-  O131  1  0.58128835  0.22840888  0.11344033  1
  O2-  O132  1  0.57129543  0.24670297  0.37843568  1
  O2-  O133  1  0.74606933  0.25119829  0.62581381  1
  O2-  O134  1  0.62369406  0.25783450  0.91783473  1
  O2-  O135  1  0.58671361  0.75622417  0.13695664  1
  O2-  O136  1  0.66603062  0.74901619  0.39789062  1
  O2-  O137  1  0.69783283  0.77987100  0.63303346  1
  O2-  O138  1  0.63438426  0.75578882  0.87226315  1
  O2-  O139  1  0.91860908  0.22126247  0.11733708  1
  O2-  O140  1  0.90791583  0.25722006  0.37526973  1
  O2-  O141  1  0.91298509  0.25853676  0.62548621  1
  O2-  O142  1  0.87290353  0.24951268  0.91107777  1
  O2-  O143  1  0.86954761  0.75839848  0.13238106  1
  O2-  O144  1  0.88132910  0.75513664  0.41082983  1
  O2-  O145  1  0.91619234  0.75284527  0.61735101  1
  O2-  O146  1  0.86520101  0.75503752  0.88978956  1
  O2-  O147  1  0.04167440  0.13625311  -0.01059161  1
  O2-  O148  1  0.07891235  0.13262131  0.24229380  1
  O2-  O149  1  0.10644982  0.14528141  0.49351121  1
  O2-  O150  1  0.06099113  0.14426715  0.74840299  1
  O2-  O151  1  0.15670498  0.61842395  -0.03210046  1
  O2-  O152  1  0.14113584  0.63154906  0.23969290  1
  O2-  O153  1  0.15841335  0.64094245  0.50324876  1
  O2-  O154  1  0.18255017  0.62280908  0.73632799  1
  O2-  O155  1  0.39777379  0.10779015  0.00869320  1
  O2-  O156  1  0.41782142  0.13046592  0.24216166  1
  O2-  O157  1  0.31954651  0.10120291  0.50288300  1
  O2-  O158  1  0.38454647  0.12231656  0.71824714  1
  O2-  O159  1  0.35820051  0.64768025  -0.01124465  1
  O2-  O160  1  0.38520010  0.62599821  0.24004711  1
  O2-  O161  1  0.36384883  0.62886568  0.49789342  1
  O2-  O162  1  0.35690192  0.63290565  0.72388039  1
  O2-  O163  1  0.64467495  0.11333904  0.00922755  1
  O2-  O164  1  0.59074180  0.12299584  0.26664543  1
  O2-  O165  1  0.62737986  0.14540263  0.51513503  1
  O2-  O166  1  0.64572734  0.15612895  0.74561246  1
  O2-  O167  1  0.61267832  0.64213562  0.00644935  1
  O2-  O168  1  0.63068591  0.64296918  0.25821210  1
  O2-  O169  1  0.65149504  0.63569496  0.52056025  1
  O2-  O170  1  0.64113664  0.63014042  0.74612951  1
  O2-  O171  1  0.83555814  0.10925982  0.01052656  1
  O2-  O172  1  0.89411841  0.13405974  0.26052076  1
  O2-  O173  1  0.86273031  0.14043003  0.50789000  1
  O2-  O174  1  0.86905769  0.16128047  0.76367424  1
  O2-  O175  1  0.87019755  0.63012528  0.01537633  1
  O2-  O176  1  0.82347578  0.64231154  0.27540534  1
  O2-  O177  1  0.83590824  0.61410947  0.49422294  1
  O2-  O178  1  0.85443632  0.64553824  0.75954716  1
  O2-  O179  1  0.08995754  0.38851477  -0.01462427  1
  O2-  O180  1  0.07768550  0.37264009  0.26072148  1
  O2-  O181  1  0.14733243  0.34918330  0.49591000  1
  O2-  O182  1  0.11056315  0.35044007  0.74540523  1
  O2-  O183  1  0.17488917  0.87910750  -0.04710568  1
  O2-  O184  1  0.14027671  0.86021956  0.24233622  1
  O2-  O185  1  0.16343879  0.86755326  0.50289198  1
  O2-  O186  1  0.18311070  0.88376887  0.73818649  1
  O2-  O187  1  0.43142107  0.35856739  -0.00972333  1
  O2-  O188  1  0.39980774  0.36162067  0.22914095  1
  O2-  O189  1  0.33142917  0.38078996  0.48170314  1
  O2-  O190  1  0.37572101  0.35272674  0.74023087  1
  O2-  O191  1  0.36391399  0.85368672  -0.01526233  1
  O2-  O192  1  0.38230299  0.85327530  0.23825343  1
  O2-  O193  1  0.36594339  0.86673320  0.49127918  1
  O2-  O194  1  0.36367613  0.88254117  0.72863031  1
  O2-  O195  1  0.63394719  0.39002685  0.02219159  1
  O2-  O196  1  0.58694806  0.38211952  0.24546759  1
  O2-  O197  1  0.62805239  0.35782891  0.52049218  1
  O2-  O198  1  0.64400325  0.34978995  0.76210181  1
  O2-  O199  1  0.59976799  0.86719976  0.01061728  1
  O2-  O200  1  0.64356021  0.87379051  0.27122895  1
  O2-  O201  1  0.69005141  0.88025049  0.49715133  1
  O2-  O202  1  0.66791660  0.88124575  0.75809036  1
  O2-  O203  1  0.86844221  0.38447362  0.02423415  1
  O2-  O204  1  0.89094478  0.36839596  0.23834842  1
  O2-  O205  1  0.84187961  0.37189369  0.49923679  1
  O2-  O206  1  0.84234446  0.34573898  0.76464409  1
  O2-  O207  1  0.89666208  0.87977946  0.01562286  1
  O2-  O208  1  0.85124824  0.87471990  0.27177894  1
  O2-  O209  1  0.85215490  0.88354556  0.51626312  1
  O2-  O210  1  0.85809533  0.85897852  0.75216758  1
  O2-  O211  1  -0.00109778  -0.14931057  -0.11661589  1
  O2-  O212  1  0.00909150  -0.13532806  0.38022401  1
  O2-  O213  1  0.00762201  -0.11057936  0.55425878  1
  O2-  O214  1  0.01909981  -0.11459369  0.71480748  1
  O2-  O215  1  -0.00517532  0.64638553  -0.10971616  1
  O2-  O216  1  0.00410820  0.64489620  0.37195735  1
  O2-  O217  1  0.00665880  0.61087066  0.55090582  1
  O2-  O218  1  0.02231786  0.61617858  0.71854531  1
  O2-  O219  1  0.20721002  0.13488994  -0.01863985  1
  O2-  O220  1  0.24879198  0.15467820  0.16673560  1
  O2-  O221  1  0.26125827  -0.10869262  0.35707945  1
  O2-  O222  1  0.22118851  0.13053729  0.82017855  1
  O2-  O223  1  0.25655459  0.34569492  0.08759149  1
  O2-  O224  1  0.23574064  0.39697499  0.25755383  1
  O2-  O225  1  0.25494592  0.60145943  0.36032092  1
  O2-  O226  1  0.25548896  0.36566873  0.87804905  1
  O2-  O227  1  0.49529742  -0.13256661  -0.13097370  1
  O2-  O228  1  0.50332736  -0.17168667  0.36269131  1
  O2-  O229  1  0.53565705  -0.12874475  0.52846874  1
  O2-  O230  1  0.52451601  -0.14076611  0.68572199  1
  O2-  O231  1  0.49531167  0.65713229  -0.12099728  1
  O2-  O232  1  0.50315210  0.64090240  0.38025182  1
  O2-  O233  1  0.50608014  0.53121798  0.58673203  1
  O2-  O234  1  0.51277741  0.68079585  0.64055557  1
  O2-  O235  1  0.74105499  -0.08854212  0.11974525  1
  O2-  O236  1  0.74536749  0.14885173  0.15952475  1
  O2-  O237  1  0.74108879  0.14075488  0.37008583  1
  O2-  O238  1  0.74869519  -0.10769465  0.91375210  1
  O2-  O239  1  0.73931282  0.51654727  0.12517665  1
  O2-  O240  1  0.73965573  0.35188484  0.15311737  1
  O2-  O241  1  0.73922950  0.35116655  0.34926698  1
  O2-  O242  1  0.74036699  0.61439444  0.89126796  1
