# generated using pymatgen
data_Gd19Ta56(WO20)8
_symmetry_space_group_name_H-M   'P 1'
_cell_length_a   15.48829375
_cell_length_b   15.50916505
_cell_length_c   15.08215814
_cell_angle_alpha   89.89260090
_cell_angle_beta   89.35762023
_cell_angle_gamma   89.61227578
_symmetry_Int_Tables_number   1
_chemical_formula_structural   Gd19Ta56(WO20)8
_chemical_formula_sum   'Gd19 Ta56 W8 O160'
_cell_volume   3622.57630589
_cell_formula_units_Z   1
loop_
 _symmetry_equiv_pos_site_id
 _symmetry_equiv_pos_as_xyz
  1  'x, y, z'
loop_
 _atom_type_symbol
 _atom_type_oxidation_number
  Gd3+  3.0
  Ta5+  5.0
  W6+  6.0
  O2-  -2.0
loop_
 _atom_site_type_symbol
 _atom_site_label
 _atom_site_symmetry_multiplicity
 _atom_site_fract_x
 _atom_site_fract_y
 _atom_site_fract_z
 _atom_site_occupancy
  Gd3+  Gd0  1  0.26777003  0.25244426  0.47347799  1
  Gd3+  Gd1  1  -0.04346544  0.25388049  0.26810953  1
  Gd3+  Gd2  1  0.73982096  0.23276151  -0.00873506  1
  Gd3+  Gd3  1  0.25003780  0.22302055  -0.02006879  1
  Gd3+  Gd4  1  0.71192522  0.76831040  0.53866214  1
  Gd3+  Gd5  1  0.00565986  0.25963293  0.01298023  1
  Gd3+  Gd6  1  0.25049642  0.72286156  -0.02413702  1
  Gd3+  Gd7  1  0.00219958  0.28648488  0.74755250  1
  Gd3+  Gd8  1  -0.01056163  0.74617893  0.26844738  1
  Gd3+  Gd9  1  0.24455632  0.76926606  0.23462786  1
  Gd3+  Gd10  1  0.49976926  0.74936645  0.24575011  1
  Gd3+  Gd11  1  0.75361728  0.24603477  0.74270798  1
  Gd3+  Gd12  1  0.48063815  0.24381724  0.01445032  1
  Gd3+  Gd13  1  0.79792156  0.73623298  -0.00635465  1
  Gd3+  Gd14  1  0.26117593  0.75492506  0.73149024  1
  Gd3+  Gd15  1  0.27563735  0.24713380  0.23299848  1
  Gd3+  Gd16  1  0.73309162  0.25478505  0.49137822  1
  Gd3+  Gd17  1  -0.04785616  0.25378507  0.50814388  1
  Gd3+  Gd18  1  0.50085016  0.75772365  0.48740016  1
  Ta5+  Ta19  1  0.64838305  0.60019452  0.38630158  1
  Ta5+  Ta20  1  0.62161339  0.38849128  0.86072237  1
  Ta5+  Ta21  1  0.90410177  0.45806583  0.57984959  1
  Ta5+  Ta22  1  0.11069481  0.41091062  0.10210856  1
  Ta5+  Ta23  1  0.86365228  0.62173743  0.40148243  1
  Ta5+  Ta24  1  0.87373115  0.11410639  0.12011249  1
  Ta5+  Ta25  1  0.62685702  0.07287599  0.84796554  1
  Ta5+  Ta26  1  0.08813195  0.86033859  0.85431926  1
  Ta5+  Ta27  1  0.93189108  0.62356459  0.86769612  1
  Ta5+  Ta28  1  0.33986183  0.05749529  0.12075130  1
  Ta5+  Ta29  1  0.38318920  0.87286157  0.08723616  1
  Ta5+  Ta30  1  0.85226655  0.38265554  0.12977248  1
  Ta5+  Ta31  1  0.08729191  0.64819972  0.10432065  1
  Ta5+  Ta32  1  0.61101338  0.06561815  0.62746764  1
  Ta5+  Ta33  1  0.39793585  0.88507879  0.62891763  1
  Ta5+  Ta34  1  0.09922082  0.37867993  0.39400595  1
  Ta5+  Ta35  1  0.10739609  0.43816472  0.59882343  1
  Ta5+  Ta36  1  0.12504228  0.87122671  0.38413351  1
  Ta5+  Ta37  1  0.40209430  0.61493180  0.84625108  1
  Ta5+  Ta38  1  0.63840200  0.92337380  0.34934678  1
  Ta5+  Ta39  1  0.82526874  0.06982022  0.36704245  1
  Ta5+  Ta40  1  0.08566782  0.85945056  0.11028618  1
  Ta5+  Ta41  1  0.57287284  0.62676924  0.84810892  1
  Ta5+  Ta42  1  0.36069377  0.62319974  0.37921817  1
  Ta5+  Ta43  1  0.64276185  0.60788969  0.13895767  1
  Ta5+  Ta44  1  0.13011636  0.10366011  0.84024403  1
  Ta5+  Ta45  1  0.17855802  0.63981949  0.57670551  1
  Ta5+  Ta46  1  0.13390687  0.86658261  0.59508340  1
  Ta5+  Ta47  1  0.59476472  0.13217875  0.38955709  1
  Ta5+  Ta48  1  0.40072930  0.38182995  0.36616900  1
  Ta5+  Ta49  1  0.55384074  0.88141717  0.69393695  1
  Ta5+  Ta50  1  0.39819135  0.86494995  0.87369722  1
  Ta5+  Ta51  1  0.86703447  0.08809263  0.61658103  1
  Ta5+  Ta52  1  0.60029913  0.36468995  0.15827069  1
  Ta5+  Ta53  1  0.09809420  0.11720827  0.38944632  1
  Ta5+  Ta54  1  0.82864504  0.39748046  0.88451264  1
  Ta5+  Ta55  1  0.09412550  0.63787675  0.83636336  1
  Ta5+  Ta56  1  0.86160177  0.86530479  0.63038509  1
  Ta5+  Ta57  1  0.40362003  0.62065346  0.10809538  1
  Ta5+  Ta58  1  0.10916714  0.09915990  0.17952959  1
  Ta5+  Ta59  1  0.91855969  0.64479716  0.63839496  1
  Ta5+  Ta60  1  0.35155381  0.39550058  0.11414651  1
  Ta5+  Ta61  1  0.38755577  0.11018892  0.86327390  1
  Ta5+  Ta62  1  0.88461336  0.10679435  0.86362614  1
  Ta5+  Ta63  1  0.09221802  0.10647544  0.59966349  1
  Ta5+  Ta64  1  0.37939037  0.12152624  0.60779990  1
  Ta5+  Ta65  1  0.41784747  0.62182077  0.62993078  1
  Ta5+  Ta66  1  0.84426547  0.87131029  0.36120355  1
  Ta5+  Ta67  1  0.56106179  0.37299084  0.40713362  1
  Ta5+  Ta68  1  0.85770423  0.41563956  0.37555423  1
  Ta5+  Ta69  1  0.37350850  0.88842447  0.36536273  1
  Ta5+  Ta70  1  0.58632676  0.63125312  0.64884916  1
  Ta5+  Ta71  1  0.39285792  0.37323296  0.61322609  1
  Ta5+  Ta72  1  0.15192484  0.62162573  0.36600665  1
  Ta5+  Ta73  1  0.91823487  0.86769341  0.11017821  1
  Ta5+  Ta74  1  0.61284608  0.39931971  0.61527885  1
  W6+  W75  1  0.92243316  0.61629669  0.13079260  1
  W6+  W76  1  0.14792636  0.41621534  0.91229293  1
  W6+  W77  1  0.37850329  0.36923548  0.86150558  1
  W6+  W78  1  0.66856642  0.86757084  0.16387100  1
  W6+  W79  1  0.60289177  0.84031257  0.93541567  1
  W6+  W80  1  0.64309432  0.11865498  0.17894736  1
  W6+  W81  1  0.92510937  0.85620761  0.85012456  1
  W6+  W82  1  0.42487883  0.12745129  0.35742446  1
  O2-  O83  1  0.09639684  -0.01131675  0.14161011  1
  O2-  O84  1  0.11418030  -0.00147816  0.38369723  1
  O2-  O85  1  0.13781727  -0.00876918  0.59167424  1
  O2-  O86  1  0.10733423  -0.01209003  0.84900329  1
  O2-  O87  1  0.11876473  0.52982097  0.12615235  1
  O2-  O88  1  0.12663379  0.49651328  0.36805192  1
  O2-  O89  1  0.20006159  0.51437500  0.59853965  1
  O2-  O90  1  0.12362981  0.52129152  0.83762810  1
  O2-  O91  1  0.43983647  -0.01897253  0.11407410  1
  O2-  O92  1  0.41636751  -0.00601808  0.33816625  1
  O2-  O93  1  0.34731160  0.00635829  0.61866239  1
  O2-  O94  1  0.40507488  -0.00972879  0.87946883  1
  O2-  O95  1  0.34094586  0.52033369  0.12863904  1
  O2-  O96  1  0.38658131  0.50688239  0.36571676  1
  O2-  O97  1  0.40319331  0.49224574  0.62368097  1
  O2-  O98  1  0.40021828  0.49652621  0.84052304  1
  O2-  O99  1  0.67331444  -0.00859258  0.22742153  1
  O2-  O100  1  0.57520108  0.01075347  0.41322799  1
  O2-  O101  1  0.62061362  -0.05267754  0.59859097  1
  O2-  O102  1  0.63090540  -0.02406186  0.91609526  1
  O2-  O103  1  0.64415716  0.47237673  0.13236860  1
  O2-  O104  1  0.57951233  0.50366723  0.40050685  1
  O2-  O105  1  0.64070771  0.51548835  0.62808011  1
  O2-  O106  1  0.60810662  0.51062519  0.88451340  1
  O2-  O107  1  0.89985661  -0.00119450  0.10539849  1
  O2-  O108  1  0.91029600  -0.02158568  0.37589526  1
  O2-  O109  1  0.80585274  -0.01526847  0.62881832  1
  O2-  O110  1  0.90890429  -0.00528321  0.87043225  1
  O2-  O111  1  0.91614173  0.47972484  0.12788771  1
  O2-  O112  1  0.91851919  0.51122940  0.44803730  1
  O2-  O113  1  0.83805708  0.54670567  0.63822891  1
  O2-  O114  1  0.89401029  0.49603596  0.86222648  1
  O2-  O115  1  0.03504826  0.32687109  0.15694460  1
  O2-  O116  1  0.05341755  0.25213705  0.39333145  1
  O2-  O117  1  0.03572706  0.22160307  0.62363237  1
  O2-  O118  1  -0.00083634  0.14863868  0.82411562  1
  O2-  O119  1  0.16962310  0.75427594  0.10659398  1
  O2-  O120  1  0.16175189  0.75061518  0.37479905  1
  O2-  O121  1  0.20736622  0.76490410  0.57030961  1
  O2-  O122  1  0.16319723  0.75174732  0.85241803  1
  O2-  O123  1  0.34958329  0.26381981  0.09396690  1
  O2-  O124  1  0.36494416  0.25275889  0.35766287  1
  O2-  O125  1  0.33599291  0.24459540  0.60547644  1
  O2-  O126  1  0.38336353  0.23471434  0.90231188  1
  O2-  O127  1  0.34661625  0.73932610  0.10701222  1
  O2-  O128  1  0.39380008  0.75285497  0.37396481  1
  O2-  O129  1  0.39741551  0.75699812  0.62253296  1
  O2-  O130  1  0.35182733  0.74399529  0.85786647  1
  O2-  O131  1  0.62532409  0.25346112  0.09444463  1
  O2-  O132  1  0.58552775  0.24753978  0.43567375  1
  O2-  O133  1  0.68422503  0.29881472  0.62890631  1
  O2-  O134  1  0.66258591  0.26287206  0.86666331  1
  O2-  O135  1  0.61937014  0.72898345  0.16042641  1
  O2-  O136  1  0.56309243  0.68502789  0.36084150  1
  O2-  O137  1  0.59162563  0.77225465  0.64065902  1
  O2-  O138  1  0.58553104  0.70621614  0.93819021  1
  O2-  O139  1  0.87021791  0.25274684  0.14087795  1
  O2-  O140  1  0.85859255  0.27998700  0.38294262  1
  O2-  O141  1  0.83823922  0.21344304  0.60623157  1
  O2-  O142  1  0.87144343  0.28280487  0.83843071  1
  O2-  O143  1  0.87524827  0.74688255  0.12808302  1
  O2-  O144  1  0.89028441  0.75673596  0.37568642  1
  O2-  O145  1  0.83734921  0.74136522  0.65275452  1
  O2-  O146  1  0.87235277  0.73039983  0.85331076  1
  O2-  O147  1  0.11197330  0.16496798  -0.05165126  1
  O2-  O148  1  0.18274331  0.14125007  0.28839235  1
  O2-  O149  1  0.16976931  0.14661495  0.50099691  1
  O2-  O150  1  0.14578506  0.12879257  0.71514625  1
  O2-  O151  1  0.10974751  0.64999952  -0.02329714  1
  O2-  O152  1  0.10201572  0.64915733  0.24844761  1
  O2-  O153  1  0.09447550  0.63069981  0.48494847  1
  O2-  O154  1  0.14984909  0.65596912  0.69972551  1
  O2-  O155  1  0.36825798  0.11038350  0.01001435  1
  O2-  O156  1  0.36178844  0.12283616  0.22197989  1
  O2-  O157  1  0.35869485  0.12606505  0.48135146  1
  O2-  O158  1  0.39093356  0.12840151  0.74278865  1
  O2-  O159  1  0.37494008  0.62588994  -0.01941113  1
  O2-  O160  1  0.41695719  0.63321687  0.23922169  1
  O2-  O161  1  0.42121579  0.63089555  0.49607151  1
  O2-  O162  1  0.33379883  0.62588628  0.73307496  1
  O2-  O163  1  0.52408794  0.12968045  -0.11133827  1
  O2-  O164  1  0.71973264  0.14820798  0.36174626  1
  O2-  O165  1  0.66449563  0.12193355  0.53094749  1
  O2-  O166  1  0.66389940  0.12915901  0.72558027  1
  O2-  O167  1  0.73377966  0.62174445  0.06331304  1
  O2-  O168  1  0.67417245  0.59371666  0.26077055  1
  O2-  O169  1  0.61450889  0.65198664  0.51964461  1
  O2-  O170  1  0.65775786  0.64939230  0.75757073  1
  O2-  O171  1  0.89173052  0.15742741  -0.01519519  1
  O2-  O172  1  0.86001554  0.11681820  0.25046640  1
  O2-  O173  1  0.84496494  0.10902856  0.48512957  1
  O2-  O174  1  0.84366207  0.12080299  0.74232918  1
  O2-  O175  1  0.91073325  0.62758763  -0.00957794  1
  O2-  O176  1  0.91175800  0.61619104  0.28448293  1
  O2-  O177  1  0.91553645  0.66060628  0.51333741  1
  O2-  O178  1  0.98845260  0.65356128  0.74370020  1
  O2-  O179  1  0.14787649  0.31611138  0.01581444  1
  O2-  O180  1  0.19375862  0.32835267  0.33490083  1
  O2-  O181  1  0.16491100  0.36173192  0.50802842  1
  O2-  O182  1  0.10754911  0.37563560  0.70167145  1
  O2-  O183  1  0.10007566  0.86015568  -0.02004524  1
  O2-  O184  1  0.10809024  0.85083677  0.25037814  1
  O2-  O185  1  0.05913534  0.85460485  0.49052727  1
  O2-  O186  1  0.13360873  0.85392931  0.72095809  1
  O2-  O187  1  0.35472367  0.40287130  -0.00949061  1
  O2-  O188  1  0.37571697  0.37125394  0.24087990  1
  O2-  O189  1  0.34630743  0.37661235  0.48800663  1
  O2-  O190  1  0.40351846  0.34157641  0.73155763  1
  O2-  O191  1  0.30983955  0.86188534  -0.02094809  1
  O2-  O192  1  0.37753271  0.84548519  0.23028205  1
  O2-  O193  1  0.40783145  0.88373894  0.48912334  1
  O2-  O194  1  0.34843001  0.87988876  0.75488553  1
  O2-  O195  1  0.51653284  0.35097980  -0.08453965  1
  O2-  O196  1  0.59793377  0.35891759  0.28049044  1
  O2-  O197  1  0.66233345  0.38852876  0.49213163  1
  O2-  O198  1  0.58169608  0.38598727  0.74124282  1
  O2-  O199  1  0.69521350  0.83901373  0.03804729  1
  O2-  O200  1  0.56367740  0.87520405  0.26331382  1
  O2-  O201  1  0.62407033  0.83813014  0.44194074  1
  O2-  O202  1  0.51411378  0.84446424  0.82143295  1
  O2-  O203  1  0.87291736  0.34483426  0.00013139  1
  O2-  O204  1  0.81876096  0.39252910  0.25440591  1
  O2-  O205  1  0.83403101  0.38141975  0.50477729  1
  O2-  O206  1  0.91650831  0.37142246  0.66648431  1
  O2-  O207  1  0.89278921  0.85058145  -0.01235964  1
  O2-  O208  1  0.90616414  0.87130659  0.24613569  1
  O2-  O209  1  0.83005068  0.85516484  0.50253246  1
  O2-  O210  1  0.94924244  0.87717835  0.71007021  1
  O2-  O211  1  0.01031082  0.14940851  0.11672047  1
  O2-  O212  1  0.02430902  0.11943534  0.28305366  1
  O2-  O213  1  0.01197666  0.11424938  0.48711019  1
  O2-  O214  1  -0.02009724  0.05673760  0.64353705  1
  O2-  O215  1  0.04200986  0.42761579  -0.00638726  1
  O2-  O216  1  -0.02071698  0.39317336  0.33507739  1
  O2-  O217  1  0.01286455  0.39126455  0.51334069  1
  O2-  O218  1  0.00914654  0.52423814  0.61701776  1
  O2-  O219  1  0.21560439  0.13139948  0.11484951  1
  O2-  O220  1  0.27917118  -0.04918585  0.12756190  1
  O2-  O221  1  0.25335752  -0.10649082  0.36166943  1
  O2-  O222  1  0.25558900  0.11021974  0.86577166  1
  O2-  O223  1  0.22854251  0.38224331  0.14783102  1
  O2-  O224  1  0.26163063  0.63331007  0.29327327  1
  O2-  O225  1  0.25667662  0.61987280  0.45719527  1
  O2-  O226  1  0.24413706  0.33943122  0.86726507  1
  O2-  O227  1  0.47032853  -0.15564410  -0.00366603  1
  O2-  O228  1  0.54178124  0.14490807  0.27400006  1
  O2-  O229  1  0.50200740  0.11633489  0.60369234  1
  O2-  O230  1  0.56861867  0.00634000  0.75222792  1
  O2-  O231  1  0.52250326  0.59456002  0.09377261  1
  O2-  O232  1  0.48886959  0.36963289  0.10774291  1
  O2-  O233  1  0.50830192  0.35662212  0.55923372  1
  O2-  O234  1  0.49018843  0.66550562  0.74713310  1
  O2-  O235  1  0.75566541  0.11855035  0.08872593  1
  O2-  O236  1  0.73811534  -0.15742348  0.29824779  1
  O2-  O237  1  0.75064269  -0.02576553  0.39593860  1
  O2-  O238  1  0.74692018  0.11614934  0.88718602  1
  O2-  O239  1  0.72168455  0.39351501  -0.04283315  1
  O2-  O240  1  0.77695284  0.52077132  0.38294341  1
  O2-  O241  1  0.74984518  0.67505815  0.42541355  1
  O2-  O242  1  0.74764981  0.39566303  0.78913996  1
