# generated using pymatgen
data_In2Te3
_symmetry_space_group_name_H-M   'P 1'
_cell_length_a   18.97747533
_cell_length_b   18.98423773
_cell_length_c   18.99009594
_cell_angle_alpha   90.06035602
_cell_angle_beta   90.10309508
_cell_angle_gamma   89.66481548
_symmetry_Int_Tables_number   1
_chemical_formula_structural   In2Te3
_chemical_formula_sum   'In72 Te108'
_cell_volume   6841.48513047
_cell_formula_units_Z   36
loop_
 _symmetry_equiv_pos_site_id
 _symmetry_equiv_pos_as_xyz
  1  'x, y, z'
loop_
 _atom_site_type_symbol
 _atom_site_label
 _atom_site_symmetry_multiplicity
 _atom_site_fract_x
 _atom_site_fract_y
 _atom_site_fract_z
 _atom_site_occupancy
  In  In0  1  0.13210048  0.83603940  0.31909500  1
  In  In1  1  0.50892868  0.49377672  0.28650793  1
  In  In2  1  0.82949215  0.67455106  0.16492302  1
  In  In3  1  0.34877793  0.67492601  0.68239779  1
  In  In4  1  0.16349920  0.83406661  -0.00863779  1
  In  In5  1  0.68809182  0.83989405  0.51706916  1
  In  In6  1  0.34577713  0.01438572  0.68782529  1
  In  In7  1  -0.02224165  0.65923966  0.32373584  1
  In  In8  1  0.66728968  0.18502620  0.17911958  1
  In  In9  1  -0.04180657  0.12896380  0.19020234  1
  In  In10  1  0.34281050  0.32299166  -0.01597853  1
  In  In11  1  0.49483265  0.66027426  0.14451958  1
  In  In12  1  0.14529616  0.54211803  -0.02069973  1
  In  In13  1  0.15627018  0.13894157  0.00685289  1
  In  In14  1  0.50533841  0.82563546  0.67003794  1
  In  In15  1  0.50525166  0.83717001  -0.01099927  1
  In  In16  1  0.47804501  0.64787484  0.48258967  1
  In  In17  1  0.33650429  0.14471750  0.16967961  1
  In  In18  1  0.64621907  0.50325604  0.82390856  1
  In  In19  1  0.65322331  0.65389681  0.66833010  1
  In  In20  1  0.28863046  0.68312075  0.33257330  1
  In  In21  1  0.50147355  0.34448597  0.52606466  1
  In  In22  1  0.85051118  0.68714632  0.51362702  1
  In  In23  1  0.49393041  0.35436789  0.82106311  1
  In  In24  1  0.03401691  0.52296512  0.82756432  1
  In  In25  1  -0.01300139  0.19118000  0.50051199  1
  In  In26  1  0.66703184  0.17436207  0.49083004  1
  In  In27  1  0.83504788  0.33764321  0.22137408  1
  In  In28  1  0.83300803  0.52614875  0.65019499  1
  In  In29  1  0.33116962  0.33948910  0.38899374  1
  In  In30  1  0.32640670  -0.01393780  -0.03154118  1
  In  In31  1  0.66161443  0.66551586  0.01412394  1
  In  In32  1  0.17048099  0.13463331  0.31865729  1
  In  In33  1  0.85933636  0.69287408  0.83870221  1
  In  In34  1  0.31944060  0.68307410  -0.02968771  1
  In  In35  1  0.87615668  0.35552155  0.81768313  1
  In  In36  1  0.85388103  -0.03816921  0.50203005  1
  In  In37  1  0.31133703  0.51774576  0.14211821  1
  In  In38  1  0.52418876  0.84547287  0.31178879  1
  In  In39  1  0.66366432  0.15414950  0.86799626  1
  In  In40  1  0.17346180  -0.02097910  0.83422714  1
  In  In41  1  0.33263794  0.80367826  0.51012584  1
  In  In42  1  0.69036110  0.67105761  0.32835434  1
  In  In43  1  0.81249880  0.51521495  0.01148295  1
  In  In44  1  -0.00281537  0.52070530  0.49634817  1
  In  In45  1  0.83890548  0.00174987  0.84927131  1
  In  In46  1  0.50252480  0.02482671  0.50520730  1
  In  In47  1  0.67457615  -0.01002390  0.00583655  1
  In  In48  1  0.66536417  0.32940468  0.65894960  1
  In  In49  1  0.15912386  0.50377826  0.35101165  1
  In  In50  1  0.80402725  0.16608252  0.00690566  1
  In  In51  1  0.32684203  -0.01962846  0.33221841  1
  In  In52  1  0.00107365  0.35345368  0.67806270  1
  In  In53  1  0.51923494  0.18308587  0.35066987  1
  In  In54  1  0.50007365  0.31390575  0.15938727  1
  In  In55  1  0.66343299  0.82813583  0.81734397  1
  In  In56  1  0.17119023  0.32793068  0.19341663  1
  In  In57  1  0.18613029  0.32139365  0.83611293  1
  In  In58  1  0.82173015  0.15252479  0.65201145  1
  In  In59  1  0.15974811  0.66512138  0.52199792  1
  In  In60  1  -0.00629361  0.34996439  0.03440463  1
  In  In61  1  -0.00354102  -0.05756675  0.68226758  1
  In  In62  1  0.14956309  -0.00834466  0.51722646  1
  In  In63  1  0.50434801  0.00605309  0.14030033  1
  In  In64  1  0.02900792  0.15019908  0.83626122  1
  In  In65  1  -0.00529146  -0.07833436  0.06547054  1
  In  In66  1  0.34161271  0.51528325  0.82991240  1
  In  In67  1  0.70214936  -0.01836765  0.31863733  1
  In  In68  1  -0.00674066  0.51479350  0.17239466  1
  In  In69  1  0.66746104  0.33485033  0.00664038  1
  In  In70  1  0.32606394  0.22517205  0.52920499  1
  In  In71  1  0.18595212  0.17440777  0.67610315  1
  Te  Te72  1  0.05466333  0.06536885  0.08872172  1
  Te  Te73  1  0.07554198  0.08732081  0.42660072  1
  Te  Te74  1  0.08880744  0.06457663  0.72505873  1
  Te  Te75  1  0.10628811  0.43127096  0.09517901  1
  Te  Te76  1  0.05850946  0.41503142  0.41011850  1
  Te  Te77  1  0.11655600  0.42380589  0.74606100  1
  Te  Te78  1  0.05421996  0.78606103  0.08098098  1
  Te  Te79  1  0.07613441  0.73232979  0.41344924  1
  Te  Te80  1  0.03103021  0.79816889  0.72129966  1
  Te  Te81  1  0.41067291  0.08563242  0.05300806  1
  Te  Te82  1  0.40980536  0.08635055  0.40106596  1
  Te  Te83  1  0.37995329  0.09816191  0.80194543  1
  Te  Te84  1  0.40878905  0.41347568  0.08689573  1
  Te  Te85  1  0.44473002  0.43318060  0.41004107  1
  Te  Te86  1  0.38454926  0.40846212  0.73660532  1
  Te  Te87  1  0.40705049  0.75961445  0.07387152  1
  Te  Te88  1  0.41895513  0.76284462  0.38868987  1
  Te  Te89  1  0.41624329  0.77098825  0.77389002  1
  Te  Te90  1  0.74833979  0.07356745  0.11065560  1
  Te  Te91  1  0.75338166  0.05935817  0.43646548  1
  Te  Te92  1  0.74557815  0.08129719  0.76096740  1
  Te  Te93  1  0.76272579  0.40633380  0.10047809  1
  Te  Te94  1  0.81848160  0.36109009  0.36977671  1
  Te  Te95  1  0.76225516  0.42720234  0.74453695  1
  Te  Te96  1  0.76503754  0.75787312  0.06006915  1
  Te  Te97  1  0.77107933  0.76939497  0.41233387  1
  Te  Te98  1  0.75570823  0.74183575  0.73169247  1
  Te  Te99  1  0.07518874  0.22086982  0.23610984  1
  Te  Te100  1  0.08700133  0.25857611  0.59475667  1
  Te  Te101  1  0.07526098  0.26372421  0.92993215  1
  Te  Te102  1  0.09568389  0.59621081  0.24869602  1
  Te  Te103  1  0.07152018  0.58399477  0.60540517  1
  Te  Te104  1  0.07960116  0.65155889  0.89524252  1
  Te  Te105  1  0.04383378  0.94773746  0.27662372  1
  Te  Te106  1  0.05466827  0.88244267  0.55555887  1
  Te  Te107  1  0.06555509  0.93302729  0.92484580  1
  Te  Te108  1  0.40686597  0.24508709  0.25907073  1
  Te  Te109  1  0.45745621  0.22244434  0.59614133  1
  Te  Te110  1  0.43192793  0.24419703  0.89902855  1
  Te  Te111  1  0.39197607  0.59706818  0.24581383  1
  Te  Te112  1  0.39972029  0.57873550  0.58278543  1
  Te  Te113  1  0.41614388  0.57878300  0.93777092  1
  Te  Te114  1  0.41885130  0.91659219  0.22870005  1
  Te  Te115  1  0.41515380  0.91517260  0.57202235  1
  Te  Te116  1  0.41008215  0.89392482  0.88843286  1
  Te  Te117  1  0.76372020  0.21958332  0.28790618  1
  Te  Te118  1  0.76736465  0.26433900  0.56799746  1
  Te  Te119  1  0.77303421  0.28145777  0.90818271  1
  Te  Te120  1  0.76650358  0.57315523  0.24919871  1
  Te  Te121  1  0.73462354  0.59161060  0.55682293  1
  Te  Te122  1  0.75404256  0.58814429  0.89164980  1
  Te  Te123  1  0.78293231  0.88247872  0.24571754  1
  Te  Te124  1  0.76262942  0.92331572  0.60962063  1
  Te  Te125  1  0.75560154  0.89619397  0.91863893  1
  Te  Te126  1  0.24570791  0.24292225  0.08482278  1
  Te  Te127  1  0.21478086  0.24480896  0.41102738  1
  Te  Te128  1  0.28217074  0.26977839  0.73594594  1
  Te  Te129  1  0.22387159  0.62333957  0.07970792  1
  Te  Te130  1  0.25704304  0.58105751  0.43809620  1
  Te  Te131  1  0.24666584  0.60795398  0.76604059  1
  Te  Te132  1  0.24518903  0.92619532  0.07268396  1
  Te  Te133  1  0.23854910  0.90035689  0.42634200  1
  Te  Te134  1  0.24174308  0.91743918  0.72011058  1
  Te  Te135  1  0.57911018  0.22579516  0.06290486  1
  Te  Te136  1  0.59885169  0.28948842  0.41889919  1
  Te  Te137  1  0.59967659  0.25296879  0.77033324  1
  Te  Te138  1  0.59511975  0.56530110  0.09575452  1
  Te  Te139  1  0.57914131  0.58482661  0.38845116  1
  Te  Te140  1  0.55218073  0.58150519  0.74373454  1
  Te  Te141  1  0.59739909  0.89528174  0.09577038  1
  Te  Te142  1  0.58876680  0.92630265  0.42265474  1
  Te  Te143  1  0.58586029  0.92525681  0.73901493  1
  Te  Te144  1  0.90627091  0.24364778  0.09531437  1
  Te  Te145  1  0.89460949  0.22862152  0.38990572  1
  Te  Te146  1  0.92619765  0.22885559  0.74577832  1
  Te  Te147  1  0.92763022  0.59652179  0.06441714  1
  Te  Te148  1  0.88599251  0.57837772  0.41087286  1
  Te  Te149  1  0.92900450  0.59613264  0.74251066  1
  Te  Te150  1  0.85523546  0.90963517  0.11129894  1
  Te  Te151  1  0.94288311  0.91512846  0.39287194  1
  Te  Te152  1  0.91013386  0.88334810  0.78871297  1
  Te  Te153  1  0.23843836  0.04115608  0.22035160  1
  Te  Te154  1  0.26158435  0.08677602  0.56921080  1
  Te  Te155  1  0.25010084  0.10570848  0.88909088  1
  Te  Te156  1  0.26427128  0.42580086  0.26208387  1
  Te  Te157  1  0.27705902  0.36375360  0.52561740  1
  Te  Te158  1  0.24097026  0.42728402  0.93246385  1
  Te  Te159  1  0.24110080  0.78194770  0.23738273  1
  Te  Te160  1  0.23420636  0.76032837  0.61271502  1
  Te  Te161  1  0.22443589  0.75474674  0.88109315  1
  Te  Te162  1  0.58101683  0.07761436  0.25652602  1
  Te  Te163  1  0.59226884  0.09922774  0.59378848  1
  Te  Te164  1  0.57540402  0.05051240  0.91632316  1
  Te  Te165  1  0.59906288  0.38947984  0.23649850  1
  Te  Te166  1  0.58165561  0.43721487  0.60710493  1
  Te  Te167  1  0.57384135  0.42722536  0.93210642  1
  Te  Te168  1  0.59449430  0.73997542  0.23151741  1
  Te  Te169  1  0.57591446  0.74481465  0.55607215  1
  Te  Te170  1  0.58186097  0.73501755  0.90637479  1
  Te  Te171  1  0.91155971  0.03194890  0.29209626  1
  Te  Te172  1  0.93108613  0.07486106  0.58328268  1
  Te  Te173  1  0.91862624  0.10015890  0.92938734  1
  Te  Te174  1  0.96016839  0.40872802  0.26967362  1
  Te  Te175  1  0.90994744  0.41792713  0.57736365  1
  Te  Te176  1  0.93890878  0.44450761  0.92450778  1
  Te  Te177  1  0.91833415  0.76627186  0.24046608  1
  Te  Te178  1  0.94519840  0.76722359  0.59425686  1
  Te  Te179  1  0.95689660  0.73285553  0.94262417  1
