# generated using pymatgen
data_In2Te3
_symmetry_space_group_name_H-M   'P 1'
_cell_length_a   18.92318726
_cell_length_b   18.89571759
_cell_length_c   18.93435990
_cell_angle_alpha   89.98328699
_cell_angle_beta   90.08765344
_cell_angle_gamma   90.21808412
_symmetry_Int_Tables_number   1
_chemical_formula_structural   In2Te3
_chemical_formula_sum   'In72 Te108'
_cell_volume   6770.24885545
_cell_formula_units_Z   36
loop_
 _symmetry_equiv_pos_site_id
 _symmetry_equiv_pos_as_xyz
  1  'x, y, z'
loop_
 _atom_site_type_symbol
 _atom_site_label
 _atom_site_symmetry_multiplicity
 _atom_site_fract_x
 _atom_site_fract_y
 _atom_site_fract_z
 _atom_site_occupancy
  In  In0  1  0.15404902  0.84503651  0.65493155  1
  In  In1  1  0.33729400  0.86316983  0.51246566  1
  In  In2  1  0.13524519  0.32271247  0.49492817  1
  In  In3  1  0.01595095  0.50604875  0.16859781  1
  In  In4  1  0.50143142  0.69419433  0.83991654  1
  In  In5  1  0.17877298  0.32952440  0.17359222  1
  In  In6  1  0.84668159  0.66744998  0.17714302  1
  In  In7  1  -0.01518856  0.67004504  0.67508146  1
  In  In8  1  0.67538565  0.49568923  0.49415669  1
  In  In9  1  0.81727522  0.32036046  0.52346265  1
  In  In10  1  0.32178490  0.17587731  0.84669597  1
  In  In11  1  0.81456031  0.13494176  0.36210119  1
  In  In12  1  0.50229467  0.49180570  0.67454257  1
  In  In13  1  0.15827260  0.51106556  -0.01872767  1
  In  In14  1  0.84793057  0.50045754  0.65964349  1
  In  In15  1  0.50127597  0.14639754  -0.01504075  1
  In  In16  1  0.17333314  0.17980418  0.31329671  1
  In  In17  1  0.33197927  0.00737834  0.66955967  1
  In  In18  1  0.81702928  0.11110567  -0.03244623  1
  In  In19  1  -0.01947819  0.31257475  -0.01293841  1
  In  In20  1  0.16976130  0.33180453  0.83113241  1
  In  In21  1  0.54151004  0.86358911  0.36486770  1
  In  In22  1  0.35370856  0.84898632  0.19205552  1
  In  In23  1  0.66169567  0.29191053  0.64178247  1
  In  In24  1  0.32571402  0.81337137  0.83979737  1
  In  In25  1  0.49026289  0.35284741  0.84014542  1
  In  In26  1  -0.00438444  0.16722902  0.80455490  1
  In  In27  1  0.15407730  0.86582931  0.02070689  1
  In  In28  1  0.65607053  0.83556553  0.15896845  1
  In  In29  1  0.84393190  0.30496103  0.15457022  1
  In  In30  1  -0.00859828  -0.01204888  0.33273265  1
  In  In31  1  0.35819151  0.66963086  0.00798454  1
  In  In32  1  0.66602497  0.72400987  0.66753521  1
  In  In33  1  0.84048151  0.32213545  0.81532476  1
  In  In34  1  0.32844132  0.49195584  0.51644988  1
  In  In35  1  0.01313485  0.31868529  0.32318173  1
  In  In36  1  0.82846134  0.67683664  0.49885517  1
  In  In37  1  0.52254778  -0.03284026  0.80481938  1
  In  In38  1  0.52633455  0.67456596  0.50769771  1
  In  In39  1  0.65297948  0.30129476  0.00570444  1
  In  In40  1  0.14854102  0.02186621  0.84190714  1
  In  In41  1  0.31372327  0.50164427  0.84056836  1
  In  In42  1  -0.00887654  0.71063763  -0.01513375  1
  In  In43  1  0.81500789  0.87010386  0.36719346  1
  In  In44  1  0.81725685  0.50335672  0.33503014  1
  In  In45  1  0.68476173  0.50925587  0.82627344  1
  In  In46  1  0.32676408  0.33681093  0.33008993  1
  In  In47  1  0.35136235  0.64951770  0.35765436  1
  In  In48  1  0.16002937  0.68269673  0.81277925  1
  In  In49  1  0.47499681  0.25204459  0.46165394  1
  In  In50  1  0.16596636  0.50373866  0.67470216  1
  In  In51  1  0.35539322  0.46136657  0.16960645  1
  In  In52  1  0.62261137  0.27619385  0.30829633  1
  In  In53  1  0.67400124  0.13007060  0.77597774  1
  In  In54  1  0.50850077  0.13868991  0.64274239  1
  In  In55  1  0.82618452  -0.00210025  0.16698492  1
  In  In56  1  0.35978149  0.15651397  0.15513534  1
  In  In57  1  0.15572273  0.84777822  0.31096679  1
  In  In58  1  0.82188465  0.86474249  0.65730512  1
  In  In59  1  0.17163601  0.67241718  0.14933869  1
  In  In60  1  0.52757836  0.86487926  -0.00106421  1
  In  In61  1  0.81422053  0.87528278  -0.01124494  1
  In  In62  1  0.37294584  0.03805939  0.34488987  1
  In  In63  1  -0.02997401  0.67910184  0.33362143  1
  In  In64  1  -0.02533804  0.13965746  0.51241020  1
  In  In65  1  0.50259554  0.48401318  0.31070423  1
  In  In66  1  0.69335414  0.68658648  0.31724147  1
  In  In67  1  0.64647420  0.64563329  0.03168575  1
  In  In68  1  0.15296466  0.12691347  0.03024030  1
  In  In69  1  0.17546834  0.00594134  0.49997045  1
  In  In70  1  0.16461698  0.69259781  0.50268281  1
  In  In71  1  0.82441320  0.48274633  0.00269510  1
  Te  Te72  1  0.05476435  0.03038069  0.08229587  1
  Te  Te73  1  0.08485308  0.09648793  0.40665166  1
  Te  Te74  1  0.10308699  0.10046330  0.72579998  1
  Te  Te75  1  0.07791990  0.40652052  0.07147693  1
  Te  Te76  1  0.08273038  0.42167532  0.39959362  1
  Te  Te77  1  0.07989699  0.42362457  0.76169544  1
  Te  Te78  1  0.06372841  0.76784096  0.10495243  1
  Te  Te79  1  0.07225189  0.76801636  0.40973109  1
  Te  Te80  1  0.05967576  0.77849217  0.75416360  1
  Te  Te81  1  0.42700739  0.05426068  0.07442774  1
  Te  Te82  1  0.41891389  0.10965294  0.46499838  1
  Te  Te83  1  0.42533606  0.08887375  0.76766566  1
  Te  Te84  1  0.47285394  0.41856327  0.09364759  1
  Te  Te85  1  0.42438016  0.41601052  0.42349872  1
  Te  Te86  1  0.39056418  0.41297076  0.74293244  1
  Te  Te87  1  0.43499522  0.77327042  0.08501626  1
  Te  Te88  1  0.42532099  0.76644384  0.42062869  1
  Te  Te89  1  0.42551772  0.77038703  0.74066474  1
  Te  Te90  1  0.72940337  0.07532697  0.08288737  1
  Te  Te91  1  0.75974073  0.01413672  0.43478680  1
  Te  Te92  1  0.81185799  0.07409548  0.74750418  1
  Te  Te93  1  0.74032007  0.39767101  0.09268812  1
  Te  Te94  1  0.74011666  0.39217651  0.40454357  1
  Te  Te95  1  0.73828871  0.40515555  0.72809351  1
  Te  Te96  1  0.76263660  0.75595210  0.08495136  1
  Te  Te97  1  0.72369595  0.76798458  0.43988990  1
  Te  Te98  1  0.77227959  0.76582121  0.76026284  1
  Te  Te99  1  0.06896733  0.23098274  0.21318827  1
  Te  Te100  1  0.05858695  0.23673171  0.58806597  1
  Te  Te101  1  0.08942023  0.22839386  0.92462237  1
  Te  Te102  1  0.08196135  0.60697905  0.25864386  1
  Te  Te103  1  0.08141715  0.59487087  0.58508089  1
  Te  Te104  1  0.06772957  0.60156419  0.90297263  1
  Te  Te105  1  0.09143263  0.95227386  0.22724125  1
  Te  Te106  1  0.07015746  0.92626406  0.56592600  1
  Te  Te107  1  0.07341711  0.91412644  0.90882005  1
  Te  Te108  1  0.42451325  0.24698304  0.25889124  1
  Te  Te109  1  0.43163508  0.25569271  0.60164773  1
  Te  Te110  1  0.41330634  0.26168860  0.93358334  1
  Te  Te111  1  0.41851046  0.58823710  0.23853588  1
  Te  Te112  1  0.42550617  0.58868085  0.58429433  1
  Te  Te113  1  0.42682690  0.57738495  0.90919885  1
  Te  Te114  1  0.45613790  0.94006625  0.26456712  1
  Te  Te115  1  0.43687690  0.93706617  0.59150412  1
  Te  Te116  1  0.42022866  0.91585300  0.90489380  1
  Te  Te117  1  0.75802555  0.22792677  0.25201805  1
  Te  Te118  1  0.74184758  0.19909465  0.56059147  1
  Te  Te119  1  0.75272602  0.23974436  0.90581724  1
  Te  Te120  1  0.73601458  0.57230250  0.22642029  1
  Te  Te121  1  0.73490868  0.59722320  0.59034176  1
  Te  Te122  1  0.75225530  0.59554067  0.93158568  1
  Te  Te123  1  0.72505690  0.92950822  0.25748389  1
  Te  Te124  1  0.71718443  0.93847286  0.57898921  1
  Te  Te125  1  0.72288260  0.94949616  0.89350875  1
  Te  Te126  1  0.25247961  0.23733137  0.08186730  1
  Te  Te127  1  0.25007544  0.24774962  0.42494088  1
  Te  Te128  1  0.23158563  0.22998763  0.74375112  1
  Te  Te129  1  0.26037966  0.56645950  0.08302765  1
  Te  Te130  1  0.23891282  0.57994580  0.42966653  1
  Te  Te131  1  0.26444102  0.60227679  0.73886233  1
  Te  Te132  1  0.26737182  0.91980943  0.09653376  1
  Te  Te133  1  0.26188575  0.92398952  0.39459722  1
  Te  Te134  1  0.24306193  0.91576401  0.76020166  1
  Te  Te135  1  0.58425002  0.20621338  0.09334417  1
  Te  Te136  1  0.60308121  0.18224907  0.42738259  1
  Te  Te137  1  0.57765710  0.25422660  0.76502724  1
  Te  Te138  1  0.54015794  0.55885158  0.07910423  1
  Te  Te139  1  0.59037379  0.58249149  0.40174344  1
  Te  Te140  1  0.58864834  0.59761669  0.74634424  1
  Te  Te141  1  0.60367930  0.95622191  0.08857800  1
  Te  Te142  1  0.61108445  0.96329151  0.44781863  1
  Te  Te143  1  0.64405067  0.88217364  0.78374837  1
  Te  Te144  1  0.90501910  0.20494484  0.05984581  1
  Te  Te145  1  0.91358450  0.24793714  0.41329485  1
  Te  Te146  1  0.92012154  0.25555475  0.71183152  1
  Te  Te147  1  0.92686230  0.58498033  0.07278896  1
  Te  Te148  1  0.91439582  0.57329078  0.42869591  1
  Te  Te149  1  0.90106287  0.58767514  0.76335850  1
  Te  Te150  1  0.92439601  0.93367741  0.07462070  1
  Te  Te151  1  0.92944590  0.92120411  0.44854778  1
  Te  Te152  1  0.91497103  0.95743504  0.73279066  1
  Te  Te153  1  0.26377554  0.07913799  0.24690327  1
  Te  Te154  1  0.25740149  0.09707969  0.58013926  1
  Te  Te155  1  0.25797827  0.06979922  0.93573459  1
  Te  Te156  1  0.23573058  0.43797245  0.26253226  1
  Te  Te157  1  0.23572990  0.39958966  0.58983164  1
  Te  Te158  1  0.25536074  0.40226993  0.93847679  1
  Te  Te159  1  0.25927622  0.73942380  0.25751998  1
  Te  Te160  1  0.26466908  0.75825034  0.59555389  1
  Te  Te161  1  0.23832972  0.73615805  0.93893869  1
  Te  Te162  1  0.54791562  0.14784575  0.28222693  1
  Te  Te163  1  0.63248725  0.05692418  0.64650415  1
  Te  Te164  1  0.59973160  0.06736091  0.89582960  1
  Te  Te165  1  0.57870473  0.39165140  0.22404847  1
  Te  Te166  1  0.58295736  0.40796881  0.57637719  1
  Te  Te167  1  0.60271106  0.41983307  0.91738083  1
  Te  Te168  1  0.57366018  0.75292196  0.25622203  1
  Te  Te169  1  0.55465998  0.78879075  0.59747358  1
  Te  Te170  1  0.60623620  0.75337050  0.93146462  1
  Te  Te171  1  0.91148048  0.08973928  0.25462856  1
  Te  Te172  1  0.89525804  0.06490469  0.61516009  1
  Te  Te173  1  0.92912744  0.05844983  0.88463180  1
  Te  Te174  1  0.91144193  0.42082584  0.24106131  1
  Te  Te175  1  0.92005894  0.41582029  0.56623657  1
  Te  Te176  1  0.91923749  0.42181556  0.90144585  1
  Te  Te177  1  0.89611599  0.78588774  0.25870670  1
  Te  Te178  1  0.91634073  0.76661427  0.58024018  1
  Te  Te179  1  0.89678877  0.78612351  0.90246730  1
