# generated using pymatgen
data_In2Te3
_symmetry_space_group_name_H-M   'P 1'
_cell_length_a   18.82013286
_cell_length_b   18.79830689
_cell_length_c   18.81059030
_cell_angle_alpha   90.09877506
_cell_angle_beta   90.08725390
_cell_angle_gamma   90.06124110
_symmetry_Int_Tables_number   1
_chemical_formula_structural   In2Te3
_chemical_formula_sum   'In72 Te108'
_cell_volume   6654.91398182
_cell_formula_units_Z   36
loop_
 _symmetry_equiv_pos_site_id
 _symmetry_equiv_pos_as_xyz
  1  'x, y, z'
loop_
 _atom_site_type_symbol
 _atom_site_label
 _atom_site_symmetry_multiplicity
 _atom_site_fract_x
 _atom_site_fract_y
 _atom_site_fract_z
 _atom_site_occupancy
  In  In0  1  -0.01157542  0.82233347  0.82680844  1
  In  In1  1  0.86152509  0.15421100  0.33755151  1
  In  In2  1  0.49157286  0.31326832  0.52669672  1
  In  In3  1  0.14695894  0.68758933  0.80943115  1
  In  In4  1  0.48020339  0.15054817  0.66994255  1
  In  In5  1  0.68095646  0.84247158  0.84183406  1
  In  In6  1  0.31119869  0.32574866  0.34274723  1
  In  In7  1  0.83985380  0.31790477  0.80952612  1
  In  In8  1  0.51379164  0.00081250  0.13562485  1
  In  In9  1  0.48677334  0.16242961  0.33024911  1
  In  In10  1  0.48951693  0.51292067  0.32019608  1
  In  In11  1  0.66973601  0.51083631  0.15237793  1
  In  In12  1  0.00722327  0.15417426  0.18418844  1
  In  In13  1  0.66826141  0.35388946  0.66923733  1
  In  In14  1  0.13091416  0.83970716  0.36837680  1
  In  In15  1  0.49917207  0.83552383  0.69706585  1
  In  In16  1  0.19293043  0.49415250  0.00882166  1
  In  In17  1  0.50748825  0.33645628  0.15473136  1
  In  In18  1  0.84524393  0.85298479  0.66831579  1
  In  In19  1  -0.03169593  0.00596900  -0.02052451  1
  In  In20  1  0.66750153  0.66048751  -0.00163706  1
  In  In21  1  -0.01424330  0.48905597  0.49423663  1
  In  In22  1  0.48858642  0.66855715  0.50212820  1
  In  In23  1  -0.00610378  0.14735275  0.50921952  1
  In  In24  1  0.15816074  0.49017939  0.64897551  1
  In  In25  1  0.33961709  0.32191624  -0.00740835  1
  In  In26  1  0.28983284  0.03223375  0.68982305  1
  In  In27  1  -0.00683107  0.29436938  0.67006112  1
  In  In28  1  0.84456367  0.48084756  0.33486065  1
  In  In29  1  0.34967573  0.00525830  -0.01506599  1
  In  In30  1  0.14330341  0.84111685  -0.01420087  1
  In  In31  1  0.83266813  0.31530436  0.48121838  1
  In  In32  1  0.18085390  0.00463001  0.17924505  1
  In  In33  1  0.67284185  0.15147368  0.83229100  1
  In  In34  1  0.34139177  0.81461724  0.15945405  1
  In  In35  1  -0.02193597  0.69064028  0.65761710  1
  In  In36  1  0.52193688  0.82585673  0.30230580  1
  In  In37  1  0.49964344  0.00657322  0.50493805  1
  In  In38  1  0.64999937  0.68937981  0.32302192  1
  In  In39  1  0.32468440  0.83148761  0.49238263  1
  In  In40  1  0.86555940  0.85269819  0.33894572  1
  In  In41  1  0.71840561  0.33492130  0.32729158  1
  In  In42  1  0.33968420  0.50243515  0.83233639  1
  In  In43  1  0.65449939  0.15109732  0.47934417  1
  In  In44  1  0.00150103  0.47749494  0.83899588  1
  In  In45  1  0.13946009  0.64445325  0.21246177  1
  In  In46  1  0.66248074  0.32974995  -0.01475132  1
  In  In47  1  0.32785077  0.69575700  0.65061146  1
  In  In48  1  0.35622355  0.49605740  0.17043701  1
  In  In49  1  -0.00787042  0.84265748  0.14689965  1
  In  In50  1  0.82294607  0.51208507  0.67999329  1
  In  In51  1  0.33122895  0.86360845  0.82917943  1
  In  In52  1  0.17879488  0.15702365  -0.01453163  1
  In  In53  1  0.84813783  0.31272199  0.17801525  1
  In  In54  1  0.32437123  0.01082443  0.33806187  1
  In  In55  1  0.30532937  0.49800362  0.48805030  1
  In  In56  1  0.00836379  0.32015895  -0.00104891  1
  In  In57  1  0.69657278  0.00272895  0.33804867  1
  In  In58  1  0.82210409  0.68278252  0.86106012  1
  In  In59  1  0.14726020  0.33627245  0.16820029  1
  In  In60  1  0.67089310  0.82895395  0.52190957  1
  In  In61  1  0.31621258  0.64647541  0.31689895  1
  In  In62  1  0.49141117  0.16747582  -0.00920564  1
  In  In63  1  0.51383647  0.51997223  0.70271898  1
  In  In64  1  0.14448904  0.33682291  0.49353262  1
  In  In65  1  0.49758119  0.33865020  0.84669756  1
  In  In66  1  0.83828347  0.68418965  0.16192389  1
  In  In67  1  0.69974150  0.01701494  0.00849178  1
  In  In68  1  0.83287707  0.15499308  0.68006146  1
  In  In69  1  0.83365987  0.67006216  0.52655669  1
  In  In70  1  0.35338518  0.66416464  -0.00604898  1
  In  In71  1  -0.01532969  0.65526897  -0.00018172  1
  Te  Te72  1  0.08719198  0.06948174  0.07231071  1
  Te  Te73  1  0.05608624  0.06137830  0.40285197  1
  Te  Te74  1  0.14322529  0.07870790  0.72558566  1
  Te  Te75  1  0.07109847  0.43514067  0.07951367  1
  Te  Te76  1  0.09334034  0.44039991  0.39787575  1
  Te  Te77  1  0.08701181  0.39486299  0.74417994  1
  Te  Te78  1  0.09371996  0.73597559  0.08600962  1
  Te  Te79  1  0.05574334  0.75080001  0.45730285  1
  Te  Te80  1  0.08780583  0.78624043  0.71058802  1
  Te  Te81  1  0.40155622  0.09679348  0.09430706  1
  Te  Te82  1  0.40003927  0.10071829  0.43949993  1
  Te  Te83  1  0.41671390  0.05759554  0.76340113  1
  Te  Te84  1  0.43094766  0.42617273  0.05775647  1
  Te  Te85  1  0.41900178  0.41607235  0.41641478  1
  Te  Te86  1  0.41390481  0.40728273  0.73864920  1
  Te  Te87  1  0.43430983  0.77751834  0.04993305  1
  Te  Te88  1  0.41663032  0.75226492  0.39585626  1
  Te  Te89  1  0.40615084  0.74026055  0.77173373  1
  Te  Te90  1  0.73088929  0.12034789  0.11016051  1
  Te  Te91  1  0.78049861  0.07545486  0.44501388  1
  Te  Te92  1  0.76077975  0.05322004  0.76258073  1
  Te  Te93  1  0.75110737  0.39696229  0.09257395  1
  Te  Te94  1  0.74391372  0.43181393  0.44294748  1
  Te  Te95  1  0.73912743  0.43152529  0.77905395  1
  Te  Te96  1  0.74651844  0.76222466  0.07717687  1
  Te  Te97  1  0.75510653  0.75950330  0.41303491  1
  Te  Te98  1  0.76035331  0.74955096  0.74003578  1
  Te  Te99  1  0.10116964  0.23468369  0.26579542  1
  Te  Te100  1  0.10482622  0.22179009  0.59431250  1
  Te  Te101  1  0.10245978  0.25746695  0.90022999  1
  Te  Te102  1  0.06064944  0.54519773  0.28334698  1
  Te  Te103  1  0.06533872  0.58749736  0.58110494  1
  Te  Te104  1  0.09649832  0.57822448  0.91180381  1
  Te  Te105  1  0.07717200  0.91965111  0.24993511  1
  Te  Te106  1  0.05117482  0.98135219  0.53291371  1
  Te  Te107  1  0.07564369  0.93695918  0.89243161  1
  Te  Te108  1  0.40853029  0.25929196  0.24140827  1
  Te  Te109  1  0.38675085  0.23862679  0.59718559  1
  Te  Te110  1  0.39845122  0.22915083  0.88682554  1
  Te  Te111  1  0.43546512  0.61807466  0.22449935  1
  Te  Te112  1  0.40282056  0.57528647  0.58805745  1
  Te  Te113  1  0.43867761  0.57657420  0.91201858  1
  Te  Te114  1  0.41369483  0.92666982  0.24507742  1
  Te  Te115  1  0.41768478  0.90805593  0.58607462  1
  Te  Te116  1  0.43713239  0.89940040  0.92819376  1
  Te  Te117  1  0.74426045  0.20782000  0.24219538  1
  Te  Te118  1  0.74453234  0.24640851  0.58647714  1
  Te  Te119  1  0.76503266  0.23736289  0.91857232  1
  Te  Te120  1  0.75077949  0.58369999  0.26015405  1
  Te  Te121  1  0.73285278  0.58110656  0.58656626  1
  Te  Te122  1  0.77172826  0.57055008  0.94061397  1
  Te  Te123  1  0.76267052  0.90827747  0.24782934  1
  Te  Te124  1  0.75616895  0.93306479  0.58090846  1
  Te  Te125  1  0.77672989  0.94093902  0.90323437  1
  Te  Te126  1  0.24638943  0.24961205  0.08762957  1
  Te  Te127  1  0.22530797  0.23497745  0.42013603  1
  Te  Te128  1  0.20778569  0.19434938  0.80015700  1
  Te  Te129  1  0.25805772  0.59882456  0.09886909  1
  Te  Te130  1  0.22370481  0.60192589  0.42211469  1
  Te  Te131  1  0.24130442  0.58609372  0.73961792  1
  Te  Te132  1  0.25105485  0.91201965  0.07225302  1
  Te  Te133  1  0.23216698  0.93765228  0.43491309  1
  Te  Te134  1  0.23960177  0.89230087  0.71762177  1
  Te  Te135  1  0.59491241  0.23144231  0.08576714  1
  Te  Te136  1  0.58410536  0.26311974  0.40733252  1
  Te  Te137  1  0.58505763  0.25166375  0.74818339  1
  Te  Te138  1  0.56726396  0.59042140  0.08540367  1
  Te  Te139  1  0.58382867  0.58584498  0.41643951  1
  Te  Te140  1  0.60726059  0.61458982  0.76478183  1
  Te  Te141  1  0.60958692  0.91291321  0.06844655  1
  Te  Te142  1  0.58243061  0.91293554  0.41569473  1
  Te  Te143  1  0.59857427  0.92794955  0.75226149  1
  Te  Te144  1  0.92141251  0.22385763  0.07745758  1
  Te  Te145  1  0.94918801  0.26055526  0.40640730  1
  Te  Te146  1  0.94799397  0.20234487  0.78631269  1
  Te  Te147  1  0.90896680  0.57288233  0.09417983  1
  Te  Te148  1  0.90921909  0.59609470  0.41632756  1
  Te  Te149  1  0.92726056  0.59436078  0.76709600  1
  Te  Te150  1  0.89770345  0.94541625  0.09605130  1
  Te  Te151  1  0.94161069  0.95084804  0.42295132  1
  Te  Te152  1  0.94356561  0.93799777  0.74292416  1
  Te  Te153  1  0.24433880  0.11010701  0.26072655  1
  Te  Te154  1  0.21137421  0.10111882  0.58217539  1
  Te  Te155  1  0.24966349  0.06385641  0.88852412  1
  Te  Te156  1  0.24689594  0.42767887  0.24852634  1
  Te  Te157  1  0.25568972  0.39212950  0.58633607  1
  Te  Te158  1  0.24634382  0.40208779  0.90016384  1
  Te  Te159  1  0.23593631  0.77144506  0.26274897  1
  Te  Te160  1  0.22497662  0.73785759  0.55219532  1
  Te  Te161  1  0.24283941  0.74789976  0.91348105  1
  Te  Te162  1  0.58097508  0.06891873  0.25735692  1
  Te  Te163  1  0.59667488  0.07748046  0.59855300  1
  Te  Te164  1  0.57844143  0.06902221  0.91758395  1
  Te  Te165  1  0.59293236  0.41296001  0.25660248  1
  Te  Te166  1  0.56969608  0.43084352  0.58339379  1
  Te  Te167  1  0.58588727  0.43441539  0.91532023  1
  Te  Te168  1  0.60985772  0.76392304  0.20012810  1
  Te  Te169  1  0.57720341  0.74003921  0.60299392  1
  Te  Te170  1  0.59431978  0.72162835  0.87782625  1
  Te  Te171  1  0.90889885  0.05500746  0.23651177  1
  Te  Te172  1  0.94302181  0.06356451  0.62591526  1
  Te  Te173  1  0.89809691  0.10879964  0.90172700  1
  Te  Te174  1  0.93976464  0.40408229  0.25141429  1
  Te  Te175  1  0.90964595  0.40519502  0.60080181  1
  Te  Te176  1  0.90292209  0.40294256  0.92492866  1
  Te  Te177  1  0.94086080  0.74821765  0.25669807  1
  Te  Te178  1  0.93387897  0.79163133  0.54793064  1
  Te  Te179  1  0.90907336  0.77652230  0.94703731  1
