# generated using pymatgen
data_In2Te3
_symmetry_space_group_name_H-M   'P 1'
_cell_length_a   18.78942090
_cell_length_b   18.79175497
_cell_length_c   18.79237797
_cell_angle_alpha   89.98652755
_cell_angle_beta   89.90013407
_cell_angle_gamma   89.97071849
_symmetry_Int_Tables_number   1
_chemical_formula_structural   In2Te3
_chemical_formula_sum   'In72 Te108'
_cell_volume   6635.31807780
_cell_formula_units_Z   36
loop_
 _symmetry_equiv_pos_site_id
 _symmetry_equiv_pos_as_xyz
  1  'x, y, z'
loop_
 _atom_site_type_symbol
 _atom_site_label
 _atom_site_symmetry_multiplicity
 _atom_site_fract_x
 _atom_site_fract_y
 _atom_site_fract_z
 _atom_site_occupancy
  In  In0  1  0.02015194  0.83946441  0.18869233  1
  In  In1  1  0.18648907  0.17535815  0.64828899  1
  In  In2  1  0.49689356  0.50871432  0.01128121  1
  In  In3  1  0.32923549  0.83260414  0.49092294  1
  In  In4  1  0.49350648  0.20164101  0.37176480  1
  In  In5  1  0.83765202  0.49968245  0.68163682  1
  In  In6  1  0.51824488  0.66204884  0.82916327  1
  In  In7  1  0.18354524  0.02057649  0.83544801  1
  In  In8  1  0.01743653  0.35103909  -0.00409298  1
  In  In9  1  0.34796595  0.01359198  0.33781232  1
  In  In10  1  0.17789972  0.84386307  -0.00078238  1
  In  In11  1  0.17013246  0.47526198  -0.01828682  1
  In  In12  1  0.18681230  0.18472440  0.35179526  1
  In  In13  1  0.03089072  0.15183567  0.15953201  1
  In  In14  1  0.51128616  0.01221607  0.51215936  1
  In  In15  1  0.63307101  0.44839526  0.52190914  1
  In  In16  1  0.81354558  0.16879204  0.35124321  1
  In  In17  1  0.84252505  0.67338081  0.52241636  1
  In  In18  1  0.48934755  0.31824171  0.17915863  1
  In  In19  1  0.01100055  0.02243843  0.01772240  1
  In  In20  1  0.63047119  0.04073292  -0.02178912  1
  In  In21  1  0.16625212  0.67470192  0.49073182  1
  In  In22  1  0.81735853  0.28874201  0.53431569  1
  In  In23  1  0.16406281  0.66850044  0.79903791  1
  In  In24  1  0.68117558  0.68015744  0.65242099  1
  In  In25  1  -0.01188124  0.82768267  0.82018567  1
  In  In26  1  0.81514939  0.48003078  0.35812426  1
  In  In27  1  0.62507362  0.47971969  0.15912494  1
  In  In28  1  0.82771976  0.00747122  0.15315801  1
  In  In29  1  0.82901734  0.83646332  -0.03151422  1
  In  In30  1  0.19964667  0.28773662  0.15223676  1
  In  In31  1  0.66188197  0.02465084  0.35827076  1
  In  In32  1  0.64807056  0.86457830  0.19226541  1
  In  In33  1  0.01913952  0.50812315  0.48551733  1
  In  In34  1  0.68692654  0.68183632  -0.03343704  1
  In  In35  1  -0.00286164  0.51743805  0.82316091  1
  In  In36  1  0.35806763  0.67073204  -0.00983399  1
  In  In37  1  0.80744696  0.51062900  0.00212235  1
  In  In38  1  0.82972094  0.66212112  0.14363894  1
  In  In39  1  0.34721831  0.63329360  0.65158003  1
  In  In40  1  0.67870352  0.63468537  0.34739743  1
  In  In41  1  -0.00755547  0.18953206  0.84395928  1
  In  In42  1  0.31604655  0.65840524  0.32966834  1
  In  In43  1  0.48593506  0.02022688  0.16133160  1
  In  In44  1  0.34061774  0.49134665  0.16680822  1
  In  In45  1  0.65510551  0.30869108  0.00246587  1
  In  In46  1  0.19445724  0.48076860  0.34813995  1
  In  In47  1  0.83558190  0.84991867  0.65076415  1
  In  In48  1  0.18675093  0.47637686  0.63394928  1
  In  In49  1  0.34399795  0.03269739  0.68298578  1
  In  In50  1  -0.02018256  0.50063368  0.17391160  1
  In  In51  1  0.51599145  0.82516357  0.66920350  1
  In  In52  1  0.83553601  0.31967564  0.20011886  1
  In  In53  1  0.33490909  0.01884924  -0.00803534  1
  In  In54  1  0.47665903  0.46289042  0.37424816  1
  In  In55  1  0.82599171  0.17852340  -0.00259556  1
  In  In56  1  0.18536844  0.31027430  0.83510337  1
  In  In57  1  0.17322092  0.68177965  0.16684483  1
  In  In58  1  0.45078062  0.27318559  0.76342406  1
  In  In59  1  0.65834629  0.84664313  0.83007924  1
  In  In60  1  0.03881401  0.67845381  0.35425709  1
  In  In61  1  -0.00363342  0.15469800  0.51388944  1
  In  In62  1  0.01272580  -0.00883001  0.65252068  1
  In  In63  1  0.00520594  -0.00317598  0.34264567  1
  In  In64  1  0.81193461  0.32361654  0.82310074  1
  In  In65  1  0.66978732  0.02626386  0.66758512  1
  In  In66  1  0.48702677  0.83401923  0.34751850  1
  In  In67  1  0.33384235  0.87015018  0.82290389  1
  In  In68  1  -0.01190731  0.34024205  0.66896798  1
  In  In69  1  0.47698402  0.68906748  0.16335022  1
  In  In70  1  0.86441961  0.83056097  0.36067490  1
  In  In71  1  0.64331543  0.48989215  0.81167124  1
  Te  Te72  1  0.13436875  0.07812660  0.08042972  1
  Te  Te73  1  0.10014580  0.08329534  0.42800488  1
  Te  Te74  1  0.08241578  0.10423374  0.74889934  1
  Te  Te75  1  0.09981386  0.41799754  0.10737030  1
  Te  Te76  1  0.09698123  0.39968679  0.42408281  1
  Te  Te77  1  0.08902348  0.41154024  0.75759208  1
  Te  Te78  1  0.07671398  0.75401622  0.07414257  1
  Te  Te79  1  0.09926594  0.79462295  0.42570523  1
  Te  Te80  1  0.09255900  0.77566394  0.72911890  1
  Te  Te81  1  0.39738872  0.11977295  0.08872491  1
  Te  Te82  1  0.40578596  0.10158816  0.44808682  1
  Te  Te83  1  0.44473844  0.11502213  0.75748315  1
  Te  Te84  1  0.41119012  0.39748017  0.07043710  1
  Te  Te85  1  0.38793286  0.35626357  0.43297446  1
  Te  Te86  1  0.44612854  0.42399774  0.72622836  1
  Te  Te87  1  0.39441967  0.77927788  0.08255688  1
  Te  Te88  1  0.41744600  0.72424636  0.42672476  1
  Te  Te89  1  0.40919468  0.74679781  0.75163901  1
  Te  Te90  1  0.72806776  0.09941848  0.08674748  1
  Te  Te91  1  0.75378848  0.08381309  0.45612851  1
  Te  Te92  1  0.73490469  0.11481398  0.76691566  1
  Te  Te93  1  0.75163071  0.39801668  0.08866438  1
  Te  Te94  1  0.73080955  0.37092378  0.42598949  1
  Te  Te95  1  0.72753910  0.40071415  0.72094029  1
  Te  Te96  1  0.73958959  0.77270716  0.08789828  1
  Te  Te97  1  0.75091697  0.74772756  0.42386286  1
  Te  Te98  1  0.75854894  0.76020325  0.75488897  1
  Te  Te99  1  0.08869097  0.25470507  0.25602576  1
  Te  Te100  1  0.08270760  0.26422950  0.57786692  1
  Te  Te101  1  0.10107183  0.23586524  0.94083696  1
  Te  Te102  1  0.09479641  0.57467098  0.25480128  1
  Te  Te103  1  0.08708310  0.58660955  0.59484442  1
  Te  Te104  1  0.09549170  0.58992964  0.91479795  1
  Te  Te105  1  0.10560318  0.94178206  0.24830311  1
  Te  Te106  1  0.05378466  0.89339237  0.54727839  1
  Te  Te107  1  0.08213184  0.92755506  0.91056623  1
  Te  Te108  1  0.39489939  0.23262027  0.25974087  1
  Te  Te109  1  0.40537590  0.27190365  0.57139023  1
  Te  Te110  1  0.39966145  0.22578388  0.90385041  1
  Te  Te111  1  0.43612016  0.57197606  0.25476296  1
  Te  Te112  1  0.42264660  0.51316128  0.60267850  1
  Te  Te113  1  0.41664971  0.56733361  0.89456027  1
  Te  Te114  1  0.41159929  0.90983295  0.24178740  1
  Te  Te115  1  0.41662482  0.91924609  0.59344073  1
  Te  Te116  1  0.43316729  0.94321214  0.90594821  1
  Te  Te117  1  0.72946046  0.23025958  0.24637177  1
  Te  Te118  1  0.71014849  0.22223722  0.61681242  1
  Te  Te119  1  0.71926992  0.21607204  0.88792291  1
  Te  Te120  1  0.75530977  0.56014836  0.23483782  1
  Te  Te121  1  0.74488595  0.55987246  0.56605830  1
  Te  Te122  1  0.75386566  0.57808598  0.87652939  1
  Te  Te123  1  0.76636722  0.92441564  0.26885540  1
  Te  Te124  1  0.71914397  0.91252104  0.58507226  1
  Te  Te125  1  0.73824004  0.94520238  0.91575667  1
  Te  Te126  1  0.29541087  0.23553617  0.05266608  1
  Te  Te127  1  0.25737517  0.26860174  0.45394974  1
  Te  Te128  1  0.27933745  0.26536005  0.72580537  1
  Te  Te129  1  0.25843653  0.58626097  0.07897502  1
  Te  Te130  1  0.27121997  0.56776975  0.44490581  1
  Te  Te131  1  0.25413403  0.55555678  0.74679424  1
  Te  Te132  1  0.24461714  0.94282883  0.08654233  1
  Te  Te133  1  0.25085463  0.92862912  0.41199208  1
  Te  Te134  1  0.23292953  0.92759288  0.72505382  1
  Te  Te135  1  0.55778579  0.23006327  0.07953439  1
  Te  Te136  1  0.60348872  0.27779508  0.43441265  1
  Te  Te137  1  0.59844063  0.23611232  0.72536443  1
  Te  Te138  1  0.59618682  0.60771644  0.07355138  1
  Te  Te139  1  0.57576387  0.56405711  0.43675247  1
  Te  Te140  1  0.57543544  0.58366979  0.71201997  1
  Te  Te141  1  0.57693872  0.93000075  0.07654205  1
  Te  Te142  1  0.59061804  0.90903521  0.42994389  1
  Te  Te143  1  0.56955574  0.94030260  0.75144259  1
  Te  Te144  1  0.92772421  0.25385319  0.08520500  1
  Te  Te145  1  0.91858590  0.25136257  0.42318648  1
  Te  Te146  1  0.89908505  0.23423012  0.73196939  1
  Te  Te147  1  0.93090554  0.58481600  0.05668321  1
  Te  Te148  1  0.91313883  0.59291218  0.40510632  1
  Te  Te149  1  0.92863790  0.60569149  0.72709881  1
  Te  Te150  1  0.91933821  0.90846354  0.08156596  1
  Te  Te151  1  0.91345256  0.94049030  0.44740133  1
  Te  Te152  1  0.90631540  0.93795231  0.75365106  1
  Te  Te153  1  0.27932684  0.11823692  0.25173670  1
  Te  Te154  1  0.25288273  0.06762959  0.57225867  1
  Te  Te155  1  0.28366472  0.12032435  0.88803202  1
  Te  Te156  1  0.26797809  0.38878030  0.25165434  1
  Te  Te157  1  0.27758971  0.37138257  0.57730717  1
  Te  Te158  1  0.27413496  0.40624295  0.90595176  1
  Te  Te159  1  0.24332263  0.76732213  0.26332291  1
  Te  Te160  1  0.25641163  0.74369370  0.59401658  1
  Te  Te161  1  0.25629715  0.75228101  0.90167693  1
  Te  Te162  1  0.56163838  0.09549657  0.27188473  1
  Te  Te163  1  0.57311767  0.12185039  0.59496316  1
  Te  Te164  1  0.51415016  0.09478557  0.90013907  1
  Te  Te165  1  0.57737493  0.39616916  0.27655338  1
  Te  Te166  1  0.52354574  0.37302428  0.59573163  1
  Te  Te167  1  0.57278394  0.40735567  0.91896201  1
  Te  Te168  1  0.59344018  0.73957214  0.26433017  1
  Te  Te169  1  0.57670301  0.73946401  0.56605392  1
  Te  Te170  1  0.56659418  0.76809164  0.92684415  1
  Te  Te171  1  0.91786046  0.09044528  0.24573177  1
  Te  Te172  1  0.90218044  0.07128468  0.59250902  1
  Te  Te173  1  0.91181693  0.08085450  0.91654821  1
  Te  Te174  1  0.92920696  0.40722311  0.28348233  1
  Te  Te175  1  0.90815981  0.42024385  0.56462199  1
  Te  Te176  1  0.90821035  0.41312557  0.90760026  1
  Te  Te177  1  0.91730065  0.73494548  0.24657172  1
  Te  Te178  1  0.94172344  0.77038487  0.57715908  1
  Te  Te179  1  0.91536647  0.73409928  0.90967866  1
