# generated using pymatgen
data_In2Te3
_symmetry_space_group_name_H-M   'P 1'
_cell_length_a   18.98658719
_cell_length_b   18.99715724
_cell_length_c   19.02453695
_cell_angle_alpha   89.81853790
_cell_angle_beta   89.86134019
_cell_angle_gamma   90.01666106
_symmetry_Int_Tables_number   1
_chemical_formula_structural   In2Te3
_chemical_formula_sum   'In72 Te108'
_cell_volume   6861.92790982
_cell_formula_units_Z   36
loop_
 _symmetry_equiv_pos_site_id
 _symmetry_equiv_pos_as_xyz
  1  'x, y, z'
loop_
 _atom_site_type_symbol
 _atom_site_label
 _atom_site_symmetry_multiplicity
 _atom_site_fract_x
 _atom_site_fract_y
 _atom_site_fract_z
 _atom_site_occupancy
  In  In0  1  0.82892012  0.31141110  0.17162754  1
  In  In1  1  0.34150134  0.82874264  0.83528235  1
  In  In2  1  0.17965768  0.66604796  0.83371077  1
  In  In3  1  0.82207060  0.67579953  0.52125377  1
  In  In4  1  0.51791648  0.16825002  0.32455469  1
  In  In5  1  -0.00273312  0.50411792  0.16312049  1
  In  In6  1  0.83118042  0.13339183  0.34932015  1
  In  In7  1  0.32193815  0.65521471  0.04002709  1
  In  In8  1  0.16614295  -0.01103795  0.15136515  1
  In  In9  1  -0.02793367  -0.01535848  0.33091542  1
  In  In10  1  0.30737604  0.15094386  0.52405597  1
  In  In11  1  0.83876685  0.52146292  0.36725028  1
  In  In12  1  0.50683414  0.72514100  0.25314054  1
  In  In13  1  0.15746647  0.66906240  0.48996721  1
  In  In14  1  0.67300390  0.34032438  0.33596472  1
  In  In15  1  0.01233367  0.66214245  0.65697971  1
  In  In16  1  0.13916622  0.85899372  0.64825083  1
  In  In17  1  0.33954860  0.35419002  0.65406274  1
  In  In18  1  0.33230188  0.01365408  0.01831142  1
  In  In19  1  0.84394926  0.50019670  0.01638687  1
  In  In20  1  0.14896450  0.69750306  0.15492129  1
  In  In21  1  0.87810734  0.66662331  0.84583268  1
  In  In22  1  0.48710348  -0.00535264  0.82810345  1
  In  In23  1  0.49254852  -0.01552763  0.48734236  1
  In  In24  1  0.17000110  0.33834812  0.82312425  1
  In  In25  1  0.49876024  0.49851862  -0.00342995  1
  In  In26  1  0.64754540  0.81747374  0.48873620  1
  In  In27  1  0.82236177  -0.06041880  0.14178703  1
  In  In28  1  0.01623353  0.84939612  0.86854276  1
  In  In29  1  0.65687129  0.66592156  0.65945407  1
  In  In30  1  0.50621082  0.14828204  0.68148546  1
  In  In31  1  0.51858880  0.15846101  -0.00990569  1
  In  In32  1  0.50364315  0.67534306  0.83319094  1
  In  In33  1  0.33193869  0.17339554  0.18349590  1
  In  In34  1  0.48898038  0.32576049  0.15276049  1
  In  In35  1  0.34257275  0.35303955  -0.00902987  1
  In  In36  1  0.69262092  0.16541578  0.82288828  1
  In  In37  1  0.01575175  0.50884476  0.82302762  1
  In  In38  1  0.35466413  0.52634905  0.48724567  1
  In  In39  1  0.62780204  0.51626372  0.47447943  1
  In  In40  1  -0.01416858  0.69092841  0.34738154  1
  In  In41  1  0.15456627  0.15851454  0.00234113  1
  In  In42  1  -0.00193895  0.17577070  0.16561594  1
  In  In43  1  0.83573643  0.01625215  0.83728090  1
  In  In44  1  0.18656396  0.83589192  0.32568355  1
  In  In45  1  0.17179223  0.50454545  0.33562480  1
  In  In46  1  0.66424283  0.67613881  -0.00690871  1
  In  In47  1  0.66625777  0.46712685  0.85663265  1
  In  In48  1  0.68026696  0.50607238  0.17338841  1
  In  In49  1  0.66696449  0.11207098  0.16435408  1
  In  In50  1  0.85177626  0.83502308  0.69638537  1
  In  In51  1  0.84207187  -0.00742515  0.51380996  1
  In  In52  1  0.35853080  -0.02077226  0.32228179  1
  In  In53  1  0.88294374  0.44046458  0.65014146  1
  In  In54  1  0.67806550  -0.01347532  0.69694156  1
  In  In55  1  0.31484025  0.50096607  0.81920193  1
  In  In56  1  0.18926283  0.17717254  0.36740145  1
  In  In57  1  0.33879312  0.82190585  0.48602751  1
  In  In58  1  -0.00391748  0.18003409  0.48899491  1
  In  In59  1  0.30142077  0.17378254  0.84416072  1
  In  In60  1  0.65461980  0.82469478  0.83762135  1
  In  In61  1  0.02743496  0.15297576  0.79901272  1
  In  In62  1  0.28387192  -0.00119183  0.64768006  1
  In  In63  1  0.00928025  0.33821615  0.30861839  1
  In  In64  1  0.47097281  0.51876298  0.66462922  1
  In  In65  1  0.65528166  -0.03730744  0.02857533  1
  In  In66  1  0.47117231  0.35223042  0.48835571  1
  In  In67  1  0.83588221  0.66972722  0.17235197  1
  In  In68  1  0.17055315  0.36143563  0.15615627  1
  In  In69  1  0.67079625  0.31452317  0.65208074  1
  In  In70  1  0.84735588  0.31242250  0.83247097  1
  In  In71  1  0.68946767  0.16369542  0.50864651  1
  Te  Te72  1  0.05983713  0.06724618  0.07677175  1
  Te  Te73  1  0.06805687  0.09099137  0.38901192  1
  Te  Te74  1  0.13917049  0.08591029  0.72878661  1
  Te  Te75  1  0.05985772  0.40595332  0.07483772  1
  Te  Te76  1  0.07502282  0.41912847  0.41168054  1
  Te  Te77  1  0.09920867  0.43027297  0.73375453  1
  Te  Te78  1  0.07285652  0.80114719  0.07482567  1
  Te  Te79  1  0.08126007  0.78094608  0.42267589  1
  Te  Te80  1  0.07692253  0.75758722  0.75556078  1
  Te  Te81  1  0.43027576  0.09662195  0.09834416  1
  Te  Te82  1  0.41066795  0.09754819  0.42145385  1
  Te  Te83  1  0.38751725  0.07815267  0.74863507  1
  Te  Te84  1  0.40152947  0.43868535  0.10027881  1
  Te  Te85  1  0.43583282  0.45232853  0.38603357  1
  Te  Te86  1  0.42380079  0.41139376  0.76444356  1
  Te  Te87  1  0.42692213  0.71076924  0.12254638  1
  Te  Te88  1  0.43241512  0.78109763  0.37757277  1
  Te  Te89  1  0.40571683  0.73502620  0.74393353  1
  Te  Te90  1  0.76467556  0.06353794  0.06261088  1
  Te  Te91  1  0.72994486  0.04783743  0.42236860  1
  Te  Te92  1  0.77715513  0.09672050  0.71879861  1
  Te  Te93  1  0.74649006  0.40474095  0.08247999  1
  Te  Te94  1  0.74811148  0.42008191  0.43631916  1
  Te  Te95  1  0.75277278  0.40896907  0.74531687  1
  Te  Te96  1  0.75223356  0.75475617  0.08122372  1
  Te  Te97  1  0.74646726  0.74067838  0.41419035  1
  Te  Te98  1  0.74912557  0.73448365  0.75958931  1
  Te  Te99  1  0.11246953  0.24042606  0.24252089  1
  Te  Te100  1  0.04277608  0.27024026  0.59767278  1
  Te  Te101  1  0.08125797  0.25058943  0.90847590  1
  Te  Te102  1  0.06980033  0.59282680  0.26149002  1
  Te  Te103  1  0.11249188  0.57460993  0.59452875  1
  Te  Te104  1  0.06232267  0.61657982  0.90979066  1
  Te  Te105  1  0.07907915  0.91212277  0.24927140  1
  Te  Te106  1  0.06049271  0.95942497  0.57668774  1
  Te  Te107  1  0.12736552  0.87989172  0.95781033  1
  Te  Te108  1  0.41244293  0.26399490  0.27241727  1
  Te  Te109  1  0.42834610  0.24005658  0.58966658  1
  Te  Te110  1  0.41579761  0.24295383  0.91446614  1
  Te  Te111  1  0.47181546  0.58312671  0.28324486  1
  Te  Te112  1  0.43461947  0.62228510  0.56679902  1
  Te  Te113  1  0.40692426  0.58401322  0.91154039  1
  Te  Te114  1  0.40964854  0.91559892  0.19934192  1
  Te  Te115  1  0.40175573  0.91953596  0.58791936  1
  Te  Te116  1  0.41750146  0.91695131  0.93618627  1
  Te  Te117  1  0.73415381  0.22393737  0.26066310  1
  Te  Te118  1  0.78023636  0.25411200  0.57642263  1
  Te  Te119  1  0.75971146  0.24212452  0.92562373  1
  Te  Te120  1  0.74549508  0.59737745  0.27369875  1
  Te  Te121  1  0.73060903  0.56557555  0.57583669  1
  Te  Te122  1  0.75714506  0.58152249  0.91463540  1
  Te  Te123  1  0.71452198  0.92549931  0.23917006  1
  Te  Te124  1  0.74495274  0.89317185  0.60011437  1
  Te  Te125  1  0.74645334  0.91603019  0.91200861  1
  Te  Te126  1  0.26012602  0.24554806  0.07025387  1
  Te  Te127  1  0.24169881  0.27151741  0.46638748  1
  Te  Te128  1  0.24961090  0.25348683  0.72609340  1
  Te  Te129  1  0.20582207  0.58092517  0.08723681  1
  Te  Te130  1  0.26178944  0.60904176  0.39871022  1
  Te  Te131  1  0.24201993  0.58641743  0.72588388  1
  Te  Te132  1  0.27895692  0.90282732  0.10512657  1
  Te  Te133  1  0.25598734  0.93214444  0.42266815  1
  Te  Te134  1  0.23536318  0.90752519  0.75736333  1
  Te  Te135  1  0.59446282  0.23263951  0.09725896  1
  Te  Te136  1  0.58323968  0.25259026  0.43550662  1
  Te  Te137  1  0.58363208  0.25073034  0.76036128  1
  Te  Te138  1  0.58566900  0.58546045  0.08561815  1
  Te  Te139  1  0.58293978  0.61815145  0.37630234  1
  Te  Te140  1  0.58674487  0.56698632  0.76295119  1
  Te  Te141  1  0.55072397  0.91150604  0.12349718  1
  Te  Te142  1  0.55322938  0.88586763  0.39370324  1
  Te  Te143  1  0.56311457  0.89733441  0.74070988  1
  Te  Te144  1  0.92023841  0.25698804  0.07255229  1
  Te  Te145  1  0.90785722  0.25594295  0.39038121  1
  Te  Te146  1  0.93944693  0.25441266  0.73087301  1
  Te  Te147  1  0.93350482  0.60757987  0.07247809  1
  Te  Te148  1  0.93545832  0.59453669  0.45465187  1
  Te  Te149  1  0.90049239  0.57832316  0.72038813  1
  Te  Te150  1  0.93578600  0.87811347  0.07341518  1
  Te  Te151  1  0.88510366  0.89859270  0.41082648  1
  Te  Te152  1  0.94113154  0.93413239  0.76162309  1
  Te  Te153  1  0.24819419  0.07186890  0.25793420  1
  Te  Te154  1  0.17835130  0.08353373  0.57883823  1
  Te  Te155  1  0.23095278  0.06052394  0.91553192  1
  Te  Te156  1  0.25634676  0.41047920  0.26125472  1
  Te  Te157  1  0.26497745  0.42429879  0.54940625  1
  Te  Te158  1  0.23220718  0.43245582  0.92626090  1
  Te  Te159  1  0.25698391  0.73668998  0.24515477  1
  Te  Te160  1  0.23542538  0.76225700  0.58198147  1
  Te  Te161  1  0.25834474  0.74787648  0.93437443  1
  Te  Te162  1  0.58161193  0.04932376  0.26715759  1
  Te  Te163  1  0.58826601  0.06534902  0.58581161  1
  Te  Te164  1  0.59867890  0.06401371  0.90293586  1
  Te  Te165  1  0.58240197  0.41160089  0.24149433  1
  Te  Te166  1  0.56686771  0.41954359  0.58645840  1
  Te  Te167  1  0.58180960  0.38923109  0.94583005  1
  Te  Te168  1  0.63190857  0.80092390  0.20184891  1
  Te  Te169  1  0.55950252  0.74049703  0.57972797  1
  Te  Te170  1  0.55683272  0.76906076  0.93949481  1
  Te  Te171  1  0.90027743  0.07372514  0.22838012  1
  Te  Te172  1  0.94840365  0.06878988  0.58292567  1
  Te  Te173  1  0.94607535  0.08485458  0.90289713  1
  Te  Te174  1  0.89301437  0.43090590  0.25143302  1
  Te  Te175  1  0.96956097  0.39135276  0.54157618  1
  Te  Te176  1  0.91807417  0.42715769  0.90650105  1
  Te  Te177  1  0.91204077  0.76959797  0.24880019  1
  Te  Te178  1  0.92825475  0.76699280  0.58618936  1
  Te  Te179  1  0.89834629  0.78307784  0.93239051  1
