# generated using pymatgen
data_In2Te3
_symmetry_space_group_name_H-M   'P 1'
_cell_length_a   18.76485527
_cell_length_b   18.75711176
_cell_length_c   18.76366215
_cell_angle_alpha   90.02776307
_cell_angle_beta   89.98708388
_cell_angle_gamma   90.01212666
_symmetry_Int_Tables_number   1
_chemical_formula_structural   In2Te3
_chemical_formula_sum   'In72 Te108'
_cell_volume   6604.32927797
_cell_formula_units_Z   36
loop_
 _symmetry_equiv_pos_site_id
 _symmetry_equiv_pos_as_xyz
  1  'x, y, z'
loop_
 _atom_site_type_symbol
 _atom_site_label
 _atom_site_symmetry_multiplicity
 _atom_site_fract_x
 _atom_site_fract_y
 _atom_site_fract_z
 _atom_site_occupancy
  In  In0  1  0.67641725  -0.01321994  0.01552990  1
  In  In1  1  0.48266767  0.18366119  0.33650483  1
  In  In2  1  0.49967997  0.50316004  0.68900352  1
  In  In3  1  0.84052672  0.65809129  0.12173771  1
  In  In4  1  0.82616581  0.83808720  -0.01083211  1
  In  In5  1  0.83961961  -0.01034745  0.84081979  1
  In  In6  1  0.18203795  0.82915881  0.65944342  1
  In  In7  1  0.30558037  0.50069611  0.48185787  1
  In  In8  1  0.19276678  -0.00734891  0.50742822  1
  In  In9  1  0.67228077  0.33727269  -0.02045238  1
  In  In10  1  0.16531419  0.19606567  0.34543813  1
  In  In11  1  -0.00770237  0.50394111  0.82919997  1
  In  In12  1  0.66367128  0.15654486  0.17037862  1
  In  In13  1  -0.00529648  0.84371146  0.84255301  1
  In  In14  1  0.83580212  0.66872160  0.49266757  1
  In  In15  1  0.83135250  0.00537067  0.17225287  1
  In  In16  1  0.47374948  -0.01636775  0.52073838  1
  In  In17  1  0.49810430  0.51225631  0.34677858  1
  In  In18  1  0.64778038  -0.00340970  0.65628402  1
  In  In19  1  -0.00262867  -0.00391100  0.31600426  1
  In  In20  1  0.48418408  0.16559967  -0.00956980  1
  In  In21  1  0.33285676  0.82543374  0.15993516  1
  In  In22  1  0.66394835  0.70068003  -0.03936327  1
  In  In23  1  0.34811829  0.16278181  0.83257621  1
  In  In24  1  0.33656480  0.67215344  -0.02464900  1
  In  In25  1  0.66499275  0.50353654  0.81763665  1
  In  In26  1  0.00358711  0.17984019  0.81856380  1
  In  In27  1  0.82754568  0.33323666  0.51728978  1
  In  In28  1  0.15862392  0.49145143  0.01714484  1
  In  In29  1  0.66390984  0.51097607  0.50876692  1
  In  In30  1  0.85817967  0.50918036  0.00490453  1
  In  In31  1  0.83197956  0.15069795  0.32987460  1
  In  In32  1  0.03629437  0.35537914  0.35475555  1
  In  In33  1  0.15889328  0.00858704  0.17222583  1
  In  In34  1  0.47121829  0.81062636  0.36269342  1
  In  In35  1  0.47891371  0.50101126  0.01168139  1
  In  In36  1  -0.01194457  0.68907887  0.01568962  1
  In  In37  1  0.19775792  -0.00700868  0.82209089  1
  In  In38  1  0.50281822  0.01092199  0.13736919  1
  In  In39  1  0.50626719  0.17725318  0.65779191  1
  In  In40  1  0.83698671  0.48491015  0.33168191  1
  In  In41  1  0.15686834  0.16491832  0.65653617  1
  In  In42  1  0.82459018  0.84552356  0.31417400  1
  In  In43  1  0.49539709  0.33282075  0.50930597  1
  In  In44  1  0.16730141  0.34510668  0.82294634  1
  In  In45  1  0.79780509  0.80442519  0.69905391  1
  In  In46  1  0.02187156  0.82153308  0.49919257  1
  In  In47  1  0.48694716  0.33471830  0.18424361  1
  In  In48  1  0.18202911  0.68700068  0.84320133  1
  In  In49  1  0.15937129  0.65942782  0.18466920  1
  In  In50  1  0.36465062  0.68641270  0.66155650  1
  In  In51  1  0.33401580  0.49065219  0.83412212  1
  In  In52  1  0.00460653  0.35232981  0.01669581  1
  In  In53  1  0.02858191  0.01749613  0.00105619  1
  In  In54  1  0.00614696  0.17901486  0.50278066  1
  In  In55  1  0.30712153  0.47274908  0.19185677  1
  In  In56  1  0.02330053  0.83300632  0.16863282  1
  In  In57  1  0.33434403  -0.00604986  0.34640459  1
  In  In58  1  0.00938388  0.64876578  0.33441799  1
  In  In59  1  0.82545513  0.48932003  0.66472313  1
  In  In60  1  0.84933897  0.31700220  0.17055796  1
  In  In61  1  0.66360184  0.18395896  0.82259533  1
  In  In62  1  0.82218041  0.02116585  0.50894140  1
  In  In63  1  0.01413065  0.63380313  0.64841496  1
  In  In64  1  0.65507563  0.49613100  0.17948901  1
  In  In65  1  0.34186370  0.02391680  -0.00068702  1
  In  In66  1  0.62454485  0.81042782  0.52990614  1
  In  In67  1  0.64872866  0.65810852  0.33338410  1
  In  In68  1  0.49954400  0.66372819  0.17469689  1
  In  In69  1  0.50221750  -0.02057195  0.82771506  1
  In  In70  1  0.17927134  0.48667293  0.64926256  1
  In  In71  1  0.83581883  0.17930223  0.66094597  1
  Te  Te72  1  0.09651383  0.11722429  0.08949176  1
  Te  Te73  1  0.08389329  0.07574540  0.41611882  1
  Te  Te74  1  0.08419095  0.06628917  0.75156822  1
  Te  Te75  1  0.12111553  0.37945114  0.10818744  1
  Te  Te76  1  0.11261361  0.46871524  0.41436262  1
  Te  Te77  1  0.06878585  0.41596317  0.73033677  1
  Te  Te78  1  0.11216333  0.75671633  0.07095972  1
  Te  Te79  1  0.10184769  0.73228243  0.41465311  1
  Te  Te80  1  0.07662860  0.74571043  0.74627798  1
  Te  Te81  1  0.39395753  0.12410266  0.11387063  1
  Te  Te82  1  0.40524842  0.09474210  0.43594493  1
  Te  Te83  1  0.42271263  0.07267601  0.73591275  1
  Te  Te84  1  0.38983059  0.39932406  0.08430421  1
  Te  Te85  1  0.40682197  0.40851251  0.40754486  1
  Te  Te86  1  0.40693048  0.40027613  0.74349191  1
  Te  Te87  1  0.43149018  0.75054894  0.06936025  1
  Te  Te88  1  0.37745153  0.72869570  0.44469970  1
  Te  Te89  1  0.45229413  0.76126176  0.75739537  1
  Te  Te90  1  0.76388776  0.09826891  0.07005722  1
  Te  Te91  1  0.73309406  0.06922693  0.40285438  1
  Te  Te92  1  0.74879763  0.07163943  0.74416317  1
  Te  Te93  1  0.75504268  0.42304762  0.08938734  1
  Te  Te94  1  0.73707358  0.41182445  0.41815172  1
  Te  Te95  1  0.74752003  0.39969540  0.75270441  1
  Te  Te96  1  0.73634959  0.76324721  0.08786155  1
  Te  Te97  1  0.73858581  0.75847364  0.41592774  1
  Te  Te98  1  0.70108163  0.73669634  0.78991899  1
  Te  Te99  1  0.08332736  0.26721166  0.24227864  1
  Te  Te100  1  0.09827468  0.27243388  0.56986652  1
  Te  Te101  1  0.08512196  0.26057961  0.91866882  1
  Te  Te102  1  0.10856657  0.54844520  0.27406283  1
  Te  Te103  1  0.10289079  0.56873409  0.54628033  1
  Te  Te104  1  0.08709624  0.58718717  0.91715893  1
  Te  Te105  1  0.10866162  0.90015455  0.27439570  1
  Te  Te106  1  0.08340899  0.92581797  0.59271671  1
  Te  Te107  1  0.10532346  0.91255605  0.92002272  1
  Te  Te108  1  0.37876815  0.26061364  0.25743762  1
  Te  Te109  1  0.39811228  0.24338762  0.57903446  1
  Te  Te110  1  0.42093885  0.26873540  0.90679433  1
  Te  Te111  1  0.39848346  0.58326348  0.25457012  1
  Te  Te112  1  0.40663126  0.56176869  0.58311504  1
  Te  Te113  1  0.43574547  0.58941799  0.89400523  1
  Te  Te114  1  0.42337326  0.91926392  0.24539947  1
  Te  Te115  1  0.39104576  0.90130107  0.60928284  1
  Te  Te116  1  0.40546708  0.91454873  0.92109087  1
  Te  Te117  1  0.74167062  0.25450733  0.25833421  1
  Te  Te118  1  0.73236883  0.23524886  0.57256508  1
  Te  Te119  1  0.76401703  0.24344485  0.91361732  1
  Te  Te120  1  0.76152260  0.59378803  0.24974206  1
  Te  Te121  1  0.74456550  0.60565736  0.59688206  1
  Te  Te122  1  0.75003121  0.57973908  0.92291436  1
  Te  Te123  1  0.72678541  0.92900473  0.24236369  1
  Te  Te124  1  0.74928193  0.90113233  0.58083465  1
  Te  Te125  1  0.72571732  0.90532772  0.89441606  1
  Te  Te126  1  0.25922435  0.17900347  0.05771398  1
  Te  Te127  1  0.24151573  0.29328107  0.42866343  1
  Te  Te128  1  0.25338343  0.24772307  0.74515857  1
  Te  Te129  1  0.26245299  0.58530557  0.08221219  1
  Te  Te130  1  0.28115298  0.61816377  0.39278255  1
  Te  Te131  1  0.24876130  0.58803889  0.74645470  1
  Te  Te132  1  0.25082174  0.92780816  0.08094510  1
  Te  Te133  1  0.27046120  0.89066901  0.43289838  1
  Te  Te134  1  0.28723593  0.91592811  0.72632487  1
  Te  Te135  1  0.58214649  0.25639978  0.08385349  1
  Te  Te136  1  0.58373111  0.25550091  0.41729158  1
  Te  Te137  1  0.56817824  0.27201519  0.75498877  1
  Te  Te138  1  0.59139087  0.58872291  0.07533058  1
  Te  Te139  1  0.56148458  0.60820541  0.44733902  1
  Te  Te140  1  0.60128885  0.60916576  0.72941081  1
  Te  Te141  1  0.56999206  0.89971052  0.06827109  1
  Te  Te142  1  0.57101419  0.90799256  0.42628157  1
  Te  Te143  1  0.56571981  0.89036043  0.72247307  1
  Te  Te144  1  0.91736768  0.24173844  0.06506393  1
  Te  Te145  1  0.91752528  0.25739138  0.40421509  1
  Te  Te146  1  0.92113785  0.27148562  0.73727712  1
  Te  Te147  1  0.96216363  0.56539708  0.10269664  1
  Te  Te148  1  0.92382309  0.56219846  0.43077165  1
  Te  Te149  1  0.90283454  0.59571076  0.74782415  1
  Te  Te150  1  0.92745911  0.91664655  0.07911301  1
  Te  Te151  1  0.91493080  0.91652067  0.41885867  1
  Te  Te152  1  0.90993441  0.90824966  0.73359080  1
  Te  Te153  1  0.24639146  0.09040689  0.26699996  1
  Te  Te154  1  0.26512085  0.10233708  0.57497465  1
  Te  Te155  1  0.22859392  0.10924859  0.92322319  1
  Te  Te156  1  0.25672943  0.37224231  0.29408526  1
  Te  Te157  1  0.26052884  0.38612782  0.57240890  1
  Te  Te158  1  0.25452679  0.40504827  0.93318408  1
  Te  Te159  1  0.25540221  0.74523497  0.25935138  1
  Te  Te160  1  0.25572272  0.73490951  0.57000195  1
  Te  Te161  1  0.27810825  0.78555951  0.89757532  1
  Te  Te162  1  0.56864391  0.07786986  0.25855286  1
  Te  Te163  1  0.58386906  0.08928410  0.55748316  1
  Te  Te164  1  0.58894081  0.07932111  0.91698369  1
  Te  Te165  1  0.58658600  0.40545098  0.27768975  1
  Te  Te166  1  0.59077468  0.41446971  0.59979360  1
  Te  Te167  1  0.56858814  0.42474146  0.91160165  1
  Te  Te168  1  0.57842513  0.76633144  0.25430346  1
  Te  Te169  1  0.53224833  0.73551712  0.61903367  1
  Te  Te170  1  0.55836469  0.75964136  0.87615513  1
  Te  Te171  1  0.93601288  0.10276853  0.22725535  1
  Te  Te172  1  0.93309051  0.08037115  0.59424808  1
  Te  Te173  1  0.92262845  0.08979325  0.91720632  1
  Te  Te174  1  0.93864395  0.41586395  0.24477035  1
  Te  Te175  1  0.92648156  0.42357544  0.57799664  1
  Te  Te176  1  0.90646917  0.40478334  0.90560418  1
  Te  Te177  1  0.91971148  0.74695526  0.24308667  1
  Te  Te178  1  0.91934104  0.75066757  0.59118801  1
  Te  Te179  1  0.90077948  0.73723924  0.90086135  1
