# generated using pymatgen
data_In2Te3
_symmetry_space_group_name_H-M   'P 1'
_cell_length_a   19.00407200
_cell_length_b   19.02080584
_cell_length_c   18.98470818
_cell_angle_alpha   90.11848076
_cell_angle_beta   90.12118356
_cell_angle_gamma   89.81461025
_symmetry_Int_Tables_number   1
_chemical_formula_structural   In2Te3
_chemical_formula_sum   'In72 Te108'
_cell_volume   6862.38908255
_cell_formula_units_Z   36
loop_
 _symmetry_equiv_pos_site_id
 _symmetry_equiv_pos_as_xyz
  1  'x, y, z'
loop_
 _atom_site_type_symbol
 _atom_site_label
 _atom_site_symmetry_multiplicity
 _atom_site_fract_x
 _atom_site_fract_y
 _atom_site_fract_z
 _atom_site_occupancy
  In  In0  1  0.15854523  0.33534681  0.51416164  1
  In  In1  1  0.52475001  0.32095643  0.85940636  1
  In  In2  1  -0.00296301  0.51394500  0.17195261  1
  In  In3  1  0.29889576  0.16100867  0.47883443  1
  In  In4  1  -0.01706667  0.49764819  0.84973985  1
  In  In5  1  0.83782583  0.12038451  -0.01681221  1
  In  In6  1  0.33540391  0.68601196  0.67643900  1
  In  In7  1  0.18018015  0.34868542  0.15195990  1
  In  In8  1  0.65610105  0.70715348  0.72948994  1
  In  In9  1  0.82742069  0.67395406  0.53559051  1
  In  In10  1  0.82176364  0.29118150  0.82367556  1
  In  In11  1  -0.02293961  0.30912705  0.68542197  1
  In  In12  1  0.19427994  0.83976062  0.32086415  1
  In  In13  1  0.51057674  0.16612812  0.01944232  1
  In  In14  1  0.49585868  -0.02720020  0.81860196  1
  In  In15  1  -0.00534142  0.13741667  0.15410425  1
  In  In16  1  0.81214236  0.46993063  0.66791915  1
  In  In17  1  0.00801201  0.50919879  0.53429792  1
  In  In18  1  0.32492754  0.51843459  0.16716901  1
  In  In19  1  0.88679614  0.86870808  0.67207761  1
  In  In20  1  0.34578428  -0.00203800  -0.01187911  1
  In  In21  1  0.66152103  0.35626278  0.31937975  1
  In  In22  1  0.00278145  0.14672373  0.49302341  1
  In  In23  1  0.49185420  0.71993793  0.12456629  1
  In  In24  1  0.32385700  0.19629914  0.16698597  1
  In  In25  1  0.47715632  0.35157443  0.46189458  1
  In  In26  1  0.81008309  0.31048087  0.47657431  1
  In  In27  1  0.67366172  0.81533027  0.50960967  1
  In  In28  1  0.50091936  -0.00047202  0.50674086  1
  In  In29  1  0.70819786  0.06036209  0.86760123  1
  In  In30  1  0.00158616  0.82300289  0.18345729  1
  In  In31  1  0.33294396  0.83539934  0.50619710  1
  In  In32  1  -0.00098880  0.66942176  0.00970973  1
  In  In33  1  0.63952371  0.51941439  0.15060545  1
  In  In34  1  0.82956395  0.00315188  0.16237724  1
  In  In35  1  0.32923859  0.00080289  0.63513522  1
  In  In36  1  0.83243848  0.65996829  0.84153336  1
  In  In37  1  0.18280340  0.00842181  0.15542420  1
  In  In38  1  0.48371326  0.65649459  0.51278424  1
  In  In39  1  0.16879528  0.67673521  0.17291910  1
  In  In40  1  0.34668825  0.16883585  0.83902657  1
  In  In41  1  0.15691971  0.50624903  -0.00020098  1
  In  In42  1  0.00017771  0.28705666  -0.01013055  1
  In  In43  1  0.14886383  0.34229840  0.85210473  1
  In  In44  1  0.50252936  -0.07954147  0.20024801  1
  In  In45  1  0.46795653  0.53426823  -0.00887241  1
  In  In46  1  0.13836426  0.17782065  0.32669838  1
  In  In47  1  0.32160887  0.67034989  0.32757778  1
  In  In48  1  0.83849389  0.85566962  -0.02809488  1
  In  In49  1  0.15377059  -0.03817865  0.83696040  1
  In  In50  1  0.04286402  0.86829754  0.48680403  1
  In  In51  1  0.18955750  0.70956193  0.82023742  1
  In  In52  1  0.83306997  0.33503297  0.18951849  1
  In  In53  1  0.01617939  0.67840982  0.68943369  1
  In  In54  1  0.63143954  0.50362415  0.49643555  1
  In  In55  1  0.18370025  0.51995612  0.69637789  1
  In  In56  1  0.68101137  0.84038807  0.12956496  1
  In  In57  1  0.18209197  0.13308369  0.67785795  1
  In  In58  1  0.67083247  0.31942302  0.02058420  1
  In  In59  1  0.00959170  0.35248618  0.34086005  1
  In  In60  1  0.84816008  -0.03198514  0.48585535  1
  In  In61  1  0.35141287  0.34789540  0.68023380  1
  In  In62  1  0.51943981  0.52074817  0.71584269  1
  In  In63  1  0.48578040  0.52495067  0.33797292  1
  In  In64  1  0.80980869  0.65982235  0.13394100  1
  In  In65  1  0.50393149  0.17228583  0.63201727  1
  In  In66  1  0.50029189  0.17484737  0.31380876  1
  In  In67  1  0.67201940  0.33565419  0.64853165  1
  In  In68  1  0.67311293  -0.02534967  0.32713004  1
  In  In69  1  -0.00139402  0.68477125  0.35681452  1
  In  In70  1  0.66771876  0.14485246  0.49917494  1
  In  In71  1  0.35605173  0.84306261  0.83841111  1
  Te  Te72  1  0.08769655  0.07407760  0.06128634  1
  Te  Te73  1  0.07328416  0.06562046  0.39429884  1
  Te  Te74  1  0.07783963  0.04194659  0.73230414  1
  Te  Te75  1  0.05588849  0.41656604  0.06951436  1
  Te  Te76  1  0.09463138  0.44311959  0.42845609  1
  Te  Te77  1  0.07308357  0.42191075  0.73883875  1
  Te  Te78  1  0.09323606  0.76605850  0.07648219  1
  Te  Te79  1  0.11845667  0.75305391  0.41949245  1
  Te  Te80  1  0.08092437  0.78827495  0.76180856  1
  Te  Te81  1  0.40541758  0.08809896  0.09425915  1
  Te  Te82  1  0.42268117  0.09506133  0.41945208  1
  Te  Te83  1  0.41678181  0.08670764  0.73203209  1
  Te  Te84  1  0.39605731  0.43452630  0.07122274  1
  Te  Te85  1  0.37867166  0.45650376  0.41741947  1
  Te  Te86  1  0.43116238  0.41810676  0.78676861  1
  Te  Te87  1  0.40269983  0.76392626  0.01222064  1
  Te  Te88  1  0.41873333  0.75118536  0.41500450  1
  Te  Te89  1  0.44320273  0.73410167  0.77533167  1
  Te  Te90  1  0.73492749  0.07652753  0.07698809  1
  Te  Te91  1  0.75945930  0.06908306  0.40769099  1
  Te  Te92  1  0.79959235  0.07102334  0.75321886  1
  Te  Te93  1  0.74892788  0.42210089  0.09845697  1
  Te  Te94  1  0.74393408  0.43462014  0.42010127  1
  Te  Te95  1  0.72989840  0.40173721  0.77416275  1
  Te  Te96  1  0.74727183  0.74755733  0.02837116  1
  Te  Te97  1  0.76727189  0.74430875  0.42267337  1
  Te  Te98  1  0.79395968  0.76536598  0.74254561  1
  Te  Te99  1  0.06265966  0.26596868  0.22624055  1
  Te  Te100  1  0.08610980  0.23356770  0.60034591  1
  Te  Te101  1  0.07864110  0.22064884  0.88646285  1
  Te  Te102  1  0.08559801  0.59365535  0.26558575  1
  Te  Te103  1  0.10972024  0.60369611  0.59435938  1
  Te  Te104  1  0.08468673  0.59974338  0.89774829  1
  Te  Te105  1  0.09295390  0.92413746  0.24863793  1
  Te  Te106  1  0.04089298  0.95486171  0.60604493  1
  Te  Te107  1  0.05611937  0.93627953  0.94323652  1
  Te  Te108  1  0.40575564  0.27279038  0.26303941  1
  Te  Te109  1  0.39201071  0.25217630  0.56635828  1
  Te  Te110  1  0.41463478  0.25547678  0.94056351  1
  Te  Te111  1  0.43286253  0.61675090  0.22604780  1
  Te  Te112  1  0.41618125  0.57014217  0.61622223  1
  Te  Te113  1  0.41391024  0.62968245  0.89219993  1
  Te  Te114  1  0.37414090  0.90730610  0.26813443  1
  Te  Te115  1  0.43645384  0.89981416  0.60048990  1
  Te  Te116  1  0.45938574  0.89465300  0.95064069  1
  Te  Te117  1  0.74045178  0.24815349  0.26135500  1
  Te  Te118  1  0.76047057  0.22584570  0.59074845  1
  Te  Te119  1  0.72820212  0.21953225  0.91828875  1
  Te  Te120  1  0.72605014  0.59955848  0.23605454  1
  Te  Te121  1  0.72738837  0.57156959  0.59269378  1
  Te  Te122  1  0.75051838  0.55658470  0.89660819  1
  Te  Te123  1  0.76581579  0.89029249  0.24376835  1
  Te  Te124  1  0.76035163  0.90780302  0.59344831  1
  Te  Te125  1  0.71996603  0.91463247  0.90115686  1
  Te  Te126  1  0.23372295  0.24798601  0.06305235  1
  Te  Te127  1  0.23453290  0.27180087  0.39917066  1
  Te  Te128  1  0.25393946  0.25181630  0.74682306  1
  Te  Te129  1  0.24884971  0.60537799  0.06643339  1
  Te  Te130  1  0.29524199  0.58532900  0.44116115  1
  Te  Te131  1  0.27803712  0.58914594  0.79134772  1
  Te  Te132  1  0.25922963  0.91452059  0.07147777  1
  Te  Te133  1  0.28770165  0.92901414  0.39703214  1
  Te  Te134  1  0.26396537  0.91397901  0.73983048  1
  Te  Te135  1  0.58426599  0.24808857  0.11462138  1
  Te  Te136  1  0.59044252  0.25275941  0.42539460  1
  Te  Te137  1  0.58101015  0.24671920  0.73745150  1
  Te  Te138  1  0.57921968  0.61894509  0.05271244  1
  Te  Te139  1  0.58767686  0.61358502  0.40418315  1
  Te  Te140  1  0.62581346  0.57503111  0.80590599  1
  Te  Te141  1  0.58286055  0.93577900  0.07746826  1
  Te  Te142  1  0.58182405  0.90289581  0.42326660  1
  Te  Te143  1  0.61076336  0.89151925  0.77159749  1
  Te  Te144  1  0.88963849  0.23690225  0.08099491  1
  Te  Te145  1  0.92413453  0.24413030  0.40420059  1
  Te  Te146  1  0.91392901  0.19655781  0.75617615  1
  Te  Te147  1  0.90480425  0.56492803  0.06131784  1
  Te  Te148  1  0.91862831  0.58833461  0.44164212  1
  Te  Te149  1  0.91393946  0.56593173  0.72971485  1
  Te  Te150  1  0.92176176  0.90998604  0.08754751  1
  Te  Te151  1  0.92527801  0.87688898  0.40089208  1
  Te  Te152  1  0.89480982  0.95967284  0.79192886  1
  Te  Te153  1  0.24883134  0.10054528  0.25692548  1
  Te  Te154  1  0.21696581  0.05716386  0.54956726  1
  Te  Te155  1  0.24958013  0.07076702  0.89626112  1
  Te  Te156  1  0.22935652  0.44451968  0.24890183  1
  Te  Te157  1  0.24973912  0.42489648  0.59766903  1
  Te  Te158  1  0.24764342  0.41865905  0.92459563  1
  Te  Te159  1  0.28060029  0.77129712  0.21600710  1
  Te  Te160  1  0.24169896  0.76452199  0.59557823  1
  Te  Te161  1  0.25470936  0.78339134  0.93119037  1
  Te  Te162  1  0.56743358  0.05449383  0.25280273  1
  Te  Te163  1  0.60214629  0.05914600  0.60482963  1
  Te  Te164  1  0.56138051  0.08343858  0.90019003  1
  Te  Te165  1  0.55597053  0.43002202  0.24275546  1
  Te  Te166  1  0.55515287  0.41281211  0.59004841  1
  Te  Te167  1  0.57212116  0.41821207  0.96205179  1
  Te  Te168  1  0.57470581  0.78431157  0.23076511  1
  Te  Te169  1  0.57980997  0.73713093  0.59843532  1
  Te  Te170  1  0.58741209  0.76633141  0.84981751  1
  Te  Te171  1  0.91561638  0.07502073  0.25764386  1
  Te  Te172  1  0.92070099  0.06059797  0.58121482  1
  Te  Te173  1  0.94553286  0.03965678  0.92007578  1
  Te  Te174  1  0.90835593  0.44100321  0.27029409  1
  Te  Te175  1  0.91047782  0.39278855  0.57112387  1
  Te  Te176  1  0.90886390  0.38427282  0.91074650  1
  Te  Te177  1  0.90888794  0.71845020  0.23911501  1
  Te  Te178  1  0.94738650  0.75990640  0.57849921  1
  Te  Te179  1  0.93262662  0.75415577  0.90429968  1
