# generated using pymatgen
data_In2Te3
_symmetry_space_group_name_H-M   'P 1'
_cell_length_a   18.78081291
_cell_length_b   18.77477757
_cell_length_c   18.78315992
_cell_angle_alpha   89.95906476
_cell_angle_beta   89.95549547
_cell_angle_gamma   89.87983386
_symmetry_Int_Tables_number   1
_chemical_formula_structural   In2Te3
_chemical_formula_sum   'In72 Te108'
_cell_volume   6623.02884421
_cell_formula_units_Z   36
loop_
 _symmetry_equiv_pos_site_id
 _symmetry_equiv_pos_as_xyz
  1  'x, y, z'
loop_
 _atom_site_type_symbol
 _atom_site_label
 _atom_site_symmetry_multiplicity
 _atom_site_fract_x
 _atom_site_fract_y
 _atom_site_fract_z
 _atom_site_occupancy
  In  In0  1  0.68804199  0.68077654  0.32507613  1
  In  In1  1  0.01437182  0.31395580  0.65954740  1
  In  In2  1  0.33227589  0.18182162  0.17793909  1
  In  In3  1  0.69729942  0.67934972  0.01172527  1
  In  In4  1  0.18018469  0.51432220  0.33793900  1
  In  In5  1  0.65735369  0.81814517  0.48698921  1
  In  In6  1  0.15534767  0.32928118  0.17363120  1
  In  In7  1  0.68948450  0.67130846  0.68201816  1
  In  In8  1  0.32838977  0.52774336  0.16623065  1
  In  In9  1  0.65131957  0.50885658  0.51082621  1
  In  In10  1  0.49122449  -0.01494762  0.51526584  1
  In  In11  1  0.70998872  -0.01137030  0.01102491  1
  In  In12  1  0.15467745  0.15080294  0.33889953  1
  In  In13  1  0.50708325  0.15454971  0.31667548  1
  In  In14  1  -0.03223803  0.13058655  0.86916394  1
  In  In15  1  0.69087846  0.50229431  0.86692547  1
  In  In16  1  -0.00233810  0.52999047  0.83452864  1
  In  In17  1  0.31540622  0.33227666  0.00052563  1
  In  In18  1  0.83336167  0.51575717  0.01368593  1
  In  In19  1  0.50674347  0.17971472  0.00761629  1
  In  In20  1  0.83884878  0.30569823  0.15485277  1
  In  In21  1  0.82376011  0.50877892  0.32500113  1
  In  In22  1  0.00635982  0.30209086  0.33839473  1
  In  In23  1  0.16454463  0.31507227  0.51545029  1
  In  In24  1  0.49811573  0.81718194  0.34613095  1
  In  In25  1  0.52537876  0.69007900  0.84194509  1
  In  In26  1  0.32497240  0.83209839  0.16624435  1
  In  In27  1  0.48748981  0.68319893  0.47399569  1
  In  In28  1  0.15825416  0.68014260  0.84122665  1
  In  In29  1  0.00616843  0.51984528  0.49901615  1
  In  In30  1  0.67219038  0.33428180  0.32073833  1
  In  In31  1  -0.00813599  0.86603501  0.15784581  1
  In  In32  1  0.48892882  0.15865324  0.68862412  1
  In  In33  1  -0.01118526  0.82438734  0.48439637  1
  In  In34  1  0.16004619  0.17449704  0.65900891  1
  In  In35  1  0.32709218  0.47664446  0.83452423  1
  In  In36  1  0.83475585  0.51196444  0.67275963  1
  In  In37  1  0.49641281  0.67652536  0.16298690  1
  In  In38  1  -0.00933998  0.83669752  0.86969735  1
  In  In39  1  0.34534895  0.00395232  0.66434521  1
  In  In40  1  0.68150512  0.33758734  -0.00429585  1
  In  In41  1  0.30399063  0.32889693  0.66760108  1
  In  In42  1  0.50119015  0.31477349  0.83227630  1
  In  In43  1  0.49033844  0.53395669  0.01249999  1
  In  In44  1  0.31562998  -0.00659096  0.33579460  1
  In  In45  1  0.31292390  0.17762424  0.50576099  1
  In  In46  1  0.33975428  -0.02454461  -0.01211214  1
  In  In47  1  -0.00438245  0.69260982  0.31535034  1
  In  In48  1  0.52789903  -0.01402235  0.14876412  1
  In  In49  1  0.32128249  0.68186695  0.01204845  1
  In  In50  1  0.17578121  0.31239903  0.83608119  1
  In  In51  1  0.50220047  0.86019932  0.67262403  1
  In  In52  1  -0.01786712  0.51352409  0.16846854  1
  In  In53  1  0.85215181  -0.01545065  0.49042025  1
  In  In54  1  0.15240623  0.83055365  0.01155870  1
  In  In55  1  0.68171955  0.14406266  0.84457826  1
  In  In56  1  0.52412130  0.50143990  0.63968939  1
  In  In57  1  0.16331614  0.83322281  0.65830146  1
  In  In58  1  0.33748233  0.68057391  0.66629920  1
  In  In59  1  0.67151173  -0.00837064  0.69759329  1
  In  In60  1  0.85539409  0.30369903  0.47956711  1
  In  In61  1  0.70214425  -0.02681941  0.29372686  1
  In  In62  1  0.16345265  0.83581089  0.31163437  1
  In  In63  1  -0.00702383  -0.00471111  0.65120722  1
  In  In64  1  0.82240259  0.32692161  0.83003929  1
  In  In65  1  0.16738277  -0.00526882  0.84254171  1
  In  In66  1  -0.00033179  0.31950449  0.00652629  1
  In  In67  1  0.52161470  0.32753869  0.16742334  1
  In  In68  1  0.15854612  0.49760787  0.64475441  1
  In  In69  1  0.83961658  0.83298594  0.67464487  1
  In  In70  1  0.68680700  0.16653476  0.49781085  1
  In  In71  1  0.47609823  0.37060966  0.46946419  1
  Te  Te72  1  0.01864203  0.08930787  0.11850431  1
  Te  Te73  1  0.04878997  0.10274646  0.42917897  1
  Te  Te74  1  0.07599499  0.08476104  0.75258435  1
  Te  Te75  1  0.07678164  0.42520209  0.08426646  1
  Te  Te76  1  0.08163713  0.41100155  0.41787917  1
  Te  Te77  1  0.08549958  0.41266346  0.75540017  1
  Te  Te78  1  0.06081761  0.74864471  0.09272145  1
  Te  Te79  1  0.09782661  0.73936690  0.41586918  1
  Te  Te80  1  0.06586257  0.76436386  0.75377198  1
  Te  Te81  1  0.41805306  0.08512134  0.09303042  1
  Te  Te82  1  0.41307505  0.08911891  0.42132542  1
  Te  Te83  1  0.42652063  0.05766480  0.78127877  1
  Te  Te84  1  0.41898737  0.41234155  0.07923463  1
  Te  Te85  1  0.39719681  0.47150092  0.39729165  1
  Te  Te86  1  0.42595838  0.41180048  0.73683322  1
  Te  Te87  1  0.42691777  0.77470426  0.06700741  1
  Te  Te88  1  0.37725221  0.75320628  0.40085865  1
  Te  Te89  1  0.41683033  0.76502123  0.76369075  1
  Te  Te90  1  0.77742819  0.05789156  0.12763977  1
  Te  Te91  1  0.75581098  0.06869137  0.40253237  1
  Te  Te92  1  0.77460513  0.08764691  0.74156990  1
  Te  Te93  1  0.75167376  0.42143103  0.10148337  1
  Te  Te94  1  0.75666553  0.41837066  0.43151890  1
  Te  Te95  1  0.73579019  0.41973589  0.74449696  1
  Te  Te96  1  0.78890998  0.76912315  0.09188998  1
  Te  Te97  1  0.77191147  0.76472873  0.41333901  1
  Te  Te98  1  0.73278324  0.78274309  0.76823757  1
  Te  Te99  1  0.06316337  0.21774714  0.22403971  1
  Te  Te100  1  0.05518443  0.20819447  0.54882632  1
  Te  Te101  1  0.08193410  0.22377811  0.91897173  1
  Te  Te102  1  0.08916850  0.59316557  0.24409824  1
  Te  Te103  1  0.08559917  0.61087873  0.58490879  1
  Te  Te104  1  0.06743264  0.61053251  0.93567196  1
  Te  Te105  1  0.06602976  0.94161648  0.26583060  1
  Te  Te106  1  0.08535843  0.92037692  0.55879697  1
  Te  Te107  1  0.06908537  0.94245700  0.94681327  1
  Te  Te108  1  0.41876971  0.27008174  0.26688071  1
  Te  Te109  1  0.41893634  0.25189549  0.58660555  1
  Te  Te110  1  0.39915229  0.23662526  0.91382882  1
  Te  Te111  1  0.42581190  0.58734580  0.26013898  1
  Te  Te112  1  0.41888971  0.58677839  0.57388063  1
  Te  Te113  1  0.40624309  0.59230280  0.89920886  1
  Te  Te114  1  0.42469109  0.92546490  0.24941422  1
  Te  Te115  1  0.38987605  0.88802987  0.56945004  1
  Te  Te116  1  0.43703096  0.93528240  0.88472896  1
  Te  Te117  1  0.76826178  0.23730176  0.26515819  1
  Te  Te118  1  0.77346419  0.24617926  0.58821914  1
  Te  Te119  1  0.77094428  0.22986356  0.93636709  1
  Te  Te120  1  0.75979871  0.59597845  0.22586339  1
  Te  Te121  1  0.76046739  0.59918019  0.56858878  1
  Te  Te122  1  0.78459750  0.61332122  0.90067623  1
  Te  Te123  1  0.76801179  0.86310769  0.21705308  1
  Te  Te124  1  0.73552940  0.91359085  0.57869656  1
  Te  Te125  1  0.77667880  0.89973359  0.90400679  1
  Te  Te126  1  0.22862146  0.23341620  0.07697219  1
  Te  Te127  1  0.24672028  0.26003321  0.39681753  1
  Te  Te128  1  0.26765117  0.21451605  0.76019908  1
  Te  Te129  1  0.22992814  0.58612168  0.07401135  1
  Te  Te130  1  0.28101092  0.57270202  0.42616892  1
  Te  Te131  1  0.24444417  0.57842641  0.75185484  1
  Te  Te132  1  0.23442152  0.93011849  0.09366903  1
  Te  Te133  1  0.22583014  0.91743106  0.42156138  1
  Te  Te134  1  0.25572872  0.91198674  0.75034713  1
  Te  Te135  1  0.61925058  0.23634966  0.09402699  1
  Te  Te136  1  0.57886041  0.24475313  0.41841464  1
  Te  Te137  1  0.60403303  0.24073283  0.74994760  1
  Te  Te138  1  0.60424400  0.58505570  0.09411184  1
  Te  Te139  1  0.58621810  0.59083486  0.40119929  1
  Te  Te140  1  0.58833444  0.57427717  0.76149830  1
  Te  Te141  1  0.60505303  0.89275528  0.06443661  1
  Te  Te142  1  0.58657253  0.93541796  0.40428621  1
  Te  Te143  1  0.58048887  0.91508832  0.78818260  1
  Te  Te144  1  0.92053191  0.20880449  0.07216005  1
  Te  Te145  1  0.91419071  0.19582478  0.39229311  1
  Te  Te146  1  0.92883533  0.24030043  0.76311283  1
  Te  Te147  1  0.92233612  0.61452617  0.07816732  1
  Te  Te148  1  0.91377758  0.59998385  0.40824795  1
  Te  Te149  1  0.91861247  0.61243163  0.74137957  1
  Te  Te150  1  0.90694175  0.95952471  0.06851511  1
  Te  Te151  1  0.93274404  0.91933023  0.38252448  1
  Te  Te152  1  0.91908904  0.92656436  0.76456529  1
  Te  Te153  1  0.23726291  0.07516723  0.23374266  1
  Te  Te154  1  0.23610431  0.06893804  0.57594790  1
  Te  Te155  1  0.24672281  0.07787507  0.93576625  1
  Te  Te156  1  0.25596343  0.41650232  0.24596798  1
  Te  Te157  1  0.26272403  0.42612696  0.55857677  1
  Te  Te158  1  0.21889438  0.42824133  0.92941814  1
  Te  Te159  1  0.25368195  0.73422469  0.24866955  1
  Te  Te160  1  0.23284272  0.73019137  0.57587592  1
  Te  Te161  1  0.25476953  0.77543902  0.91129437  1
  Te  Te162  1  0.61032287  0.08421916  0.23180470  1
  Te  Te163  1  0.58359819  0.08109205  0.59071722  1
  Te  Te164  1  0.59191348  0.07178174  0.94215587  1
  Te  Te165  1  0.58298291  0.42967446  0.25346863  1
  Te  Te166  1  0.59270940  0.38350217  0.57562119  1
  Te  Te167  1  0.56843704  0.41752825  0.92537697  1
  Te  Te168  1  0.59303494  0.76793079  0.23886617  1
  Te  Te169  1  0.57455102  0.74133682  0.59672424  1
  Te  Te170  1  0.59597398  0.76861615  0.94496426  1
  Te  Te171  1  0.90923402  0.04827554  0.21104941  1
  Te  Te172  1  0.88668988  0.08432146  0.59665443  1
  Te  Te173  1  0.86914772  0.03347908  0.93255875  1
  Te  Te174  1  0.91924226  0.40251420  0.25836018  1
  Te  Te175  1  0.92597393  0.41617353  0.58464039  1
  Te  Te176  1  0.91299086  0.41699227  0.91645744  1
  Te  Te177  1  0.89274505  0.76636249  0.23144616  1
  Te  Te178  1  0.91239035  0.74268364  0.58325164  1
  Te  Te179  1  0.87170414  0.78536043  0.94639854  1
