# generated using pymatgen
data_In2Te3
_symmetry_space_group_name_H-M   'P 1'
_cell_length_a   18.87563053
_cell_length_b   18.89996904
_cell_length_c   18.90021412
_cell_angle_alpha   90.07244278
_cell_angle_beta   89.96299255
_cell_angle_gamma   90.10051225
_symmetry_Int_Tables_number   1
_chemical_formula_structural   In2Te3
_chemical_formula_sum   'In72 Te108'
_cell_volume   6742.61216342
_cell_formula_units_Z   36
loop_
 _symmetry_equiv_pos_site_id
 _symmetry_equiv_pos_as_xyz
  1  'x, y, z'
loop_
 _atom_site_type_symbol
 _atom_site_label
 _atom_site_symmetry_multiplicity
 _atom_site_fract_x
 _atom_site_fract_y
 _atom_site_fract_z
 _atom_site_occupancy
  In  In0  1  -0.00659553  0.49086693  0.48804292  1
  In  In1  1  0.03127477  0.69764600  0.70010276  1
  In  In2  1  0.49380550  0.35069501  0.84079196  1
  In  In3  1  0.66167166  0.32056523  -0.00995793  1
  In  In4  1  0.19613607  0.01376352  0.54566953  1
  In  In5  1  -0.01191116  -0.01032769  0.31635833  1
  In  In6  1  0.15684801  0.82904037  0.33270522  1
  In  In7  1  0.17990328  0.50649160  0.67134027  1
  In  In8  1  0.66413958  -0.02360764  0.31568229  1
  In  In9  1  0.30760542  0.14323183  0.83497874  1
  In  In10  1  0.32936089  0.67951682  0.67602462  1
  In  In11  1  0.48190755  0.14201908  0.70265123  1
  In  In12  1  0.84185015  0.69080606  0.52944074  1
  In  In13  1  0.85489687  0.15350441  0.00536111  1
  In  In14  1  0.67958113  0.34196232  0.32345705  1
  In  In15  1  0.66705110  0.32316693  0.67975105  1
  In  In16  1  0.82917379  0.49025815  0.31313329  1
  In  In17  1  0.85433063  0.00967165  0.84189068  1
  In  In18  1  0.66638497  0.65685779  0.00686844  1
  In  In19  1  0.48160999  0.31864071  0.51701930  1
  In  In20  1  0.18473797  0.16507789  0.31949044  1
  In  In21  1  0.31920587  0.83812476  0.15652089  1
  In  In22  1  0.14565447  0.32604793  0.49945026  1
  In  In23  1  0.46061239  0.74067003  0.27746579  1
  In  In24  1  0.83078237  0.83188973  0.34123782  1
  In  In25  1  0.65956031  0.67032738  0.67861655  1
  In  In26  1  0.80846392  -0.01778653  0.50948334  1
  In  In27  1  0.34118667  0.16058153  0.12685941  1
  In  In28  1  0.48759824  0.01118965  0.14016551  1
  In  In29  1  0.64325954  0.00398938  -0.01894534  1
  In  In30  1  0.19520878  0.51667427  0.30782157  1
  In  In31  1  0.17357159  0.68188497  0.50845996  1
  In  In32  1  0.86809772  0.33126890  0.16888915  1
  In  In33  1  0.50999693  0.32866247  0.15741831  1
  In  In34  1  0.47998316  -0.01007552  0.53348883  1
  In  In35  1  0.30900296  0.35209195  0.32597073  1
  In  In36  1  0.83381721  0.49957584  -0.01658757  1
  In  In37  1  0.47292384  0.66685645  0.48481110  1
  In  In38  1  0.64011484  0.50702084  0.51632098  1
  In  In39  1  0.67076486  0.50330033  0.84710970  1
  In  In40  1  0.65922426  0.82956401  0.82368966  1
  In  In41  1  0.14482499  0.31948088  0.87361176  1
  In  In42  1  0.83629085  0.66759624  0.16023250  1
  In  In43  1  0.32749395  0.50159933  0.50962986  1
  In  In44  1  0.82592679  0.15823053  0.68246210  1
  In  In45  1  0.33589393  -0.02004800  0.33221338  1
  In  In46  1  0.48423603  0.14438902  0.32278464  1
  In  In47  1  0.85994528  0.81924815  -0.01075429  1
  In  In48  1  0.02289344  0.63569280  0.31777716  1
  In  In49  1  0.15170899  -0.00637976  0.84474432  1
  In  In50  1  0.00193291  0.16060577  0.48493377  1
  In  In51  1  0.67091383  0.52528760  0.14256171  1
  In  In52  1  0.61551546  0.14961477  0.49849099  1
  In  In53  1  0.02721554  0.53182398  0.83403323  1
  In  In54  1  0.01308719  0.32252491  0.64546772  1
  In  In55  1  0.85384787  0.33322775  0.84185191  1
  In  In56  1  0.49257868  0.83655941  0.69031545  1
  In  In57  1  0.00443918  0.84266136  0.14428521  1
  In  In58  1  0.01694899  -0.02025802  0.68433096  1
  In  In59  1  0.14727613  0.35293964  0.15864347  1
  In  In60  1  0.19127882  0.82595116  -0.01969522  1
  In  In61  1  0.03872506  0.14675554  0.13511570  1
  In  In62  1  0.47466548  0.63782442  0.87842850  1
  In  In63  1  0.01831411  0.67453399  -0.00588401  1
  In  In64  1  0.84714196  0.31943343  0.51407927  1
  In  In65  1  0.33067060  0.34705109  -0.00037772  1
  In  In66  1  0.86277030  0.14027339  0.34979735  1
  In  In67  1  0.66758133  0.85491400  0.51496628  1
  In  In68  1  0.67953110  0.18902280  0.13414338  1
  In  In69  1  0.47199861  0.87518714  -0.03682037  1
  In  In70  1  0.46831616  0.53382849  0.30244934  1
  In  In71  1  0.34855226  0.32325801  0.70596633  1
  Te  Te72  1  0.12635836  0.04988545  0.06546993  1
  Te  Te73  1  0.09128878  0.07355727  0.39876411  1
  Te  Te74  1  0.09438450  0.08762912  0.74546645  1
  Te  Te75  1  0.06169301  0.46145880  0.11147351  1
  Te  Te76  1  0.10291750  0.43139086  0.40004030  1
  Te  Te77  1  0.08880901  0.40935695  0.74675428  1
  Te  Te78  1  0.10894538  0.74895542  0.09058363  1
  Te  Te79  1  0.06615032  0.74181565  0.41901739  1
  Te  Te80  1  0.12706091  0.78735214  0.78062270  1
  Te  Te81  1  0.40896237  0.07055410  0.02827882  1
  Te  Te82  1  0.40362277  0.07794560  0.42911848  1
  Te  Te83  1  0.40483392  0.04100774  0.78301858  1
  Te  Te84  1  0.42941554  0.42620565  0.08099723  1
  Te  Te85  1  0.42158405  0.42224618  0.41351486  1
  Te  Te86  1  0.40163127  0.44218526  0.77153590  1
  Te  Te87  1  0.40499325  0.77068904  0.04917323  1
  Te  Te88  1  0.41017409  0.77488846  0.41034665  1
  Te  Te89  1  0.41682462  0.74443703  0.78330139  1
  Te  Te90  1  0.74898559  0.06880418  0.07503140  1
  Te  Te91  1  0.73418019  0.08292638  0.41358840  1
  Te  Te92  1  0.74405937  0.08544323  0.77797688  1
  Te  Te93  1  0.75590217  0.40543466  0.08589071  1
  Te  Te94  1  0.74879707  0.42153416  0.43415053  1
  Te  Te95  1  0.75829981  0.41774111  0.75635114  1
  Te  Te96  1  0.75094328  0.76171444  0.08110943  1
  Te  Te97  1  0.73977860  0.75024015  0.43022596  1
  Te  Te98  1  0.75821406  0.76462305  0.73464012  1
  Te  Te99  1  0.08090899  0.24547283  0.24502723  1
  Te  Te100  1  0.10158222  0.21137471  0.58903991  1
  Te  Te101  1  0.05898867  0.21567297  0.93356233  1
  Te  Te102  1  0.10688805  0.58345604  0.20525193  1
  Te  Te103  1  0.08247173  0.57864621  0.57896212  1
  Te  Te104  1  0.12434346  0.58551335  0.93499516  1
  Te  Te105  1  0.09732754  0.92657421  0.23298560  1
  Te  Te106  1  0.09683038  0.91203875  0.58061953  1
  Te  Te107  1  0.07127081  0.88258882  0.90770428  1
  Te  Te108  1  0.40610215  0.25325799  0.24890209  1
  Te  Te109  1  0.39828833  0.21504546  0.59536153  1
  Te  Te110  1  0.39645437  0.25084292  0.90342660  1
  Te  Te111  1  0.37784385  0.62540207  0.22423302  1
  Te  Te112  1  0.42003059  0.58002896  0.59815481  1
  Te  Te113  1  0.37646703  0.56716836  0.96441037  1
  Te  Te114  1  0.43686900  0.91013700  0.24271303  1
  Te  Te115  1  0.38931667  0.89441774  0.59983805  1
  Te  Te116  1  0.34674004  0.91961179  0.88435949  1
  Te  Te117  1  0.76920381  0.24253258  0.25295729  1
  Te  Te118  1  0.72974262  0.23879075  0.56835286  1
  Te  Te119  1  0.76167786  0.23582024  0.91414808  1
  Te  Te120  1  0.74070631  0.60014550  0.25795453  1
  Te  Te121  1  0.74866326  0.58185479  0.59119735  1
  Te  Te122  1  0.76659974  0.60770558  0.90143792  1
  Te  Te123  1  0.76883341  0.91354199  0.23638615  1
  Te  Te124  1  0.75185707  0.90795235  0.62441797  1
  Te  Te125  1  0.75132435  0.91149241  0.91751104  1
  Te  Te126  1  0.23440835  0.25528892  0.07792888  1
  Te  Te127  1  0.25553688  0.24875395  0.42443565  1
  Te  Te128  1  0.22929944  0.25119362  0.76178919  1
  Te  Te129  1  0.31219010  0.64816472  0.07312267  1
  Te  Te130  1  0.26411894  0.60059696  0.41564152  1
  Te  Te131  1  0.25070440  0.59184146  0.77000272  1
  Te  Te132  1  0.24274195  0.93466422  0.07277832  1
  Te  Te133  1  0.23748220  0.91748299  0.42726498  1
  Te  Te134  1  0.24527780  0.89801053  0.77359501  1
  Te  Te135  1  0.55324012  0.22241240  0.05046803  1
  Te  Te136  1  0.57240596  0.26253932  0.39959249  1
  Te  Te137  1  0.57807000  0.24181155  0.77007213  1
  Te  Te138  1  0.55563913  0.61487425  0.10343544  1
  Te  Te139  1  0.57484379  0.58675558  0.40603058  1
  Te  Te140  1  0.57161875  0.58324795  0.76626637  1
  Te  Te141  1  0.57641273  0.90631802  0.07767725  1
  Te  Te142  1  0.57081333  0.92610282  0.42169558  1
  Te  Te143  1  0.56408398  0.93305696  0.77707815  1
  Te  Te144  1  0.95086692  0.25930296  0.06591979  1
  Te  Te145  1  0.93435668  0.26971953  0.40224016  1
  Te  Te146  1  0.93271620  0.24211898  0.74910981  1
  Te  Te147  1  0.92390293  0.57752255  0.07865971  1
  Te  Te148  1  0.90429982  0.59040090  0.41434407  1
  Te  Te149  1  0.93140604  0.59741036  0.74604893  1
  Te  Te150  1  0.93228262  0.93088847  0.05285631  1
  Te  Te151  1  0.92177106  0.91403932  0.43088676  1
  Te  Te152  1  0.91537247  0.90517232  0.75887277  1
  Te  Te153  1  0.26936844  0.07534197  0.23257260  1
  Te  Te154  1  0.29988349  0.09174336  0.61121294  1
  Te  Te155  1  0.20480086  0.10198107  0.94071824  1
  Te  Te156  1  0.27301600  0.43433792  0.20538627  1
  Te  Te157  1  0.25537624  0.39349440  0.58881819  1
  Te  Te158  1  0.22542691  0.42778177  0.93238343  1
  Te  Te159  1  0.25288230  0.74748754  0.25452471  1
  Te  Te160  1  0.25479806  0.77369572  0.59091360  1
  Te  Te161  1  0.21917045  0.71499298  0.87999021  1
  Te  Te162  1  0.59391654  0.09370761  0.23199170  1
  Te  Te163  1  0.58575108  0.06306240  0.61630511  1
  Te  Te164  1  0.55002418  0.11003250  0.94319497  1
  Te  Te165  1  0.58869238  0.43405358  0.24446875  1
  Te  Te166  1  0.56455602  0.41036587  0.60738425  1
  Te  Te167  1  0.57510339  0.43508881  0.94319858  1
  Te  Te168  1  0.58835300  0.71685655  0.21042812  1
  Te  Te169  1  0.57093834  0.74852066  0.57988931  1
  Te  Te170  1  0.57593389  0.75020536  0.92421219  1
  Te  Te171  1  0.92156722  0.08692532  0.22087229  1
  Te  Te172  1  0.90584420  0.08424192  0.57587183  1
  Te  Te173  1  0.95808698  0.09665307  0.91157801  1
  Te  Te174  1  0.94588900  0.43136760  0.24565263  1
  Te  Te175  1  0.91085990  0.42710022  0.60012661  1
  Te  Te176  1  0.94717587  0.42445140  0.91784753  1
  Te  Te177  1  0.93171029  0.74719360  0.25082520  1
  Te  Te178  1  0.94540597  0.76627134  0.60074722  1
  Te  Te179  1  0.93148924  0.73504369  0.89188659  1
