# generated using pymatgen
data_In2Te3
_symmetry_space_group_name_H-M   'P 1'
_cell_length_a   18.76150138
_cell_length_b   18.76790143
_cell_length_c   18.75213675
_cell_angle_alpha   89.98935001
_cell_angle_beta   89.93480786
_cell_angle_gamma   90.02221596
_symmetry_Int_Tables_number   1
_chemical_formula_structural   In2Te3
_chemical_formula_sum   'In72 Te108'
_cell_volume   6602.88515757
_cell_formula_units_Z   36
loop_
 _symmetry_equiv_pos_site_id
 _symmetry_equiv_pos_as_xyz
  1  'x, y, z'
loop_
 _atom_site_type_symbol
 _atom_site_label
 _atom_site_symmetry_multiplicity
 _atom_site_fract_x
 _atom_site_fract_y
 _atom_site_fract_z
 _atom_site_occupancy
  In  In0  1  0.20860005  0.30334452  0.47597605  1
  In  In1  1  0.47866700  0.01278663  0.47813398  1
  In  In2  1  0.68274682  0.83562025  0.84523495  1
  In  In3  1  -0.00734969  0.34193802  0.30324445  1
  In  In4  1  0.83551210  0.84859001  0.34346274  1
  In  In5  1  0.67650312  0.83542933  0.52129370  1
  In  In6  1  0.50510473  0.15365032  0.67482083  1
  In  In7  1  0.15508192  -0.00844791  0.83366475  1
  In  In8  1  0.18630499  0.49724131  0.32333521  1
  In  In9  1  -0.00951128  0.31066857  0.00269538  1
  In  In10  1  0.01464393  0.31644877  0.69534999  1
  In  In11  1  0.84233779  0.50353123  0.65697631  1
  In  In12  1  0.64632582  0.52958191  0.46729808  1
  In  In13  1  0.68033005  0.48079395  0.15637698  1
  In  In14  1  0.34924728  0.48054963  0.49951806  1
  In  In15  1  0.51788941  0.35362370  0.86554120  1
  In  In16  1  0.02476481  0.13649422  0.48695117  1
  In  In17  1  0.83036372  0.47756843  0.30670744  1
  In  In18  1  0.00001557  -0.01258658  0.66310584  1
  In  In19  1  0.34374030  0.32839521  0.02844392  1
  In  In20  1  -0.01481284  0.50714722  0.15896962  1
  In  In21  1  0.18121106  0.13406917  0.63492272  1
  In  In22  1  0.15798651  0.50906689  -0.01748190  1
  In  In23  1  -0.00490183  0.83120244  0.83721555  1
  In  In24  1  0.50671834  0.17441701  0.01010156  1
  In  In25  1  0.02323640  0.86547583  0.16270270  1
  In  In26  1  0.33222987  0.52469190  0.83988418  1
  In  In27  1  0.34244131  0.67886313  -0.00772031  1
  In  In28  1  0.32666278  0.85525745  0.47646733  1
  In  In29  1  0.66837254  0.01093371  0.32225819  1
  In  In30  1  0.13899191  0.32727379  0.83872069  1
  In  In31  1  -0.00798878  0.68940467  0.35187053  1
  In  In32  1  0.32595253  0.65504248  0.66012879  1
  In  In33  1  0.84803791  0.85134073  0.00024727  1
  In  In34  1  0.02376621  0.13944866  0.15174745  1
  In  In35  1  0.82865858  0.64785011  0.16368301  1
  In  In36  1  0.35455817  0.49914430  0.16278338  1
  In  In37  1  0.49214996  -0.00781004  0.83492159  1
  In  In38  1  0.00336374  0.68851957  0.68263771  1
  In  In39  1  0.66251311  0.50153159  0.85366830  1
  In  In40  1  0.16383879  0.31043995  0.17820043  1
  In  In41  1  0.67054079  0.32297371  0.65977087  1
  In  In42  1  0.16409774  0.69274051  0.16960096  1
  In  In43  1  0.49112167  0.32430015  0.49299953  1
  In  In44  1  0.00142510  0.49532274  0.50370331  1
  In  In45  1  0.80939476  0.29307501  0.50787725  1
  In  In46  1  0.66348437  0.67211387  -0.01020149  1
  In  In47  1  0.30648750  0.13938094  0.85324558  1
  In  In48  1  -0.00698485  0.49533199  0.84407430  1
  In  In49  1  0.66032978  0.17338215  0.50541157  1
  In  In50  1  0.65622257  0.32783499  0.33252631  1
  In  In51  1  0.84079168  0.15372153  0.31360633  1
  In  In52  1  0.47819936  0.84336633  0.31722566  1
  In  In53  1  0.70767106  0.15228050  0.84751449  1
  In  In54  1  0.83860151  0.31640878  0.85392620  1
  In  In55  1  0.50050126  0.51290712  0.67756376  1
  In  In56  1  0.65330480  0.85672977  0.17077920  1
  In  In57  1  0.50940951  0.83431995  0.66239647  1
  In  In58  1  0.48257940  0.67462432  0.15783074  1
  In  In59  1  0.02863581  0.87013674  0.48322354  1
  In  In60  1  0.32469823  0.32651070  0.65423007  1
  In  In61  1  0.14775144  0.69059950  0.49751832  1
  In  In62  1  0.32214738  0.14531427  0.19762781  1
  In  In63  1  0.82196176  0.68250719  0.50761625  1
  In  In64  1  0.83340288  0.84100453  0.68036825  1
  In  In65  1  0.17283673  0.85056990  0.01513289  1
  In  In66  1  0.31841232  0.85682697  0.83913930  1
  In  In67  1  0.49411393  -0.00491429  0.15871665  1
  In  In68  1  -0.01851707  0.13418048  0.87204596  1
  In  In69  1  0.66795198  0.13710250  0.14829583  1
  In  In70  1  0.49637940  0.66660731  0.85098800  1
  In  In71  1  0.32942296  0.68788968  0.32310355  1
  Te  Te72  1  0.11221342  0.07377879  0.05226022  1
  Te  Te73  1  0.12123997  0.05980149  0.40340626  1
  Te  Te74  1  0.08214684  0.09966560  0.74958244  1
  Te  Te75  1  0.09130833  0.41234023  0.08419584  1
  Te  Te76  1  0.08936497  0.41049177  0.40795570  1
  Te  Te77  1  0.09412326  0.43774987  0.74243877  1
  Te  Te78  1  0.06622402  0.74987983  0.07062486  1
  Te  Te79  1  0.10815173  0.78244578  0.38273406  1
  Te  Te80  1  0.09907496  0.78384536  0.74157766  1
  Te  Te81  1  0.40223923  0.08570576  0.07518039  1
  Te  Te82  1  0.36711797  0.08251034  0.40277690  1
  Te  Te83  1  0.39554073  0.07245282  0.74584092  1
  Te  Te84  1  0.44959535  0.40632675  0.09524197  1
  Te  Te85  1  0.42196567  0.40943513  0.39318015  1
  Te  Te86  1  0.41514808  0.40951222  0.75071183  1
  Te  Te87  1  0.40727828  0.77875978  0.08166104  1
  Te  Te88  1  0.42584753  0.74945581  0.42658513  1
  Te  Te89  1  0.41001078  0.74867126  0.75536103  1
  Te  Te90  1  0.76142907  0.05639504  0.06615444  1
  Te  Te91  1  0.75597956  0.08491323  0.42226904  1
  Te  Te92  1  0.75453869  0.08140099  0.72972247  1
  Te  Te93  1  0.76227916  0.41442472  0.05391203  1
  Te  Te94  1  0.75118486  0.41388722  0.42974803  1
  Te  Te95  1  0.75699003  0.41164459  0.75231318  1
  Te  Te96  1  0.74847230  0.75977488  0.09196798  1
  Te  Te97  1  0.73692761  0.74737624  0.40091422  1
  Te  Te98  1  0.74949742  0.74297341  0.75084036  1
  Te  Te99  1  0.08568199  0.22575393  0.27535922  1
  Te  Te100  1  0.09240627  0.25304295  0.57538327  1
  Te  Te101  1  0.09468339  0.21894455  0.93665511  1
  Te  Te102  1  0.07803599  0.58700965  0.26005518  1
  Te  Te103  1  0.08260089  0.58931094  0.59163764  1
  Te  Te104  1  0.07586813  0.60249002  0.90568098  1
  Te  Te105  1  0.08862825  0.96018950  0.25928586  1
  Te  Te106  1  0.11390860  0.92232012  0.59308192  1
  Te  Te107  1  0.06271266  0.92676293  0.93686883  1
  Te  Te108  1  0.39291204  0.25783238  0.26255941  1
  Te  Te109  1  0.40942959  0.22583491  0.57726829  1
  Te  Te110  1  0.40812891  0.24607317  0.90281579  1
  Te  Te111  1  0.42799652  0.57748425  0.27479952  1
  Te  Te112  1  0.43016146  0.59144250  0.56780042  1
  Te  Te113  1  0.43612547  0.56065042  0.94325884  1
  Te  Te114  1  0.38794116  0.93918912  0.25011373  1
  Te  Te115  1  0.41292760  0.92447649  0.58553498  1
  Te  Te116  1  0.40991204  0.92040085  0.93512343  1
  Te  Te117  1  0.74446495  0.24415297  0.23951936  1
  Te  Te118  1  0.76055615  0.20118108  0.62762371  1
  Te  Te119  1  0.73877709  0.25690660  0.94830561  1
  Te  Te120  1  0.73251982  0.58486936  0.26396120  1
  Te  Te121  1  0.73490364  0.58430197  0.58510476  1
  Te  Te122  1  0.76199712  0.59200598  0.91460108  1
  Te  Te123  1  0.76765406  0.93491377  0.23574128  1
  Te  Te124  1  0.76951684  0.93128616  0.58195299  1
  Te  Te125  1  0.75246385  0.94238502  0.92607226  1
  Te  Te126  1  0.24683585  0.22730741  0.08163634  1
  Te  Te127  1  0.29560703  0.22762933  0.37778162  1
  Te  Te128  1  0.23931956  0.24204518  0.74956487  1
  Te  Te129  1  0.24948601  0.58780922  0.09157275  1
  Te  Te130  1  0.24960518  0.59337212  0.42441952  1
  Te  Te131  1  0.23312690  0.59315689  0.75732530  1
  Te  Te132  1  0.27221406  0.88964825  0.11868616  1
  Te  Te133  1  0.24585296  0.96208957  0.41029167  1
  Te  Te134  1  0.24548431  0.93026089  0.73254481  1
  Te  Te135  1  0.57846229  0.25067644  0.11410828  1
  Te  Te136  1  0.56318725  0.22542333  0.40008241  1
  Te  Te137  1  0.58254324  0.25299635  0.76505663  1
  Te  Te138  1  0.58495380  0.58609714  0.08778843  1
  Te  Te139  1  0.53710251  0.58673855  0.39163984  1
  Te  Te140  1  0.59611652  0.60075310  0.75517086  1
  Te  Te141  1  0.58921617  0.93373657  0.06328922  1
  Te  Te142  1  0.58494234  0.91618717  0.41083251  1
  Te  Te143  1  0.59822264  0.92326531  0.74841885  1
  Te  Te144  1  0.91353193  0.21722080  0.08699492  1
  Te  Te145  1  0.92191888  0.25035095  0.41188729  1
  Te  Te146  1  0.91533042  0.22255168  0.76197075  1
  Te  Te147  1  0.92276582  0.59748581  0.06138779  1
  Te  Te148  1  0.90518302  0.57296981  0.41075413  1
  Te  Te149  1  0.90891913  0.59399111  0.75796349  1
  Te  Te150  1  0.92629459  0.94918052  0.08376325  1
  Te  Te151  1  0.92300215  0.94606805  0.41201255  1
  Te  Te152  1  0.90538641  0.93887047  0.77254335  1
  Te  Te153  1  0.19888824  0.06924798  0.23945219  1
  Te  Te154  1  0.27471880  0.08380211  0.53189239  1
  Te  Te155  1  0.23305279  0.05142129  0.95180191  1
  Te  Te156  1  0.27068568  0.39704537  0.24688971  1
  Te  Te157  1  0.23386728  0.42245464  0.57915528  1
  Te  Te158  1  0.25344114  0.40548572  0.91751134  1
  Te  Te159  1  0.25340331  0.79173657  0.24110841  1
  Te  Te160  1  0.25304128  0.76264423  0.57986486  1
  Te  Te161  1  0.23480368  0.75122085  0.91382428  1
  Te  Te162  1  0.56098829  0.09344208  0.25542121  1
  Te  Te163  1  0.58318920  0.06294749  0.57955475  1
  Te  Te164  1  0.58535134  0.08518654  0.91480146  1
  Te  Te165  1  0.57849236  0.41629331  0.24380697  1
  Te  Te166  1  0.58070693  0.41879001  0.58008624  1
  Te  Te167  1  0.62575223  0.40026226  0.96086459  1
  Te  Te168  1  0.57964880  0.74981798  0.25043898  1
  Te  Te169  1  0.58739312  0.73656513  0.58425415  1
  Te  Te170  1  0.56712020  0.77474211  0.93002685  1
  Te  Te171  1  0.94219230  0.06109821  0.25385493  1
  Te  Te172  1  0.92295831  0.07963332  0.57590199  1
  Te  Te173  1  0.87530265  0.07583810  0.95856960  1
  Te  Te174  1  0.89304845  0.39028948  0.19819411  1
  Te  Te175  1  0.91958559  0.39160199  0.58719278  1
  Te  Te176  1  0.90240892  0.42416954  0.94534893  1
  Te  Te177  1  0.91899120  0.75926506  0.23899349  1
  Te  Te178  1  0.93524403  0.76451177  0.56452689  1
  Te  Te179  1  0.89829477  0.74542583  0.90993524  1
