# generated using pymatgen
data_In2Te3
_symmetry_space_group_name_H-M   'P 1'
_cell_length_a   18.74613790
_cell_length_b   18.75160697
_cell_length_c   18.74995403
_cell_angle_alpha   89.98474296
_cell_angle_beta   90.05174868
_cell_angle_gamma   90.06827785
_symmetry_Int_Tables_number   1
_chemical_formula_structural   In2Te3
_chemical_formula_sum   'In72 Te108'
_cell_volume   6590.98018055
_cell_formula_units_Z   36
loop_
 _symmetry_equiv_pos_site_id
 _symmetry_equiv_pos_as_xyz
  1  'x, y, z'
loop_
 _atom_site_type_symbol
 _atom_site_label
 _atom_site_symmetry_multiplicity
 _atom_site_fract_x
 _atom_site_fract_y
 _atom_site_fract_z
 _atom_site_occupancy
  In  In0  1  0.30184777  0.68225918  -0.02344985  1
  In  In1  1  -0.01538970  0.83941653  0.51474562  1
  In  In2  1  0.80701821  0.66732762  0.49550012  1
  In  In3  1  0.00928116  0.33118293  0.68602484  1
  In  In4  1  0.27794254  0.48983960  0.83457856  1
  In  In5  1  0.19749172  0.46931530  0.32860212  1
  In  In6  1  0.33640337  0.49466236  0.51296933  1
  In  In7  1  0.48365479  0.86726164  -0.01434825  1
  In  In8  1  0.50257591  0.64409906  0.51213335  1
  In  In9  1  0.48628030  0.65826409  0.18729714  1
  In  In10  1  0.65924151  -0.00314861  -0.01385831  1
  In  In11  1  -0.00538173  0.84235729  0.15104519  1
  In  In12  1  0.48926391  0.84875403  0.69992836  1
  In  In13  1  0.68197852  0.49721679  0.17266820  1
  In  In14  1  0.66081368  0.15471751  0.52320187  1
  In  In15  1  0.31636416  0.02009358  0.31186176  1
  In  In16  1  0.51707198  0.82443938  0.32933146  1
  In  In17  1  0.02264038  0.51150264  0.52783474  1
  In  In18  1  0.33146979  0.84873208  0.13801583  1
  In  In19  1  0.65467300  0.15748855  0.82279205  1
  In  In20  1  0.01442090  0.66511266  0.69737329  1
  In  In21  1  0.03390644  0.45900228  0.13650628  1
  In  In22  1  0.83442389  0.33798172  0.83186288  1
  In  In23  1  0.64760420  0.01486484  0.31978970  1
  In  In24  1  0.02933273  0.48497542  0.84650116  1
  In  In25  1  0.85325040  0.67870113  0.83115083  1
  In  In26  1  0.65496427  0.47882389  0.84401222  1
  In  In27  1  -0.00574358  0.66173208  0.32592939  1
  In  In28  1  0.83807167  0.33281683  0.15353769  1
  In  In29  1  0.33327475  0.33527825  0.32101811  1
  In  In30  1  0.01146226  0.15517985  0.50427045  1
  In  In31  1  0.83149283  -0.01179109  0.51683506  1
  In  In32  1  0.63872979  0.51682798  0.50373816  1
  In  In33  1  0.83953420  0.49677267  0.00177025  1
  In  In34  1  0.49048552  0.48432876  0.65461540  1
  In  In35  1  0.66646841  0.67376935  0.66077883  1
  In  In36  1  0.01449194  0.66305746  -0.02131714  1
  In  In37  1  0.65464977  0.68636604  0.00107138  1
  In  In38  1  0.17313728  0.84374519  0.31298248  1
  In  In39  1  0.04081296  -0.00570064  -0.02035383  1
  In  In40  1  0.83343698  0.18203416  0.31927331  1
  In  In41  1  0.17822710  0.86882156  0.71090244  1
  In  In42  1  0.82305731  0.50059931  0.31338832  1
  In  In43  1  0.84174438  0.00371701  0.17277715  1
  In  In44  1  0.48780692  0.68170383  0.83660418  1
  In  In45  1  0.32529163  0.83353663  0.52281021  1
  In  In46  1  0.49198468  0.01421346  0.50603910  1
  In  In47  1  0.04505439  0.18209933  0.84706656  1
  In  In48  1  0.50810548  0.31507353  0.13144350  1
  In  In49  1  0.17559196  0.32352170  0.50744020  1
  In  In50  1  0.47350426  0.02419901  0.83418141  1
  In  In51  1  0.48974849  0.16250522  0.32639183  1
  In  In52  1  0.83125500  0.85263058  0.67557703  1
  In  In53  1  0.66569456  0.33728700  0.32315152  1
  In  In54  1  0.19542217  0.02895152  0.12961540  1
  In  In55  1  0.80541076  0.82626983  0.35397020  1
  In  In56  1  0.19529941  0.03572678  0.53584670  1
  In  In57  1  0.32789263  0.30552826  0.70399739  1
  In  In58  1  0.82580376  -0.00309956  0.82869748  1
  In  In59  1  0.48396506  0.47492298  -0.00465525  1
  In  In60  1  0.47302953  0.01608222  0.13303657  1
  In  In61  1  0.00899632  0.03825056  0.33039557  1
  In  In62  1  0.14228332  0.66671226  0.52762572  1
  In  In63  1  0.80998499  0.65754287  0.14310447  1
  In  In64  1  0.83005792  0.30970674  0.51759685  1
  In  In65  1  0.46615664  0.28328705  0.84291251  1
  In  In66  1  0.15988938  0.64516859  0.14015934  1
  In  In67  1  0.00819159  0.01899640  0.69169531  1
  In  In68  1  0.84598773  0.17142362  0.00053575  1
  In  In69  1  0.47748373  0.33470516  0.51284427  1
  In  In70  1  0.04675948  0.30513835  0.29784083  1
  In  In71  1  0.34733805  0.64489771  0.32486254  1
  Te  Te72  1  0.07743880  0.10337932  0.07584204  1
  Te  Te73  1  0.12088085  0.10152158  0.41169358  1
  Te  Te74  1  0.12046563  0.08015170  0.76732513  1
  Te  Te75  1  0.12911135  0.40733559  0.03616495  1
  Te  Te76  1  0.08198757  0.41485542  0.42287295  1
  Te  Te77  1  0.11763933  0.39006178  0.77028325  1
  Te  Te78  1  0.09792567  0.76482818  0.07087257  1
  Te  Te79  1  0.08492691  0.76294660  0.41023170  1
  Te  Te80  1  0.09719416  0.75716026  0.78201331  1
  Te  Te81  1  0.37995299  0.09218725  0.04519818  1
  Te  Te82  1  0.39215900  0.09577159  0.42285608  1
  Te  Te83  1  0.37100437  0.10293647  0.75313177  1
  Te  Te84  1  0.39280577  0.39524638  0.08081854  1
  Te  Te85  1  0.42422677  0.42899267  0.40661815  1
  Te  Te86  1  0.41557424  0.41740855  0.76926484  1
  Te  Te87  1  0.41925792  0.74499590  0.06699249  1
  Te  Te88  1  0.40791003  0.75547951  0.41798842  1
  Te  Te89  1  0.38739791  0.76072089  0.76285765  1
  Te  Te90  1  0.74908535  0.08264446  0.07970394  1
  Te  Te91  1  0.75745309  0.08598627  0.41084089  1
  Te  Te92  1  0.74252598  0.07433974  0.73469916  1
  Te  Te93  1  0.73573870  0.40415876  0.06401589  1
  Te  Te94  1  0.75367665  0.41559356  0.42175204  1
  Te  Te95  1  0.74361684  0.41654988  0.74463944  1
  Te  Te96  1  0.75901817  0.77098252  0.06524439  1
  Te  Te97  1  0.70415324  0.74853495  0.42860938  1
  Te  Te98  1  0.74325600  0.76014584  0.76106745  1
  Te  Te99  1  0.12427024  0.22360781  0.20484823  1
  Te  Te100  1  0.09656088  0.23372681  0.60339686  1
  Te  Te101  1  0.10526216  0.28926128  0.93368855  1
  Te  Te102  1  0.09371574  0.56832818  0.25759885  1
  Te  Te103  1  0.11959391  0.55767514  0.64112858  1
  Te  Te104  1  0.12010177  0.57817632  0.91997149  1
  Te  Te105  1  0.08710957  0.94004386  0.23129606  1
  Te  Te106  1  0.09007391  0.92772493  0.58243712  1
  Te  Te107  1  0.13844496  0.90917440  0.90758574  1
  Te  Te108  1  0.40880689  0.23938929  0.22459750  1
  Te  Te109  1  0.40626052  0.23347821  0.59386019  1
  Te  Te110  1  0.40009029  0.22874028  0.96787958  1
  Te  Te111  1  0.39110055  0.54987801  0.22074792  1
  Te  Te112  1  0.39548452  0.59752941  0.61031602  1
  Te  Te113  1  0.40399763  0.57607019  0.90962543  1
  Te  Te114  1  0.41700446  0.92099734  0.25297615  1
  Te  Te115  1  0.40211126  0.93536706  0.60328878  1
  Te  Te116  1  0.37917962  0.91388936  0.88751499  1
  Te  Te117  1  0.72886983  0.24022962  0.22113070  1
  Te  Te118  1  0.74869925  0.23413315  0.61332165  1
  Te  Te119  1  0.74436174  0.24623112  0.91443130  1
  Te  Te120  1  0.73161049  0.61130181  0.26636042  1
  Te  Te121  1  0.75305203  0.56556404  0.59593380  1
  Te  Te122  1  0.74992517  0.58694507  0.91653635  1
  Te  Te123  1  0.73968304  0.91617715  0.24715561  1
  Te  Te124  1  0.72956773  0.90698776  0.58403582  1
  Te  Te125  1  0.75219034  0.90431958  0.91768050  1
  Te  Te126  1  0.25545076  0.21541096  0.03391063  1
  Te  Te127  1  0.26332411  0.24616588  0.41742744  1
  Te  Te128  1  0.25775276  0.20481937  0.79384053  1
  Te  Te129  1  0.27031000  0.57361998  0.07497481  1
  Te  Te130  1  0.23955784  0.58824085  0.42985938  1
  Te  Te131  1  0.23767904  0.59147633  0.73846990  1
  Te  Te132  1  0.24999153  0.92254930  0.03741395  1
  Te  Te133  1  0.24798070  0.92328798  0.42113223  1
  Te  Te134  1  0.28762389  0.95470587  0.76421875  1
  Te  Te135  1  0.62238870  0.22936598  0.09909202  1
  Te  Te136  1  0.58253912  0.24635878  0.41701261  1
  Te  Te137  1  0.56388231  0.24177292  0.73905920  1
  Te  Te138  1  0.58239383  0.57285432  0.07441315  1
  Te  Te139  1  0.56311692  0.57984343  0.39337957  1
  Te  Te140  1  0.57661170  0.58276868  0.74879260  1
  Te  Te141  1  0.58150624  0.91462454  0.09361025  1
  Te  Te142  1  0.58614248  0.92322501  0.42540874  1
  Te  Te143  1  0.58055865  0.94300608  0.76837630  1
  Te  Te144  1  0.93994926  0.26126717  0.07419954  1
  Te  Te145  1  0.93179129  0.25509876  0.41292794  1
  Te  Te146  1  0.92267515  0.23267042  0.76345645  1
  Te  Te147  1  0.93303825  0.57964034  0.09678664  1
  Te  Te148  1  0.91790201  0.57702827  0.42881496  1
  Te  Te149  1  0.92116901  0.56225319  0.76063872  1
  Te  Te150  1  0.91734000  0.93424533  0.05905444  1
  Te  Te151  1  0.92168173  0.92851135  0.39693393  1
  Te  Te152  1  0.94158775  0.90407539  0.76489906  1
  Te  Te153  1  0.24932343  0.12853190  0.23220984  1
  Te  Te154  1  0.28427051  0.12170947  0.61714906  1
  Te  Te155  1  0.25686226  0.10978552  0.93333524  1
  Te  Te156  1  0.23387534  0.38024371  0.21644246  1
  Te  Te157  1  0.25740006  0.40524037  0.60625464  1
  Te  Te158  1  0.24453253  0.37926965  0.92699379  1
  Te  Te159  1  0.25974910  0.74461220  0.23642205  1
  Te  Te160  1  0.23224104  0.75610725  0.61432852  1
  Te  Te161  1  0.21170947  0.76856809  0.89534151  1
  Te  Te162  1  0.57557772  0.09975706  0.21478206  1
  Te  Te163  1  0.56738056  0.08395532  0.61348987  1
  Te  Te164  1  0.56286294  0.10081333  0.93368652  1
  Te  Te165  1  0.57012893  0.41715259  0.23870291  1
  Te  Te166  1  0.59619136  0.39550365  0.58800158  1
  Te  Te167  1  0.57122956  0.37641589  0.91719227  1
  Te  Te168  1  0.59052017  0.75683947  0.22134048  1
  Te  Te169  1  0.56263324  0.75959387  0.58996089  1
  Te  Te170  1  0.58222344  0.78035971  0.90456535  1
  Te  Te171  1  0.93290357  0.11659932  0.22339242  1
  Te  Te172  1  0.90931845  0.09092349  0.59846135  1
  Te  Te173  1  0.93034014  0.08379452  0.90374775  1
  Te  Te174  1  0.93124271  0.41156386  0.25379846  1
  Te  Te175  1  0.92196238  0.41241058  0.59024960  1
  Te  Te176  1  0.93241379  0.39996423  0.93257892  1
  Te  Te177  1  0.90669653  0.75849953  0.24680126  1
  Te  Te178  1  0.91243086  0.72996047  0.59426261  1
  Te  Te179  1  0.92405553  0.76662909  0.92605397  1
