# generated using pymatgen
data_In2Te3
_symmetry_space_group_name_H-M   'P 1'
_cell_length_a   18.78630188
_cell_length_b   18.78458915
_cell_length_c   18.77859085
_cell_angle_alpha   89.95507198
_cell_angle_beta   90.01999644
_cell_angle_gamma   89.95113331
_symmetry_Int_Tables_number   1
_chemical_formula_structural   In2Te3
_chemical_formula_sum   'In72 Te108'
_cell_volume   6626.82770513
_cell_formula_units_Z   36
loop_
 _symmetry_equiv_pos_site_id
 _symmetry_equiv_pos_as_xyz
  1  'x, y, z'
loop_
 _atom_site_type_symbol
 _atom_site_label
 _atom_site_symmetry_multiplicity
 _atom_site_fract_x
 _atom_site_fract_y
 _atom_site_fract_z
 _atom_site_occupancy
  In  In0  1  0.64975444  0.81591756  0.16620176  1
  In  In1  1  0.67091348  0.66648170  -0.01679862  1
  In  In2  1  0.84334851  0.33124916  0.51490707  1
  In  In3  1  0.66851258  0.15657856  0.18410107  1
  In  In4  1  0.52793160  0.52131165  0.68058879  1
  In  In5  1  0.64793832  -0.00499655  0.33892332  1
  In  In6  1  0.35259639  0.34198663  0.00919517  1
  In  In7  1  0.51571044  -0.00546285  0.50578772  1
  In  In8  1  0.16586874  0.31678055  0.49902958  1
  In  In9  1  0.13647622  0.33944727  0.81646682  1
  In  In10  1  0.15760527  0.69227684  0.83033121  1
  In  In11  1  0.83918373  0.51199842  0.33180044  1
  In  In12  1  0.00585671  -0.00894558  0.00344644  1
  In  In13  1  0.16124346  0.48435040  0.31251967  1
  In  In14  1  0.68662017  0.34707086  0.67820931  1
  In  In15  1  0.67206371  0.83682108  0.80801596  1
  In  In16  1  0.49967110  0.82970204  0.32067738  1
  In  In17  1  -0.04217868  0.82864914  0.51703292  1
  In  In18  1  0.51315482  0.15033074  -0.01698127  1
  In  In19  1  0.52519695  0.68431809  0.51240038  1
  In  In20  1  0.66889463  0.31730993  0.32837099  1
  In  In21  1  0.00705761  0.36637617  0.64756762  1
  In  In22  1  0.00151475  0.00603402  0.66431769  1
  In  In23  1  0.00410593  0.35647543  0.33317877  1
  In  In24  1  0.66633442  0.35244305  -0.02486176  1
  In  In25  1  0.15763450  0.65782210  0.17444184  1
  In  In26  1  0.34075915  0.67483317  0.70073531  1
  In  In27  1  0.16298995  0.84082041  0.34500019  1
  In  In28  1  0.66732060  0.15543621  0.82094865  1
  In  In29  1  0.16074749  0.84049460  0.68855533  1
  In  In30  1  0.14527423  0.47634989  0.67126999  1
  In  In31  1  0.17179008  0.35720445  0.17682034  1
  In  In32  1  0.34945508  0.14004014  0.51769851  1
  In  In33  1  0.34200129  0.15433510  0.13877152  1
  In  In34  1  0.82823924  0.14869581  0.68474045  1
  In  In35  1  0.16803959  0.83309584  -0.00744564  1
  In  In36  1  -0.01479303  0.68718885  0.00392899  1
  In  In37  1  0.83426880  0.67196641  0.16811358  1
  In  In38  1  0.81884324  0.14299536  0.32400706  1
  In  In39  1  0.71786011  0.81765534  0.53729635  1
  In  In40  1  0.19324919  0.13070134  -0.02563081  1
  In  In41  1  0.33360390  0.84931005  0.85338389  1
  In  In42  1  0.83253697  0.35136868  0.84776838  1
  In  In43  1  0.66981980  0.51234747  0.13653734  1
  In  In44  1  0.68152794  0.53403612  0.51652238  1
  In  In45  1  0.34160473  0.31328022  0.66888372  1
  In  In46  1  0.65745658  -0.01153655  0.00503409  1
  In  In47  1  0.84448166  -0.00257579  0.15952495  1
  In  In48  1  0.00236971  0.52258925  0.14844952  1
  In  In49  1  0.16116016  0.66290176  0.50150114  1
  In  In50  1  0.36845004  0.65271416  0.29256390  1
  In  In51  1  -0.00455941  0.17193268  0.83103485  1
  In  In52  1  -0.02326023  0.82356049  0.83856767  1
  In  In53  1  0.33167657  0.35817417  0.34704490  1
  In  In54  1  0.00423291  0.14605492  0.49811219  1
  In  In55  1  0.47234316  0.13619771  0.68269054  1
  In  In56  1  0.19595779  0.14049144  0.67110428  1
  In  In57  1  0.36466113  0.81649090  0.14327114  1
  In  In58  1  0.15201698  0.14178591  0.33511396  1
  In  In59  1  -0.04653805  0.52446123  0.51525982  1
  In  In60  1  0.84070480  0.00500120  0.82602672  1
  In  In61  1  0.34625226  0.85098898  0.50394115  1
  In  In62  1  0.35751719  0.50039059  0.47513281  1
  In  In63  1  0.35463990  0.51579792  0.85118797  1
  In  In64  1  0.51646005  0.67247102  0.84030927  1
  In  In65  1  0.16970046  0.51432329  -0.00221515  1
  In  In66  1  -0.03080011  0.18809442  0.13818341  1
  In  In67  1  0.51860533  0.34395017  0.86197264  1
  In  In68  1  0.50517353  0.16948331  0.32791186  1
  In  In69  1  0.83106033  0.81487370  0.34399472  1
  In  In70  1  0.50773493  0.34749969  0.16062940  1
  In  In71  1  0.16320240  -0.01743840  0.17806671  1
  Te  Te72  1  0.08806157  0.09339996  0.08723418  1
  Te  Te73  1  0.07873139  0.04655853  0.41933767  1
  Te  Te74  1  0.09350999  0.07381282  0.76504827  1
  Te  Te75  1  0.07775600  0.41498678  0.07046017  1
  Te  Te76  1  0.07942209  0.43329915  0.44194916  1
  Te  Te77  1  0.03566011  0.44728059  0.77638107  1
  Te  Te78  1  0.07918910  0.76408896  0.09551861  1
  Te  Te79  1  0.06647160  0.75482378  0.42827165  1
  Te  Te80  1  0.05306969  0.74072183  0.73186758  1
  Te  Te81  1  0.42913613  0.05692934  0.06694609  1
  Te  Te82  1  0.42248560  0.06645425  0.40620166  1
  Te  Te83  1  0.37429944  0.06164484  0.76193156  1
  Te  Te84  1  0.43991397  0.44556620  0.06959175  1
  Te  Te85  1  0.45338772  0.40711182  0.41376173  1
  Te  Te86  1  0.42048717  0.42156693  0.74868626  1
  Te  Te87  1  0.44071434  0.71369431  0.07070238  1
  Te  Te88  1  0.40489294  0.73564964  0.42139474  1
  Te  Te89  1  0.43444957  0.77620271  0.75940794  1
  Te  Te90  1  0.75160973  0.08727358  0.07632948  1
  Te  Te91  1  0.72768790  0.08679019  0.42449882  1
  Te  Te92  1  0.72359209  0.04465446  0.72859044  1
  Te  Te93  1  0.75993044  0.41043525  0.07570416  1
  Te  Te94  1  0.75517857  0.41607266  0.42177782  1
  Te  Te95  1  0.73578493  0.44639311  0.77977721  1
  Te  Te96  1  0.75511760  0.76007849  0.07172377  1
  Te  Te97  1  0.73243024  0.73181826  0.41691715  1
  Te  Te98  1  0.77905368  0.74782746  0.74826049  1
  Te  Te99  1  0.08318528  0.25296512  0.25001085  1
  Te  Te100  1  0.08037958  0.23517056  0.60274730  1
  Te  Te101  1  0.09240913  0.24172878  0.92515303  1
  Te  Te102  1  0.05909831  0.59254572  0.27178273  1
  Te  Te103  1  0.06795842  0.58772709  0.59644101  1
  Te  Te104  1  0.07174282  0.59709482  0.91414279  1
  Te  Te105  1  0.06409296  0.90509611  0.25364652  1
  Te  Te106  1  0.08039313  0.90817608  0.57855792  1
  Te  Te107  1  0.08670623  0.91744838  0.89559363  1
  Te  Te108  1  0.40931104  0.25679915  0.23922559  1
  Te  Te109  1  0.43738862  0.25080624  0.57142833  1
  Te  Te110  1  0.41389092  0.24257782  0.91021441  1
  Te  Te111  1  0.41885563  0.53326143  0.22417056  1
  Te  Te112  1  0.41547056  0.59097582  0.59464520  1
  Te  Te113  1  0.42044621  0.61464918  0.94241987  1
  Te  Te114  1  0.40032950  0.91176385  0.25049334  1
  Te  Te115  1  0.43020232  0.92089401  0.60485623  1
  Te  Te116  1  0.41108655  0.94469123  0.93760928  1
  Te  Te117  1  0.77322588  0.25792051  0.23452697  1
  Te  Te118  1  0.74767005  0.23899759  0.58822759  1
  Te  Te119  1  0.75246042  0.23660393  0.91352348  1
  Te  Te120  1  0.73634611  0.59164383  0.25236438  1
  Te  Te121  1  0.76086722  0.61368409  0.61434360  1
  Te  Te122  1  0.72040376  0.55256275  0.89852029  1
  Te  Te123  1  0.74166251  0.91870300  0.24448285  1
  Te  Te124  1  0.78009333  0.93157677  0.60552260  1
  Te  Te125  1  0.75734214  0.91365214  0.91483414  1
  Te  Te126  1  0.24322736  0.25628044  0.07898761  1
  Te  Te127  1  0.25881359  0.23594101  0.40974113  1
  Te  Te128  1  0.24993675  0.24492533  0.76858700  1
  Te  Te129  1  0.25620732  0.59738439  0.08265721  1
  Te  Te130  1  0.24772747  0.58080910  0.40315509  1
  Te  Te131  1  0.23790215  0.57318155  0.75502462  1
  Te  Te132  1  0.25900400  0.91587268  0.08032824  1
  Te  Te133  1  0.25498487  0.93155521  0.41945394  1
  Te  Te134  1  0.26636696  0.92964165  0.74391679  1
  Te  Te135  1  0.59065415  0.24732476  0.07843993  1
  Te  Te136  1  0.60275062  0.22625797  0.42359233  1
  Te  Te137  1  0.57738696  0.25766912  0.74932814  1
  Te  Te138  1  0.57446665  0.62623293  0.09455018  1
  Te  Te139  1  0.57743839  0.58089759  0.42237503  1
  Te  Te140  1  0.62184225  0.60634205  0.75718922  1
  Te  Te141  1  0.56420244  0.90695351  0.08605863  1
  Te  Te142  1  0.59529558  0.88318326  0.43030483  1
  Te  Te143  1  0.57345377  0.89091999  0.70651993  1
  Te  Te144  1  0.89767746  0.28470481  0.05170512  1
  Te  Te145  1  0.92538727  0.24960283  0.41290707  1
  Te  Te146  1  0.91454961  0.26356526  0.73781534  1
  Te  Te147  1  0.89164779  0.57824487  0.06064466  1
  Te  Te148  1  0.89196575  0.61973928  0.41995429  1
  Te  Te149  1  0.87640634  0.63050266  0.72228467  1
  Te  Te150  1  0.91350066  0.89992934  0.07252240  1
  Te  Te151  1  0.89360348  0.92276541  0.42300106  1
  Te  Te152  1  0.90237210  0.90455134  0.72602482  1
  Te  Te153  1  0.25999902  0.07956981  0.24635981  1
  Te  Te154  1  0.24073870  0.05078015  0.56279267  1
  Te  Te155  1  0.30085656  0.05259558  0.90447207  1
  Te  Te156  1  0.28792565  0.44799562  0.22437485  1
  Te  Te157  1  0.25902113  0.41479442  0.57913392  1
  Te  Te158  1  0.25044048  0.41360264  0.90622240  1
  Te  Te159  1  0.25570777  0.74988086  0.25293194  1
  Te  Te160  1  0.25205846  0.74659458  0.59460824  1
  Te  Te161  1  0.26513488  0.73425215  0.92870238  1
  Te  Te162  1  0.56033954  0.06198407  0.23259370  1
  Te  Te163  1  0.58297096  0.08978345  0.59785042  1
  Te  Te164  1  0.57682222  0.05125722  0.88500699  1
  Te  Te165  1  0.60015172  0.42810819  0.25040518  1
  Te  Te166  1  0.59408930  0.42352524  0.58338753  1
  Te  Te167  1  0.57944722  0.46512454  0.92424969  1
  Te  Te168  1  0.56688670  0.71977913  0.24649613  1
  Te  Te169  1  0.59530911  0.76703387  0.61730068  1
  Te  Te170  1  0.58782287  0.78149623  0.92275645  1
  Te  Te171  1  0.93558691  0.08341952  0.24848737  1
  Te  Te172  1  0.89368476  0.06823453  0.57076427  1
  Te  Te173  1  0.91309065  0.09026873  0.93023150  1
  Te  Te174  1  0.91549314  0.42395395  0.23226370  1
  Te  Te175  1  0.87669410  0.44084465  0.61668406  1
  Te  Te176  1  0.92424408  0.39870391  0.95262670  1
  Te  Te177  1  0.92512777  0.76218895  0.24210886  1
  Te  Te178  1  0.87954992  0.72059783  0.58971042  1
  Te  Te179  1  0.88147745  0.73063987  0.90479556  1
