# generated using pymatgen
data_In2Te3
_symmetry_space_group_name_H-M   'P 1'
_cell_length_a   18.90552340
_cell_length_b   18.95060133
_cell_length_c   18.94544921
_cell_angle_alpha   89.91623164
_cell_angle_beta   89.83360395
_cell_angle_gamma   89.72469872
_symmetry_Int_Tables_number   1
_chemical_formula_structural   In2Te3
_chemical_formula_sum   'In72 Te108'
_cell_volume   6787.49163509
_cell_formula_units_Z   36
loop_
 _symmetry_equiv_pos_site_id
 _symmetry_equiv_pos_as_xyz
  1  'x, y, z'
loop_
 _atom_site_type_symbol
 _atom_site_label
 _atom_site_symmetry_multiplicity
 _atom_site_fract_x
 _atom_site_fract_y
 _atom_site_fract_z
 _atom_site_occupancy
  In  In0  1  0.50370786  0.67405886  0.16926718  1
  In  In1  1  0.17915855  0.32142557  0.19447260  1
  In  In2  1  0.14392459  0.53078387  0.65213738  1
  In  In3  1  0.66719480  0.64809635  0.65112310  1
  In  In4  1  0.01500147  0.49114296  0.18126217  1
  In  In5  1  0.83755192  0.15435249  0.32499888  1
  In  In6  1  -0.00685333  -0.02770765  0.67633994  1
  In  In7  1  0.12540695  0.67838415  0.17527867  1
  In  In8  1  0.33451228  0.33488830  0.02605051  1
  In  In9  1  0.67771959  0.69166168  0.01258633  1
  In  In10  1  0.51184776  0.83561593  0.01352663  1
  In  In11  1  0.30439738  0.80172997  0.53033600  1
  In  In12  1  0.00916454  0.67943824  -0.01118170  1
  In  In13  1  0.64234203  0.81207703  0.82090131  1
  In  In14  1  0.65751254  -0.03713081  0.66235141  1
  In  In15  1  0.67239329  0.13693304  0.13349677  1
  In  In16  1  -0.01207073  0.14395932  0.80195049  1
  In  In17  1  0.66530336  0.30264467  -0.01858843  1
  In  In18  1  0.17363946  -0.00867943  0.54714279  1
  In  In19  1  0.82522827  -0.02566898  0.83290286  1
  In  In20  1  0.01016071  0.17827442  0.47718382  1
  In  In21  1  0.16011192  0.33993891  0.83089944  1
  In  In22  1  0.18997620  0.51661504  -0.01889648  1
  In  In23  1  0.34676385  0.15743462  0.15859672  1
  In  In24  1  0.36395156  0.00347572  0.65359817  1
  In  In25  1  0.51079649  0.34049230  0.83984810  1
  In  In26  1  0.66550841  0.17962550  0.51796529  1
  In  In27  1  0.52890705  0.81794197  0.34011583  1
  In  In28  1  -0.06077734  0.78375794  0.47155517  1
  In  In29  1  0.16049148  0.01262482  0.14742023  1
  In  In30  1  -0.00550289  0.34030743  0.03144668  1
  In  In31  1  0.49874327  0.17686599  0.68202505  1
  In  In32  1  0.74490037  0.63578719  0.39319272  1
  In  In33  1  0.39093711  0.57196860  0.80186220  1
  In  In34  1  0.51418709  0.16326469  0.30199733  1
  In  In35  1  0.69165227  0.40371943  0.66072808  1
  In  In36  1  0.52184050  0.66562854  0.49694925  1
  In  In37  1  0.12934235  0.83306163  0.35263383  1
  In  In38  1  0.17287078  0.17828613  0.31376449  1
  In  In39  1  0.52612053  0.34964404  0.52209775  1
  In  In40  1  0.66152149  0.14597860  0.83012258  1
  In  In41  1  0.32446438  0.79291914  0.81668561  1
  In  In42  1  0.33979109  0.35101478  0.35193172  1
  In  In43  1  -0.04397309  0.38973978  0.39223506  1
  In  In44  1  0.32609386  0.15589713  0.82383394  1
  In  In45  1  0.83056738  -0.02064808  0.51214683  1
  In  In46  1  0.33461895  0.67327620  -0.03768499  1
  In  In47  1  0.34312519  0.52956123  0.51171938  1
  In  In48  1  0.82514522  0.50598970  0.01653112  1
  In  In49  1  0.84908298  0.68392838  0.85411612  1
  In  In50  1  0.14527520  -0.05234909  0.81662613  1
  In  In51  1  0.33990433  -0.01123927  -0.01459856  1
  In  In52  1  0.34907984  0.33834683  0.68996660  1
  In  In53  1  0.83941306  0.17555141  0.65123530  1
  In  In54  1  0.51805939  0.14783049  -0.01608602  1
  In  In55  1  0.01852186  0.14996047  0.16318728  1
  In  In56  1  0.33649784  0.49894997  0.16523906  1
  In  In57  1  -0.02312584  0.35848859  0.62528196  1
  In  In58  1  0.16036276  0.35880484  0.50053234  1
  In  In59  1  0.72150662  0.84712247  0.16915895  1
  In  In60  1  0.82695663  0.32449444  0.16419458  1
  In  In61  1  0.36155794  -0.02509155  0.35177501  1
  In  In62  1  -0.08377289  0.81703653  0.15959131  1
  In  In63  1  0.32587101  0.85571673  0.17519095  1
  In  In64  1  0.49455147  -0.01868610  0.48322623  1
  In  In65  1  -0.06698061  0.48693826  0.80129741  1
  In  In66  1  0.12075875  0.13904640  0.00170579  1
  In  In67  1  0.32135367  0.65757316  0.34068227  1
  In  In68  1  0.13102002  0.67282606  0.80841598  1
  In  In69  1  0.69766065  0.36216108  0.35232059  1
  In  In70  1  -0.01457552  0.03453318  0.31535459  1
  In  In71  1  0.68144923  0.52315150  0.20896739  1
  Te  Te72  1  0.03319085  0.03312721  0.06467270  1
  Te  Te73  1  0.10443042  0.07959463  0.40966515  1
  Te  Te74  1  0.09971105  0.07032832  0.73518959  1
  Te  Te75  1  0.11742958  0.41423864  0.08234446  1
  Te  Te76  1  0.07950056  0.45734515  0.42871558  1
  Te  Te77  1  0.06881215  0.42095747  0.73837052  1
  Te  Te78  1  0.05357216  0.78149775  0.09297987  1
  Te  Te79  1  0.07195138  0.72611319  0.43337067  1
  Te  Te80  1  0.11194799  0.78490783  0.71168296  1
  Te  Te81  1  0.43303867  0.06166777  0.07982139  1
  Te  Te82  1  0.42425253  0.09929568  0.40808673  1
  Te  Te83  1  0.43892634  0.06991760  0.77097488  1
  Te  Te84  1  0.43481372  0.42043472  0.08721115  1
  Te  Te85  1  0.43325198  0.43684817  0.43168406  1
  Te  Te86  1  0.44710845  0.43756400  0.74217299  1
  Te  Te87  1  0.39523935  0.74840523  0.08842031  1
  Te  Te88  1  0.40822989  0.75691774  0.41493725  1
  Te  Te89  1  0.43219532  0.70815278  0.74672447  1
  Te  Te90  1  0.77936169  0.04664526  0.08441538  1
  Te  Te91  1  0.75267844  0.08646836  0.43547696  1
  Te  Te92  1  0.74905235  0.07581490  0.71927341  1
  Te  Te93  1  0.73015762  0.41255749  0.08951052  1
  Te  Te94  1  0.76535623  0.45271930  0.44847900  1
  Te  Te95  1  0.79115254  0.46297159  0.74713173  1
  Te  Te96  1  0.80354552  0.74867764  0.07355924  1
  Te  Te97  1  0.80331072  0.78077153  0.38719671  1
  Te  Te98  1  0.75076031  0.73409744  0.74987454  1
  Te  Te99  1  0.05524377  0.26046187  0.26030759  1
  Te  Te100  1  0.08439705  0.25595630  0.58308482  1
  Te  Te101  1  0.06730091  0.25634091  0.91859744  1
  Te  Te102  1  0.05875049  0.59501571  0.27555427  1
  Te  Te103  1  0.02836886  0.61337792  0.60823759  1
  Te  Te104  1  0.06871035  0.56444500  0.90605961  1
  Te  Te105  1  0.07805739  0.93020392  0.24870854  1
  Te  Te106  1  0.07847675  0.88664714  0.58465919  1
  Te  Te107  1  0.03264777  0.91923723  0.90084718  1
  Te  Te108  1  0.40896526  0.26332744  0.24576194  1
  Te  Te109  1  0.41941909  0.25780469  0.58116231  1
  Te  Te110  1  0.41196451  0.24221802  0.91694015  1
  Te  Te111  1  0.42417290  0.58057243  0.25956655  1
  Te  Te112  1  0.41865063  0.62363636  0.59664012  1
  Te  Te113  1  0.42382450  0.55935389  0.94528656  1
  Te  Te114  1  0.44644752  0.91259248  0.24414634  1
  Te  Te115  1  0.42250729  0.88473091  0.57836540  1
  Te  Te116  1  0.41419818  0.88538785  0.90597952  1
  Te  Te117  1  0.73459454  0.24176443  0.25161469  1
  Te  Te118  1  0.75304312  0.28176082  0.58561515  1
  Te  Te119  1  0.76201562  0.21575271  0.91280863  1
  Te  Te120  1  0.79237985  0.61486670  0.24686195  1
  Te  Te121  1  0.77846923  0.59458550  0.55978980  1
  Te  Te122  1  0.74680742  0.59154416  0.91890510  1
  Te  Te123  1  0.78623119  0.90477113  0.29243393  1
  Te  Te124  1  0.73866036  0.87778086  0.57023095  1
  Te  Te125  1  0.71054411  0.91374416  0.90647530  1
  Te  Te126  1  0.23171832  0.22552022  0.08024117  1
  Te  Te127  1  0.24534521  0.25633689  0.42239432  1
  Te  Te128  1  0.23792553  0.24515618  0.73970700  1
  Te  Te129  1  0.23520941  0.59643345  0.10189260  1
  Te  Te130  1  0.23297410  0.59734649  0.44111455  1
  Te  Te131  1  0.23944911  0.57763015  0.75855782  1
  Te  Te132  1  0.23665189  0.90931144  0.06446853  1
  Te  Te133  1  0.24726798  0.90994872  0.42883236  1
  Te  Te134  1  0.27195638  0.91577297  0.74308050  1
  Te  Te135  1  0.57217743  0.24446514  0.08600395  1
  Te  Te136  1  0.58678537  0.25670003  0.41251004  1
  Te  Te137  1  0.60433622  0.26454847  0.74395717  1
  Te  Te138  1  0.60178122  0.58631447  0.09324369  1
  Te  Te139  1  0.59996500  0.60557829  0.38773802  1
  Te  Te140  1  0.56149178  0.62051292  0.75336228  1
  Te  Te141  1  0.61061659  0.90862991  0.09118484  1
  Te  Te142  1  0.60543765  0.92075171  0.40950363  1
  Te  Te143  1  0.55270939  0.88850363  0.73126362  1
  Te  Te144  1  0.90967685  0.22588425  0.08442892  1
  Te  Te145  1  0.89218396  0.25898155  0.42630675  1
  Te  Te146  1  0.92190628  0.26555496  0.73923514  1
  Te  Te147  1  0.93965626  0.57875560  0.08196765  1
  Te  Te148  1  0.87772938  0.56350552  0.43808012  1
  Te  Te149  1  0.93608683  0.62566073  0.74036435  1
  Te  Te150  1  0.84995405  0.90895506  0.05969417  1
  Te  Te151  1  0.94159043  0.93199021  0.42173277  1
  Te  Te152  1  0.88332022  0.89087271  0.72676293  1
  Te  Te153  1  0.26443147  0.06675229  0.25019537  1
  Te  Te154  1  0.27463977  0.09040417  0.57683896  1
  Te  Te155  1  0.23509283  0.07680673  0.91603981  1
  Te  Te156  1  0.24215116  0.43503356  0.27077020  1
  Te  Te157  1  0.25834037  0.42578123  0.60047586  1
  Te  Te158  1  0.27033347  0.40925498  0.90824893  1
  Te  Te159  1  0.23705429  0.76304886  0.25696145  1
  Te  Te160  1  0.22465471  0.72503627  0.62822814  1
  Te  Te161  1  0.21439521  0.74884813  0.91511030  1
  Te  Te162  1  0.60543554  0.06603474  0.24349459  1
  Te  Te163  1  0.57093089  0.08055842  0.58483861  1
  Te  Te164  1  0.59952412  0.04307766  0.91757508  1
  Te  Te165  1  0.59423295  0.42212753  0.26845234  1
  Te  Te166  1  0.58629863  0.46815688  0.58262180  1
  Te  Te167  1  0.61299939  0.41839371  0.90814979  1
  Te  Te168  1  0.61464837  0.75230486  0.23442531  1
  Te  Te169  1  0.61700579  0.75775767  0.56219429  1
  Te  Te170  1  0.56177263  0.72667242  0.92159996  1
  Te  Te171  1  0.85410086  0.03338802  0.23192276  1
  Te  Te172  1  0.93724044  0.08496068  0.57563907  1
  Te  Te173  1  0.89282907  0.08895811  0.89817513  1
  Te  Te174  1  0.90012418  0.42286903  0.25517944  1
  Te  Te175  1  0.89326122  0.46825364  0.56611699  1
  Te  Te176  1  0.90198957  0.40565356  0.93100990  1
  Te  Te177  1  0.90229169  0.72354431  0.27468192  1
  Te  Te178  1  0.91902531  0.72511331  0.60622283  1
  Te  Te179  1  0.95161956  0.78679261  0.89771169  1
