# generated using pymatgen
data_In2Te3
_symmetry_space_group_name_H-M   'P 1'
_cell_length_a   18.89564395
_cell_length_b   18.92181288
_cell_length_c   18.91952649
_cell_angle_alpha   89.85089071
_cell_angle_beta   90.01573801
_cell_angle_gamma   90.08381256
_symmetry_Int_Tables_number   1
_chemical_formula_structural   In2Te3
_chemical_formula_sum   'In72 Te108'
_cell_volume   6764.45406123
_cell_formula_units_Z   36
loop_
 _symmetry_equiv_pos_site_id
 _symmetry_equiv_pos_as_xyz
  1  'x, y, z'
loop_
 _atom_site_type_symbol
 _atom_site_label
 _atom_site_symmetry_multiplicity
 _atom_site_fract_x
 _atom_site_fract_y
 _atom_site_fract_z
 _atom_site_occupancy
  In  In0  1  0.00607729  0.67918958  0.31894873  1
  In  In1  1  0.66760412  0.18027379  0.15470580  1
  In  In2  1  0.45925280  0.52480212  0.36563163  1
  In  In3  1  0.68258523  -0.01140775  0.67547086  1
  In  In4  1  0.84397625  0.31505449  0.17031053  1
  In  In5  1  0.35356414  -0.00117979  0.63686496  1
  In  In6  1  0.00193184  -0.00612650  0.33295653  1
  In  In7  1  0.81584813  0.48401630  -0.00391753  1
  In  In8  1  0.00763731  -0.00372765  0.66569340  1
  In  In9  1  0.67472432  0.50939900  0.82159728  1
  In  In10  1  0.00879352  0.17317888  0.52825025  1
  In  In11  1  0.65424270  0.33176104  0.00080257  1
  In  In12  1  0.18567375  0.14524683  0.31871207  1
  In  In13  1  0.82225479  0.64381553  0.83904462  1
  In  In14  1  0.35082009  0.17752831  0.48884707  1
  In  In15  1  0.61034834  0.68052457  0.62367587  1
  In  In16  1  0.15567434  0.19176585  0.00314798  1
  In  In17  1  0.01043061  0.51011486  0.47961190  1
  In  In18  1  0.33992726  0.64877118  0.62217020  1
  In  In19  1  0.02871342  0.65925165  0.65387940  1
  In  In20  1  0.16829804  0.47902390  -0.00382697  1
  In  In21  1  0.61120535  0.51720159  0.17501955  1
  In  In22  1  0.01051021  0.35586798  0.66500461  1
  In  In23  1  0.19132841  -0.00845127  0.17628453  1
  In  In24  1  0.66192025  0.34482027  0.68245494  1
  In  In25  1  0.81371803  0.66246518  0.16914544  1
  In  In26  1  0.16943797  0.18418142  0.68139261  1
  In  In27  1  0.34215769  0.19091246  0.84626180  1
  In  In28  1  0.66066908  0.00686462  -0.00495995  1
  In  In29  1  0.17714608  0.82980202  0.33974233  1
  In  In30  1  0.50052726  0.18697525  0.31984030  1
  In  In31  1  -0.00405864  0.51296404  0.83362332  1
  In  In32  1  0.00803322  0.67101113  0.00715853  1
  In  In33  1  0.83169901  0.64654873  0.50205708  1
  In  In34  1  0.18341227  0.33820631  0.16526467  1
  In  In35  1  0.30994322  0.48686851  0.82885497  1
  In  In36  1  0.18528070  0.81534223  0.66086918  1
  In  In37  1  0.48093213  0.67696057  0.83094270  1
  In  In38  1  0.85821302  -0.01429545  0.14246541  1
  In  In39  1  0.02171357  0.49914017  0.17298861  1
  In  In40  1  0.66037382  0.67459964  0.31912908  1
  In  In41  1  0.18256312  -0.02779116  0.49786533  1
  In  In42  1  0.52509554  -0.02657421  0.49997616  1
  In  In43  1  0.31778062  0.81910927  0.82661848  1
  In  In44  1  0.47433873  -0.00703721  0.17793094  1
  In  In45  1  0.13957532  -0.00898391  0.83784053  1
  In  In46  1  0.32237656  0.67249955  -0.01080983  1
  In  In47  1  0.66395177  0.48085683  0.50879441  1
  In  In48  1  0.18058309  0.64584436  0.16488228  1
  In  In49  1  -0.02393297  0.82664958  0.83070303  1
  In  In50  1  0.66568707  0.34713025  0.31629356  1
  In  In51  1  0.82559313  0.14608591  0.67786077  1
  In  In52  1  0.66847039  0.85508239  0.83827276  1
  In  In53  1  0.47628326  0.84061045  -0.00194531  1
  In  In54  1  0.84447972  0.83470531  0.32514288  1
  In  In55  1  0.33276564  0.01603687  0.00952021  1
  In  In56  1  0.67053511  0.14456628  0.48031919  1
  In  In57  1  0.84433437  0.32461252  0.50346781  1
  In  In58  1  0.83211795  0.31160104  0.84040442  1
  In  In59  1  0.66979296  -0.02039219  0.33844037  1
  In  In60  1  -0.00194733  0.16460064  0.14871002  1
  In  In61  1  0.81596941  0.81751306  0.65150246  1
  In  In62  1  0.46481562  0.33999227  0.49172724  1
  In  In63  1  0.63445222  0.79556299  0.18537783  1
  In  In64  1  0.33727729  0.84499426  0.16774103  1
  In  In65  1  0.34922940  0.34112920  0.33161691  1
  In  In66  1  0.86188054  0.02753914  0.86679769  1
  In  In67  1  0.48101848  0.34900969  0.82822585  1
  In  In68  1  0.50498845  0.19990178  0.66554265  1
  In  In69  1  0.52332054  0.01939147  0.83202556  1
  In  In70  1  0.17575302  0.50313412  0.66489002  1
  In  In71  1  0.01718458  0.34191703  0.35240995  1
  Te  Te72  1  0.09946854  0.07344830  0.08525100  1
  Te  Te73  1  0.09068178  0.08372322  0.42812031  1
  Te  Te74  1  0.06584398  0.10090783  0.75815776  1
  Te  Te75  1  0.07164600  0.39319991  0.07655687  1
  Te  Te76  1  0.11563474  0.42469831  0.42174806  1
  Te  Te77  1  0.09810981  0.42062281  0.76951133  1
  Te  Te78  1  0.09114839  0.74422685  0.10203042  1
  Te  Te79  1  0.08339331  0.74984395  0.42102090  1
  Te  Te80  1  0.08707877  0.75048896  0.76013081  1
  Te  Te81  1  0.44433149  0.09049785  0.07032693  1
  Te  Te82  1  0.44743632  0.08550126  0.42116617  1
  Te  Te83  1  0.41384845  0.09334359  0.74166016  1
  Te  Te84  1  0.47543601  0.47145445  0.11996590  1
  Te  Te85  1  0.35360816  0.44498847  0.47501200  1
  Te  Te86  1  0.41136958  0.43792179  0.73212826  1
  Te  Te87  1  0.41699185  0.73685656  0.09197526  1
  Te  Te88  1  0.39300385  0.69366798  0.47118929  1
  Te  Te89  1  0.40514451  0.75373405  0.72482453  1
  Te  Te90  1  0.75895330  0.08628223  0.07900291  1
  Te  Te91  1  0.76791355  0.06096564  0.41253728  1
  Te  Te92  1  0.74059507  0.07925561  0.78298058  1
  Te  Te93  1  0.74221664  0.40997868  0.10584750  1
  Te  Te94  1  0.76220027  0.41585778  0.41295396  1
  Te  Te95  1  0.77387732  0.42163845  0.74859438  1
  Te  Te96  1  0.72498896  0.74167854  0.08338980  1
  Te  Te97  1  0.75764332  0.74526953  0.41354099  1
  Te  Te98  1  0.73635950  0.74445077  0.75796894  1
  Te  Te99  1  0.08570937  0.24312624  0.25045359  1
  Te  Te100  1  0.10601049  0.27858536  0.57604225  1
  Te  Te101  1  0.06076740  0.22455460  0.89755615  1
  Te  Te102  1  0.10624636  0.57031417  0.27530074  1
  Te  Te103  1  0.11866689  0.59048763  0.55379469  1
  Te  Te104  1  0.09784001  0.58817899  0.91677262  1
  Te  Te105  1  0.08511699  0.90625987  0.24290161  1
  Te  Te106  1  0.08066759  0.89596617  0.58065695  1
  Te  Te107  1  0.04939415  0.91441788  0.93120047  1
  Te  Te108  1  0.39805677  0.24390797  0.23108979  1
  Te  Te109  1  0.38378281  0.26771115  0.60690638  1
  Te  Te110  1  0.40968115  0.28240558  0.94109947  1
  Te  Te111  1  0.37338781  0.56500530  0.24844684  1
  Te  Te112  1  0.47959411  0.61382561  0.56963246  1
  Te  Te113  1  0.40781885  0.57335921  0.91296132  1
  Te  Te114  1  0.42323861  0.89761564  0.27686421  1
  Te  Te115  1  0.41615941  0.89214094  0.55996684  1
  Te  Te116  1  0.40777705  0.92974563  0.89457425  1
  Te  Te117  1  0.75537061  0.23579563  0.26721463  1
  Te  Te118  1  0.74318644  0.24597502  0.58894267  1
  Te  Te119  1  0.74300092  0.23779791  0.92986295  1
  Te  Te120  1  0.73818993  0.56343930  0.25228148  1
  Te  Te121  1  0.73020794  0.58584804  0.59690359  1
  Te  Te122  1  0.72269842  0.59083383  0.94228771  1
  Te  Te123  1  0.74693060  0.90587969  0.22775778  1
  Te  Te124  1  0.74456413  0.91349851  0.56571742  1
  Te  Te125  1  0.76919521  0.92118288  0.93004975  1
  Te  Te126  1  0.25802313  0.22885199  0.10153977  1
  Te  Te127  1  0.24862054  0.25331417  0.40700338  1
  Te  Te128  1  0.24697733  0.27241757  0.76863795  1
  Te  Te129  1  0.26800241  0.55856920  0.07726083  1
  Te  Te130  1  0.31378958  0.58414133  0.38916385  1
  Te  Te131  1  0.25443794  0.60298947  0.74622701  1
  Te  Te132  1  0.24541022  0.90422817  0.06168127  1
  Te  Te133  1  0.27490786  0.92844236  0.39411525  1
  Te  Te134  1  0.24290642  0.93636095  0.73633219  1
  Te  Te135  1  0.56793605  0.27492169  0.10652305  1
  Te  Te136  1  0.58622640  0.26173398  0.43139952  1
  Te  Te137  1  0.59229725  0.25002692  0.77725560  1
  Te  Te138  1  0.53390303  0.60143184  0.08034358  1
  Te  Te139  1  0.59185365  0.58068085  0.42071955  1
  Te  Te140  1  0.57161801  0.58900740  0.74569185  1
  Te  Te141  1  0.57816974  0.91390770  0.08579704  1
  Te  Te142  1  0.58847552  0.87328911  0.40719132  1
  Te  Te143  1  0.56752818  0.90936396  0.73795566  1
  Te  Te144  1  0.90713043  0.24058633  0.05797471  1
  Te  Te145  1  0.92655177  0.23448185  0.41502850  1
  Te  Te146  1  0.92128911  0.25018807  0.73265414  1
  Te  Te147  1  0.91367716  0.56783663  0.08428163  1
  Te  Te148  1  0.91082249  0.58190241  0.39023042  1
  Te  Te149  1  0.91557127  0.58931980  0.73154624  1
  Te  Te150  1  0.94098037  0.92051544  0.04432380  1
  Te  Te151  1  0.93233516  0.90064401  0.42188434  1
  Te  Te152  1  0.89662323  0.92404529  0.74405284  1
  Te  Te153  1  0.29165445  0.07217313  0.24811301  1
  Te  Te154  1  0.24528205  0.09219377  0.57836706  1
  Te  Te155  1  0.24148316  0.08419503  0.90728737  1
  Te  Te156  1  0.27197447  0.43163015  0.24089389  1
  Te  Te157  1  0.28026310  0.41637048  0.60682375  1
  Te  Te158  1  0.26796411  0.38840673  0.93416159  1
  Te  Te159  1  0.26358365  0.74152026  0.25177630  1
  Te  Te160  1  0.25773719  0.75220118  0.54724653  1
  Te  Te161  1  0.22546087  0.76267843  0.92414641  1
  Te  Te162  1  0.58893601  0.07855284  0.25317594  1
  Te  Te163  1  0.58295846  0.08882376  0.59612930  1
  Te  Te164  1  0.56250420  0.10641748  0.94314471  1
  Te  Te165  1  0.54117090  0.42202289  0.28085553  1
  Te  Te166  1  0.55905016  0.41106342  0.59392665  1
  Te  Te167  1  0.58111691  0.43110812  0.91141477  1
  Te  Te168  1  0.53220961  0.72730949  0.26619185  1
  Te  Te169  1  0.58543848  0.80789356  0.55052897  1
  Te  Te170  1  0.57597737  0.76048029  0.91656513  1
  Te  Te171  1  0.91376868  0.08208993  0.24591058  1
  Te  Te172  1  0.90762276  0.06931605  0.57592739  1
  Te  Te173  1  0.94266404  0.13231588  0.93418343  1
  Te  Te174  1  0.92448368  0.41379434  0.25486807  1
  Te  Te175  1  0.91733433  0.43622435  0.57621815  1
  Te  Te176  1  0.92267443  0.41091242  0.91829073  1
  Te  Te177  1  0.92153671  0.75755407  0.21880657  1
  Te  Te178  1  0.92435222  0.74145113  0.57712876  1
  Te  Te179  1  0.89700902  0.74051434  0.92867597  1
