# generated using pymatgen
data_In2Te3
_symmetry_space_group_name_H-M   'P 1'
_cell_length_a   18.78781999
_cell_length_b   18.78087371
_cell_length_c   18.78560106
_cell_angle_alpha   90.00168818
_cell_angle_beta   90.00391296
_cell_angle_gamma   90.02569341
_symmetry_Int_Tables_number   1
_chemical_formula_structural   In2Te3
_chemical_formula_sum   'In72 Te108'
_cell_volume   6628.53010657
_cell_formula_units_Z   36
loop_
 _symmetry_equiv_pos_site_id
 _symmetry_equiv_pos_as_xyz
  1  'x, y, z'
loop_
 _atom_site_type_symbol
 _atom_site_label
 _atom_site_symmetry_multiplicity
 _atom_site_fract_x
 _atom_site_fract_y
 _atom_site_fract_z
 _atom_site_occupancy
  In  In0  1  0.15460196  0.80064668  0.67329073  1
  In  In1  1  -0.01128597  0.32661641  -0.02303195  1
  In  In2  1  -0.00833424  0.80497759  0.50518262  1
  In  In3  1  0.81007561  0.36677040  0.81385266  1
  In  In4  1  0.34764869  0.18312375  0.82310210  1
  In  In5  1  0.17608784  0.50441255  -0.00017505  1
  In  In6  1  -0.03117543  -0.01477801  0.67045068  1
  In  In7  1  0.13835289  0.48626315  0.66726082  1
  In  In8  1  0.15628271  -0.00236275  0.84414719  1
  In  In9  1  0.34565310  0.82685173  0.82227090  1
  In  In10  1  0.84151881  0.31091473  0.51263508  1
  In  In11  1  -0.01020908  0.50761094  0.15468483  1
  In  In12  1  0.34164625  0.48605686  0.14615203  1
  In  In13  1  0.67913674  0.15512844  0.53772926  1
  In  In14  1  0.81707640  0.64909345  0.53209454  1
  In  In15  1  0.00880384  0.15676523  0.16952612  1
  In  In16  1  0.51635641  0.16712073  0.35159818  1
  In  In17  1  0.54765765  0.49233607  0.67979844  1
  In  In18  1  0.34571985  0.02016875  0.68479962  1
  In  In19  1  0.64508908  -0.00392280  -0.02754381  1
  In  In20  1  0.84524790  0.00273502  0.15217627  1
  In  In21  1  0.82692165  0.15678633  -0.01095309  1
  In  In22  1  0.15258779  0.84263841  0.32923137  1
  In  In23  1  0.33869643  0.66736150  0.34371933  1
  In  In24  1  0.15926494  0.18757530  0.00240358  1
  In  In25  1  0.81093983  0.34468069  0.17185657  1
  In  In26  1  0.16577303  0.17349612  0.66275693  1
  In  In27  1  0.67558504  0.64978241  -0.02452242  1
  In  In28  1  0.15253457  0.83070444  0.00686774  1
  In  In29  1  0.66776678  0.31679430  0.36912066  1
  In  In30  1  0.16931338  0.01763709  0.51190272  1
  In  In31  1  0.34705872  0.66797664  0.68073753  1
  In  In32  1  0.69309051  0.82094840  0.82439615  1
  In  In33  1  0.49916005  0.34620486  0.14565726  1
  In  In34  1  0.50216572  0.67443467  0.14163380  1
  In  In35  1  0.36975360  0.30509198  0.66117522  1
  In  In36  1  0.82667220  -0.00717079  0.52379666  1
  In  In37  1  -0.01702475  0.33363582  0.68707745  1
  In  In38  1  0.68106334  0.65785007  0.33975516  1
  In  In39  1  0.68635038  0.83313506  0.52569243  1
  In  In40  1  0.50854413  -0.00096939  0.15430973  1
  In  In41  1  0.15796286  0.64077927  0.17208286  1
  In  In42  1  0.16488965  0.33096875  0.49502807  1
  In  In43  1  0.00054556  0.48065248  0.49998172  1
  In  In44  1  0.68152215  0.15059957  0.80102917  1
  In  In45  1  0.68447477  0.20882408  0.16629012  1
  In  In46  1  0.65248448  0.35610437  -0.00641528  1
  In  In47  1  0.01397820  -0.00221601  0.33708209  1
  In  In48  1  0.15887421  0.68106056  0.47110601  1
  In  In49  1  0.35969074  0.82168891  0.15141712  1
  In  In50  1  -0.00891720  0.67053469  -0.01033820  1
  In  In51  1  0.52457670  0.32203620  0.82074130  1
  In  In52  1  0.68013956  -0.01320820  0.33600563  1
  In  In53  1  0.67345655  0.51698540  0.16872833  1
  In  In54  1  0.81778523  0.81813024  -0.01152161  1
  In  In55  1  0.35630535  0.50576830  0.86378193  1
  In  In56  1  0.33787230  0.51958863  0.51623267  1
  In  In57  1  0.81981794  0.48586950  0.35379973  1
  In  In58  1  0.33202719  0.34840777  0.32405660  1
  In  In59  1  0.14567460  0.67134123  0.81888373  1
  In  In60  1  0.16338509  0.16350409  0.33963138  1
  In  In61  1  0.35203435  0.83928801  0.47630360  1
  In  In62  1  0.49327977  0.83243322  0.32290723  1
  In  In63  1  -0.01821189  0.00278994  -0.00559050  1
  In  In64  1  -0.04462955  0.64096639  0.67317852  1
  In  In65  1  0.16468476  0.30571686  0.17554399  1
  In  In66  1  0.52135634  0.81385806  0.67793226  1
  In  In67  1  0.34520648  -0.02114130  -0.01164661  1
  In  In68  1  0.32131622  0.15607476  0.16438488  1
  In  In69  1  0.68445794  0.85663606  0.14946488  1
  In  In70  1  0.51753698  0.49850837  0.34682679  1
  In  In71  1  0.49473963  0.02326326  0.50533626  1
  Te  Te72  1  0.09312080  0.07101456  0.07656789  1
  Te  Te73  1  0.06514385  0.10159008  0.43953163  1
  Te  Te74  1  0.07748192  0.07618872  0.73980705  1
  Te  Te75  1  0.08373632  0.40291033  0.08132445  1
  Te  Te76  1  0.09744654  0.42575319  0.40432781  1
  Te  Te77  1  0.06817006  0.41709231  0.77576355  1
  Te  Te78  1  0.06992363  0.74335042  0.10155695  1
  Te  Te79  1  0.05080769  0.73913265  0.37967241  1
  Te  Te80  1  0.03591479  0.75512212  0.75282422  1
  Te  Te81  1  0.42004216  0.08818025  0.06817817  1
  Te  Te82  1  0.40903705  0.07719143  0.39923120  1
  Te  Te83  1  0.44993280  0.10007991  0.75261693  1
  Te  Te84  1  0.42228607  0.41898626  0.04200284  1
  Te  Te85  1  0.41752004  0.41854202  0.43013747  1
  Te  Te86  1  0.41869336  0.42604137  0.74100521  1
  Te  Te87  1  0.41737669  0.74327478  0.03697741  1
  Te  Te88  1  0.44813655  0.72932131  0.42852624  1
  Te  Te89  1  0.44723079  0.71750527  0.78507990  1
  Te  Te90  1  0.72931069  0.07687912  0.08633609  1
  Te  Te91  1  0.75312405  0.08783374  0.42294170  1
  Te  Te92  1  0.77636612  0.05572268  0.73174178  1
  Te  Te93  1  0.75867536  0.43997973  0.06630851  1
  Te  Te94  1  0.73147524  0.42251625  0.46389430  1
  Te  Te95  1  0.71056830  0.44955255  0.73497284  1
  Te  Te96  1  0.74660891  0.73075926  0.09133208  1
  Te  Te97  1  0.77415689  0.75738091  0.41539964  1
  Te  Te98  1  0.74038810  0.69961706  0.74579991  1
  Te  Te99  1  0.06038790  0.25735384  0.27486374  1
  Te  Te100  1  0.06516730  0.25533949  0.58164057  1
  Te  Te101  1  0.07289070  0.23719926  0.89334237  1
  Te  Te102  1  0.05891781  0.58282228  0.26339961  1
  Te  Te103  1  0.08279528  0.60342858  0.58270066  1
  Te  Te104  1  0.07407063  0.57000255  0.90757485  1
  Te  Te105  1  0.06545246  0.90957368  0.23089628  1
  Te  Te106  1  0.08710614  0.90766162  0.57921356  1
  Te  Te107  1  0.05895387  0.90022724  0.90763789  1
  Te  Te108  1  0.42716771  0.25355092  0.24637860  1
  Te  Te109  1  0.44305154  0.22597059  0.56451905  1
  Te  Te110  1  0.42288324  0.27032179  0.91566490  1
  Te  Te111  1  0.42836849  0.57875748  0.24773445  1
  Te  Te112  1  0.44469667  0.58632440  0.59863929  1
  Te  Te113  1  0.41708676  0.62307646  0.92505737  1
  Te  Te114  1  0.40720600  0.93297982  0.24861514  1
  Te  Te115  1  0.41604620  0.90807458  0.59718296  1
  Te  Te116  1  0.43311679  0.93108367  0.88017271  1
  Te  Te117  1  0.77613208  0.24305009  0.28705049  1
  Te  Te118  1  0.75454664  0.25527789  0.62220215  1
  Te  Te119  1  0.74149455  0.25702663  0.91281299  1
  Te  Te120  1  0.78345072  0.59126559  0.24559427  1
  Te  Te121  1  0.74284157  0.57095908  0.63894942  1
  Te  Te122  1  0.76459797  0.58153585  0.87686436  1
  Te  Te123  1  0.78395527  0.89977025  0.26365087  1
  Te  Te124  1  0.73143172  0.93558047  0.62765126  1
  Te  Te125  1  0.77296767  0.94404852  0.91244498  1
  Te  Te126  1  0.26985933  0.26717698  0.07252884  1
  Te  Te127  1  0.26606239  0.24659659  0.41716146  1
  Te  Te128  1  0.24644096  0.27029590  0.74782813  1
  Te  Te129  1  0.26798846  0.60053200  0.07539255  1
  Te  Te130  1  0.24116626  0.56891059  0.40676097  1
  Te  Te131  1  0.24462612  0.57705555  0.74726153  1
  Te  Te132  1  0.25172552  0.91296313  0.08930733  1
  Te  Te133  1  0.24717169  0.93005720  0.41185930  1
  Te  Te134  1  0.23817164  0.91542945  0.74017393  1
  Te  Te135  1  0.57647890  0.24112073  0.06527214  1
  Te  Te136  1  0.56608271  0.25374257  0.47002230  1
  Te  Te137  1  0.61710121  0.26139393  0.71936011  1
  Te  Te138  1  0.57421809  0.56559894  0.06479468  1
  Te  Te139  1  0.60514222  0.57563855  0.44044125  1
  Te  Te140  1  0.62027238  0.60264774  0.75699107  1
  Te  Te141  1  0.56632891  0.89448792  0.05874235  1
  Te  Te142  1  0.58347861  0.91125261  0.42746125  1
  Te  Te143  1  0.59142940  0.91231733  0.76306832  1
  Te  Te144  1  0.90826948  0.24547379  0.09266807  1
  Te  Te145  1  0.90701795  0.28441740  0.38556139  1
  Te  Te146  1  0.88014598  0.24846786  0.75305151  1
  Te  Te147  1  0.89868879  0.58976996  0.07387973  1
  Te  Te148  1  0.91109794  0.58312311  0.43006182  1
  Te  Te149  1  0.89299699  0.57240827  0.78790533  1
  Te  Te150  1  0.91872669  0.89191133  0.08162364  1
  Te  Te151  1  0.92079954  0.91684639  0.42911500  1
  Te  Te152  1  0.86753499  0.93392420  0.76681941  1
  Te  Te153  1  0.22552273  0.07442711  0.24009173  1
  Te  Te154  1  0.27454197  0.10525328  0.57930554  1
  Te  Te155  1  0.25450486  0.08989300  0.91533861  1
  Te  Te156  1  0.23457079  0.42849091  0.23888296  1
  Te  Te157  1  0.25303347  0.41481135  0.59103320  1
  Te  Te158  1  0.24909365  0.41526460  0.90810846  1
  Te  Te159  1  0.25587774  0.75207868  0.24854148  1
  Te  Te160  1  0.26337806  0.74691021  0.56959223  1
  Te  Te161  1  0.23914846  0.75405580  0.90702622  1
  Te  Te162  1  0.59702090  0.08387276  0.24907293  1
  Te  Te163  1  0.57890120  0.07566773  0.61407308  1
  Te  Te164  1  0.57786331  0.10262326  0.89633520  1
  Te  Te165  1  0.60488440  0.40488357  0.25198842  1
  Te  Te166  1  0.60053710  0.43934593  0.55144701  1
  Te  Te167  1  0.58115492  0.43807627  0.89439351  1
  Te  Te168  1  0.59609118  0.75189915  0.24284425  1
  Te  Te169  1  0.59355411  0.73210753  0.57833756  1
  Te  Te170  1  0.60028097  0.76803087  0.92848061  1
  Te  Te171  1  0.91000512  0.08512620  0.26172620  1
  Te  Te172  1  0.91675753  0.09392164  0.58498456  1
  Te  Te173  1  0.93593365  0.10916247  0.90151022  1
  Te  Te174  1  0.91725689  0.41444559  0.25841685  1
  Te  Te175  1  0.90044113  0.42716461  0.59807764  1
  Te  Te176  1  0.89986273  0.42863278  0.91749091  1
  Te  Te177  1  0.84858423  0.75596422  0.28467655  1
  Te  Te178  1  0.88824189  0.76513771  0.60790817  1
  Te  Te179  1  0.90732339  0.74780890  0.89336218  1
