# generated using pymatgen
data_In2Te3
_symmetry_space_group_name_H-M   'P 1'
_cell_length_a   18.95749253
_cell_length_b   18.99718347
_cell_length_c   18.97864298
_cell_angle_alpha   89.95234518
_cell_angle_beta   89.97856980
_cell_angle_gamma   90.06271274
_symmetry_Int_Tables_number   1
_chemical_formula_structural   In2Te3
_chemical_formula_sum   'In72 Te108'
_cell_volume   6834.94187703
_cell_formula_units_Z   36
loop_
 _symmetry_equiv_pos_site_id
 _symmetry_equiv_pos_as_xyz
  1  'x, y, z'
loop_
 _atom_site_type_symbol
 _atom_site_label
 _atom_site_symmetry_multiplicity
 _atom_site_fract_x
 _atom_site_fract_y
 _atom_site_fract_z
 _atom_site_occupancy
  In  In0  1  0.00064270  0.33572028  0.34643673  1
  In  In1  1  0.34622054  0.15661051  0.19166685  1
  In  In2  1  0.18684598  0.48038953  0.36428357  1
  In  In3  1  0.67168028  0.34102548  0.30520652  1
  In  In4  1  0.67445528  0.15872255  0.48944380  1
  In  In5  1  0.65143122  0.31776419  -0.02199377  1
  In  In6  1  -0.00696692  -0.00122033  0.68251886  1
  In  In7  1  0.31977417  0.67116626  -0.03493014  1
  In  In8  1  0.80577786  0.30191333  0.14217879  1
  In  In9  1  0.34014066  0.66069117  0.37836753  1
  In  In10  1  0.67538646  0.00477753  0.63213454  1
  In  In11  1  0.16115662  0.85531998  0.33887094  1
  In  In12  1  0.35649837  0.00157928  0.34829133  1
  In  In13  1  0.01011428  0.15776495  0.84042024  1
  In  In14  1  0.30479297  0.82370736  0.14797169  1
  In  In15  1  0.19218318  0.02122812  0.50401710  1
  In  In16  1  0.83115495  0.34392151  0.49546074  1
  In  In17  1  0.34553453  0.48559297  0.14640264  1
  In  In18  1  0.86106807  0.16921803  0.67065999  1
  In  In19  1  0.35825177  0.14717570  0.52202556  1
  In  In20  1  0.48168165  0.66537352  0.17076938  1
  In  In21  1  0.50052060  0.69729668  0.50515970  1
  In  In22  1  0.32517756  0.33022645  0.33372931  1
  In  In23  1  0.14075621  0.49371975  -0.01360413  1
  In  In24  1  0.65667972  0.53470828  0.50824407  1
  In  In25  1  0.15051805  0.17617724  0.34661828  1
  In  In26  1  0.16276752  0.65209912  0.18157000  1
  In  In27  1  0.81061973  0.02972601  0.84861360  1
  In  In28  1  0.85596048  0.47638075  0.67620075  1
  In  In29  1  -0.02398766  0.17121913  0.16467066  1
  In  In30  1  0.30532700  0.52514854  0.81218603  1
  In  In31  1  0.87363746  0.45451032  -0.04478225  1
  In  In32  1  0.20442779  0.84189991  0.68429740  1
  In  In33  1  0.51973689  -0.01633397  0.50197624  1
  In  In34  1  0.65453277  0.14789037  0.13746379  1
  In  In35  1  0.31697913  0.48583573  0.53144182  1
  In  In36  1  -0.00307139  -0.00824064  0.29053088  1
  In  In37  1  0.49226695  0.33386166  0.50773888  1
  In  In38  1  0.00175115  0.16988105  0.51295211  1
  In  In39  1  0.15819341  0.17743193  0.00561810  1
  In  In40  1  0.65386363  0.71636052  0.33879436  1
  In  In41  1  0.66848908  0.85285569  0.85446063  1
  In  In42  1  0.66274292  0.32719342  0.70326180  1
  In  In43  1  0.03546362  0.30011311  0.68097542  1
  In  In44  1  0.65616325  0.67286388  -0.00484843  1
  In  In45  1  0.21208304  0.31090445  0.81582303  1
  In  In46  1  0.19486733  0.00731904  0.13565217  1
  In  In47  1  0.85067503  0.65975225  0.82138690  1
  In  In48  1  0.67321666  0.51769753  0.84873145  1
  In  In49  1  0.50821208  0.03148132  0.83370277  1
  In  In50  1  0.00112084  0.48127074  0.17903316  1
  In  In51  1  0.49967515  0.82861845  0.66729731  1
  In  In52  1  -0.00740765  0.84725944  0.51585211  1
  In  In53  1  0.33747795  0.31109837  0.00810126  1
  In  In54  1  0.79401411  0.86079813  0.66658678  1
  In  In55  1  0.64483424  0.48237745  0.14208668  1
  In  In56  1  -0.00000970  0.65134137  -0.01017468  1
  In  In57  1  0.83023807  0.68658101  0.17369749  1
  In  In58  1  0.34387637  0.01214440  -0.01665932  1
  In  In59  1  -0.00603860  0.65394586  0.38748131  1
  In  In60  1  0.16416579  -0.00958995  0.83142076  1
  In  In61  1  0.82274650  0.82580911  0.32126656  1
  In  In62  1  0.82181470  0.86421723  -0.02315528  1
  In  In63  1  0.50791348  0.50753395  0.69250027  1
  In  In64  1  0.86894488  0.64796049  0.52932196  1
  In  In65  1  0.82262505  0.52009318  0.30892259  1
  In  In66  1  0.33871585  0.67670378  0.66590879  1
  In  In67  1  0.67020004  0.88336508  0.16631906  1
  In  In68  1  0.50370457  0.00484995  0.16654102  1
  In  In69  1  0.08559690  0.80398949  0.86219535  1
  In  In70  1  0.46746119  0.34098006  0.83058848  1
  In  In71  1  -0.02091380  0.82951116  0.12676870  1
  Te  Te72  1  0.07401878  0.07957651  0.08397885  1
  Te  Te73  1  0.06971790  0.06560121  0.41226036  1
  Te  Te74  1  0.09949424  0.09398336  0.73575134  1
  Te  Te75  1  0.07538526  0.40323051  0.08110671  1
  Te  Te76  1  0.10618445  0.38141369  0.44399652  1
  Te  Te77  1  0.13715181  0.40154525  0.72233353  1
  Te  Te78  1  0.09072008  0.73591710  0.07805831  1
  Te  Te79  1  0.09306621  0.76490829  0.43714585  1
  Te  Te80  1  0.08504072  0.76510956  0.72206051  1
  Te  Te81  1  0.42540873  0.09917871  0.07592496  1
  Te  Te82  1  0.45196464  0.09425931  0.41457122  1
  Te  Te83  1  0.40878379  0.13119719  0.78282410  1
  Te  Te84  1  0.43651984  0.38391643  0.09150567  1
  Te  Te85  1  0.40577878  0.42556470  0.42417157  1
  Te  Te86  1  0.38862207  0.42498675  0.73180945  1
  Te  Te87  1  0.40639450  0.74827434  0.06750646  1
  Te  Te88  1  0.43071515  0.77862977  0.40002672  1
  Te  Te89  1  0.43854287  0.73155193  0.75846236  1
  Te  Te90  1  0.74917615  0.04535151  0.08588900  1
  Te  Te91  1  0.72708457  0.03654508  0.42925080  1
  Te  Te92  1  0.74261062  0.09935427  0.73407810  1
  Te  Te93  1  0.75997541  0.42298994  0.06293319  1
  Te  Te94  1  0.73818456  0.44073424  0.41817398  1
  Te  Te95  1  0.75979482  0.41420031  0.77845714  1
  Te  Te96  1  0.74854602  0.77115856  0.07863659  1
  Te  Te97  1  0.78114945  0.71652938  0.41822804  1
  Te  Te98  1  0.74446434  0.75437995  0.76636420  1
  Te  Te99  1  0.07852994  0.25741363  0.24363636  1
  Te  Te100  1  0.11484039  0.20777656  0.59764681  1
  Te  Te101  1  0.08979264  0.27098686  0.90766496  1
  Te  Te102  1  0.08559109  0.56442560  0.27837856  1
  Te  Te103  1  0.01184681  0.60283914  0.52810099  1
  Te  Te104  1  0.06220538  0.56736869  0.88545078  1
  Te  Te105  1  0.09526173  0.90407148  0.21078106  1
  Te  Te106  1  0.09594522  0.93404695  0.58893414  1
  Te  Te107  1  0.06160139  0.93465449  0.92013485  1
  Te  Te108  1  0.42718753  0.25096590  0.26621216  1
  Te  Te109  1  0.39734139  0.26824416  0.60128780  1
  Te  Te110  1  0.41963911  0.22731208  0.91623906  1
  Te  Te111  1  0.39136965  0.58166325  0.25925365  1
  Te  Te112  1  0.43623467  0.57867481  0.57558741  1
  Te  Te113  1  0.41010157  0.57780467  0.89971085  1
  Te  Te114  1  0.39427383  0.91615392  0.22903694  1
  Te  Te115  1  0.42002218  0.93588845  0.60182850  1
  Te  Te116  1  0.42194950  0.92478721  0.89224077  1
  Te  Te117  1  0.74355760  0.22179379  0.25209858  1
  Te  Te118  1  0.75418600  0.25667428  0.59299627  1
  Te  Te119  1  0.71596046  0.20719529  0.90893118  1
  Te  Te120  1  0.72063861  0.59769855  0.22871104  1
  Te  Te121  1  0.75985768  0.57784510  0.60980267  1
  Te  Te122  1  0.77510353  0.59136079  0.93753400  1
  Te  Te123  1  0.72851319  0.93768441  0.29186824  1
  Te  Te124  1  0.75177318  0.92144986  0.53462231  1
  Te  Te125  1  0.69998515  0.97810750  0.95480621  1
  Te  Te126  1  0.24864267  0.24061654  0.10889469  1
  Te  Te127  1  0.26342394  0.22862652  0.42873290  1
  Te  Te128  1  0.30062881  0.22945713  0.72942473  1
  Te  Te129  1  0.24362233  0.58006407  0.07555367  1
  Te  Te130  1  0.23190946  0.59206553  0.45679144  1
  Te  Te131  1  0.22832962  0.58686681  0.70470648  1
  Te  Te132  1  0.24345574  0.90523912  0.03661806  1
  Te  Te133  1  0.26792484  0.91083520  0.43118964  1
  Te  Te134  1  0.28220121  0.90893250  0.79148851  1
  Te  Te135  1  0.57752987  0.26882944  0.09488044  1
  Te  Te136  1  0.59598444  0.26800784  0.41952319  1
  Te  Te137  1  0.55222742  0.24606423  0.75180593  1
  Te  Te138  1  0.55804081  0.58206993  0.06777502  1
  Te  Te139  1  0.57456257  0.60473376  0.40208333  1
  Te  Te140  1  0.59798135  0.60273432  0.75636689  1
  Te  Te141  1  0.56429693  0.91164831  0.06990279  1
  Te  Te142  1  0.55991681  0.86456365  0.42371537  1
  Te  Te143  1  0.59674283  0.93472445  0.74736016  1
  Te  Te144  1  0.90360287  0.23795679  0.05380338  1
  Te  Te145  1  0.90573174  0.23873789  0.41590595  1
  Te  Te146  1  0.90970336  0.26445631  0.77828564  1
  Te  Te147  1  0.92150579  0.58649115  0.10316386  1
  Te  Te148  1  0.93048667  0.51691488  0.41375452  1
  Te  Te149  1  0.94363027  0.57186069  0.74840490  1
  Te  Te150  1  0.88305255  0.93701573  0.09202549  1
  Te  Te151  1  0.92285312  0.91191918  0.39816780  1
  Te  Te152  1  0.88896454  0.92813989  0.76570148  1
  Te  Te153  1  0.23589142  0.06944582  0.26858862  1
  Te  Te154  1  0.29223877  0.04709663  0.60994912  1
  Te  Te155  1  0.24215626  0.09753559  0.91071880  1
  Te  Te156  1  0.24364121  0.41668577  0.23823166  1
  Te  Te157  1  0.20243501  0.40132507  0.56772581  1
  Te  Te158  1  0.26004523  0.41376652  0.92573139  1
  Te  Te159  1  0.24758469  0.74109257  0.27101522  1
  Te  Te160  1  0.28403650  0.78048520  0.57804606  1
  Te  Te161  1  0.21982340  0.73438001  0.87939358  1
  Te  Te162  1  0.58592758  0.08793852  0.25395137  1
  Te  Te163  1  0.57186204  0.10500106  0.58740897  1
  Te  Te164  1  0.60690411  0.10602878  0.92478969  1
  Te  Te165  1  0.57044993  0.43364066  0.25730965  1
  Te  Te166  1  0.59638606  0.41948461  0.59238606  1
  Te  Te167  1  0.57039367  0.42504334  0.91018330  1
  Te  Te168  1  0.57498624  0.77197381  0.22442321  1
  Te  Te169  1  0.60334024  0.77720028  0.57338228  1
  Te  Te170  1  0.57162015  0.76260980  0.91736461  1
  Te  Te171  1  0.89724784  0.09313600  0.26093075  1
  Te  Te172  1  0.90889592  0.06436551  0.57342051  1
  Te  Te173  1  0.90667316  0.10533590  0.93219002  1
  Te  Te174  1  0.89168771  0.39333599  0.24476757  1
  Te  Te175  1  0.94137834  0.38430928  0.59167289  1
  Te  Te176  1  0.96407197  0.38226014  0.86743841  1
  Te  Te177  1  0.94348747  0.74457337  0.25645313  1
  Te  Te178  1  0.90546555  0.77102979  0.61238382  1
  Te  Te179  1  0.91612792  0.76042608  0.91778034  1
