# generated using pymatgen
data_In2Te3
_symmetry_space_group_name_H-M   'P 1'
_cell_length_a   18.77035676
_cell_length_b   18.76348534
_cell_length_c   18.76282705
_cell_angle_alpha   90.00977483
_cell_angle_beta   90.06728777
_cell_angle_gamma   90.01901031
_symmetry_Int_Tables_number   1
_chemical_formula_structural   In2Te3
_chemical_formula_sum   'In72 Te108'
_cell_volume   6608.21227091
_cell_formula_units_Z   36
loop_
 _symmetry_equiv_pos_site_id
 _symmetry_equiv_pos_as_xyz
  1  'x, y, z'
loop_
 _atom_site_type_symbol
 _atom_site_label
 _atom_site_symmetry_multiplicity
 _atom_site_fract_x
 _atom_site_fract_y
 _atom_site_fract_z
 _atom_site_occupancy
  In  In0  1  0.19208310  0.49233855  -0.01305556  1
  In  In1  1  0.49386414  0.50282652  0.69372674  1
  In  In2  1  0.62623273  0.17277177  0.13872381  1
  In  In3  1  0.15739203  0.49748926  0.33870952  1
  In  In4  1  0.18486637  0.66132071  0.16081666  1
  In  In5  1  0.49336988  0.50533909  -0.01707836  1
  In  In6  1  0.19984634  0.33902209  0.83281818  1
  In  In7  1  -0.00421012  0.32561174  0.64851833  1
  In  In8  1  0.17701539  0.65253016  0.83945609  1
  In  In9  1  0.16579544  0.69326898  0.48016618  1
  In  In10  1  0.84005107  0.84454579  0.32531325  1
  In  In11  1  0.17221841  0.30575064  0.16823668  1
  In  In12  1  0.66262283  0.01091567  0.31208172  1
  In  In13  1  0.18913380  0.85463601  0.03391184  1
  In  In14  1  0.83251875  0.00842215  0.16555298  1
  In  In15  1  0.00361178  0.66106978  0.65419802  1
  In  In16  1  0.80670743  0.82848110  0.00249915  1
  In  In17  1  0.47647293  0.32589145  0.84913243  1
  In  In18  1  -0.01297646  0.33456107  0.01000305  1
  In  In19  1  0.34517838  0.66868516  0.69220185  1
  In  In20  1  0.84979489  -0.01802862  0.51402699  1
  In  In21  1  0.81539183  0.67433125  0.83916352  1
  In  In22  1  0.01819361  0.83870648  0.19729626  1
  In  In23  1  0.83845673  0.17961648  -0.00239359  1
  In  In24  1  0.65713457  0.34344867  0.68564071  1
  In  In25  1  0.34669043  0.30093043  0.31506382  1
  In  In26  1  0.01225830  -0.03407568  0.65985878  1
  In  In27  1  0.81915468  0.14414601  0.67342888  1
  In  In28  1  0.02832976  0.33038164  0.32133399  1
  In  In29  1  0.34615078  0.85322212  0.84443932  1
  In  In30  1  0.63180876  0.16264888  0.87169354  1
  In  In31  1  0.84970229  0.33814143  0.49723074  1
  In  In32  1  0.82362949  0.50374446  0.01557552  1
  In  In33  1  0.01578260  0.00673702  0.01278680  1
  In  In34  1  0.48236675  0.68782810  0.15308708  1
  In  In35  1  0.83346042  0.64482911  0.48356045  1
  In  In36  1  0.19355521  0.16478701  0.66621908  1
  In  In37  1  0.63802201  -0.04712633  0.02057362  1
  In  In38  1  0.82865483  0.32642980  0.15181440  1
  In  In39  1  0.33162756  0.86345286  0.48190693  1
  In  In40  1  0.66978746  0.52207296  0.49130121  1
  In  In41  1  0.50725947  0.30804295  0.49080029  1
  In  In42  1  0.33291628  0.48951559  0.52383436  1
  In  In43  1  0.63809420  0.32639887  0.33288960  1
  In  In44  1  0.34413997  0.85570880  0.16353894  1
  In  In45  1  0.34165511  0.69635405  0.32964356  1
  In  In46  1  0.34352456  0.48559692  0.14123022  1
  In  In47  1  0.16083581  0.84498010  0.66458307  1
  In  In48  1  0.31710721  0.15244223  0.47899140  1
  In  In49  1  0.79710429  0.31882238  0.81761959  1
  In  In50  1  0.01205308  0.50428342  0.83780805  1
  In  In51  1  0.63609817  0.70504022  0.00112761  1
  In  In52  1  0.63248787  0.67205496  0.67978162  1
  In  In53  1  0.18580869  -0.00080311  0.83958434  1
  In  In54  1  0.82838451  0.81835795  0.67439877  1
  In  In55  1  -0.01685638  0.50158031  0.16526750  1
  In  In56  1  0.01015556  0.15753794  0.86062007  1
  In  In57  1  -0.03164222  0.83888404  0.83610870  1
  In  In58  1  0.65850862  0.67250435  0.30708475  1
  In  In59  1  0.48003538  0.00462831  0.48946045  1
  In  In60  1  0.46463108  0.13311014  0.67636210  1
  In  In61  1  0.82834716  0.45735605  0.67106901  1
  In  In62  1  0.20217442  0.51431769  0.66260805  1
  In  In63  1  0.83290289  0.53803031  0.33509364  1
  In  In64  1  0.83912532  0.15257225  0.32035749  1
  In  In65  1  0.20866477  0.14748634  0.00700897  1
  In  In66  1  0.51863354  0.50208884  0.33304920  1
  In  In67  1  0.61378065  -0.00651168  0.70854162  1
  In  In68  1  0.02093638  0.85380935  0.47480696  1
  In  In69  1  0.04517050  0.13232616  0.46630930  1
  In  In70  1  0.64995076  0.18701885  0.48080044  1
  In  In71  1  0.65471513  0.83597723  0.51814005  1
  Te  Te72  1  0.10102167  0.09542062  0.09346723  1
  Te  Te73  1  0.14325362  0.05215695  0.38445087  1
  Te  Te74  1  0.08115901  0.07885497  0.74965711  1
  Te  Te75  1  0.09330059  0.42171429  0.09088284  1
  Te  Te76  1  0.09502108  0.40207691  0.43174554  1
  Te  Te77  1  0.08842443  0.41179825  0.74400059  1
  Te  Te78  1  0.08741592  0.75381265  0.08568338  1
  Te  Te79  1  0.08706785  0.76418188  0.37780079  1
  Te  Te80  1  0.07984981  0.74830659  0.75602631  1
  Te  Te81  1  0.39542012  0.13548628  0.08294785  1
  Te  Te82  1  0.41096905  0.08400331  0.38498562  1
  Te  Te83  1  0.42112765  0.05621342  0.79530083  1
  Te  Te84  1  0.45227019  0.39919629  0.08577789  1
  Te  Te85  1  0.41735128  0.41323594  0.41146737  1
  Te  Te86  1  0.40822838  0.39001956  0.73316795  1
  Te  Te87  1  0.41604645  0.77821452  0.05235249  1
  Te  Te88  1  0.43054233  0.77476675  0.41559505  1
  Te  Te89  1  0.43608582  0.74450981  0.78503007  1
  Te  Te90  1  0.73783114  0.08153200  0.07029168  1
  Te  Te91  1  0.75421333  0.07675726  0.42851346  1
  Te  Te92  1  0.72556187  0.08408653  0.77551725  1
  Te  Te93  1  0.72987365  0.41092657  0.08390195  1
  Te  Te94  1  0.74517567  0.41161094  0.41233570  1
  Te  Te95  1  0.72172822  0.44791764  0.77919052  1
  Te  Te96  1  0.73381783  0.74983492  0.10350063  1
  Te  Te97  1  0.75172893  0.75907442  0.42271366  1
  Te  Te98  1  0.71942247  0.76776093  0.76701238  1
  Te  Te99  1  0.10453127  0.21629588  0.26464802  1
  Te  Te100  1  0.09290468  0.23420976  0.57239230  1
  Te  Te101  1  0.09691922  0.26221373  0.92977758  1
  Te  Te102  1  0.07969136  0.59073541  0.24709704  1
  Te  Te103  1  0.10162038  0.58329987  0.56942580  1
  Te  Te104  1  0.08002886  0.59048429  0.94213058  1
  Te  Te105  1  0.11536374  0.94365885  0.24060661  1
  Te  Te106  1  0.11898572  0.94176793  0.55340498  1
  Te  Te107  1  0.08574254  0.90723161  0.91180599  1
  Te  Te108  1  0.41073503  0.22379875  0.20544794  1
  Te  Te109  1  0.40755120  0.23834291  0.57938954  1
  Te  Te110  1  0.44376460  0.21444770  0.94638355  1
  Te  Te111  1  0.41091468  0.58178580  0.24923185  1
  Te  Te112  1  0.42740236  0.59197731  0.58686703  1
  Te  Te113  1  0.38129579  0.57297094  0.91434621  1
  Te  Te114  1  0.45381025  0.93244530  0.23635152  1
  Te  Te115  1  0.42287859  0.91138035  0.59060385  1
  Te  Te116  1  0.43184941  0.95587980  0.91616844  1
  Te  Te117  1  0.73333952  0.23432352  0.24570004  1
  Te  Te118  1  0.75094249  0.25513496  0.58899481  1
  Te  Te119  1  0.72568817  0.26607427  0.93981046  1
  Te  Te120  1  0.73453205  0.57121935  0.23199917  1
  Te  Te121  1  0.75205229  0.59122412  0.60200025  1
  Te  Te122  1  0.72999205  0.59599608  0.93553505  1
  Te  Te123  1  0.73763650  0.90633255  0.22897177  1
  Te  Te124  1  0.73834528  0.93122008  0.60700769  1
  Te  Te125  1  0.73362574  0.91933236  0.91257504  1
  Te  Te126  1  0.28294272  0.26004229  0.07626156  1
  Te  Te127  1  0.23683270  0.25178625  0.40047229  1
  Te  Te128  1  0.27882047  0.22806932  0.77098834  1
  Te  Te129  1  0.28157105  0.60024127  0.05875697  1
  Te  Te130  1  0.26420256  0.58651000  0.41609886  1
  Te  Te131  1  0.28649515  0.55405836  0.78855070  1
  Te  Te132  1  0.27920099  0.96463179  0.07868926  1
  Te  Te133  1  0.25887419  0.94442592  0.37788847  1
  Te  Te134  1  0.26955460  0.92741522  0.73259939  1
  Te  Te135  1  0.54637874  0.26583142  0.05395672  1
  Te  Te136  1  0.54321116  0.21254627  0.37389270  1
  Te  Te137  1  0.57131896  0.23250646  0.74270386  1
  Te  Te138  1  0.57515706  0.58918051  0.08449978  1
  Te  Te139  1  0.57227945  0.61576369  0.42223123  1
  Te  Te140  1  0.56592539  0.59283111  0.78591395  1
  Te  Te141  1  0.53013711  0.88748370  0.11328064  1
  Te  Te142  1  0.58629523  0.92263368  0.41224545  1
  Te  Te143  1  0.54977119  0.89604976  0.80142532  1
  Te  Te144  1  0.93639166  0.22688989  0.10605222  1
  Te  Te145  1  0.92801753  0.23339347  0.41827320  1
  Te  Te146  1  0.91918670  0.24578157  0.76025697  1
  Te  Te147  1  0.90497246  0.60144940  0.09115432  1
  Te  Te148  1  0.94836972  0.58782624  0.41144204  1
  Te  Te149  1  0.91268289  0.58578842  0.75148592  1
  Te  Te150  1  0.92123706  0.90846219  0.08406289  1
  Te  Te151  1  0.93387114  0.94814767  0.39098829  1
  Te  Te152  1  0.89216076  0.93779592  0.75095387  1
  Te  Te153  1  0.24568788  0.02533658  0.24295468  1
  Te  Te154  1  0.26858589  0.06380879  0.58901830  1
  Te  Te155  1  0.28883760  0.09769333  0.88920881  1
  Te  Te156  1  0.25390388  0.41775130  0.24771121  1
  Te  Te157  1  0.25150530  0.39101835  0.59755189  1
  Te  Te158  1  0.29192618  0.39600455  0.93540735  1
  Te  Te159  1  0.24282678  0.77478776  0.24628500  1
  Te  Te160  1  0.25783469  0.74785839  0.59124026  1
  Te  Te161  1  0.24465804  0.76509363  0.91812365  1
  Te  Te162  1  0.55884076  0.06208108  0.21578316  1
  Te  Te163  1  0.58489121  0.08969090  0.58119459  1
  Te  Te164  1  0.55294888  0.06070441  0.95143588  1
  Te  Te165  1  0.57381449  0.41107431  0.23051334  1
  Te  Te166  1  0.58519644  0.42053286  0.56984043  1
  Te  Te167  1  0.58099346  0.41939272  0.89665435  1
  Te  Te168  1  0.56762126  0.77208323  0.24484255  1
  Te  Te169  1  0.55254458  0.76804166  0.60010543  1
  Te  Te170  1  0.54488274  0.78027852  0.90870225  1
  Te  Te171  1  0.93871045  0.06917367  0.24987114  1
  Te  Te172  1  0.93259558  0.09112078  0.58390166  1
  Te  Te173  1  0.90466938  0.06560325  0.91992478  1
  Te  Te174  1  0.90636984  0.40478726  0.26067723  1
  Te  Te175  1  0.93758481  0.44293345  0.56666017  1
  Te  Te176  1  0.90769439  0.41358639  0.90576963  1
  Te  Te177  1  0.91573475  0.74490684  0.24798695  1
  Te  Te178  1  0.92800263  0.76482151  0.56971587  1
  Te  Te179  1  0.91744409  0.73715878  0.93374374  1
