# generated using pymatgen
data_In2Te3
_symmetry_space_group_name_H-M   'P 1'
_cell_length_a   18.92250436
_cell_length_b   18.96765605
_cell_length_c   19.00277204
_cell_angle_alpha   90.15133175
_cell_angle_beta   90.09643487
_cell_angle_gamma   89.97806850
_symmetry_Int_Tables_number   1
_chemical_formula_structural   In2Te3
_chemical_formula_sum   'In72 Te108'
_cell_volume   6820.35652385
_cell_formula_units_Z   36
loop_
 _symmetry_equiv_pos_site_id
 _symmetry_equiv_pos_as_xyz
  1  'x, y, z'
loop_
 _atom_site_type_symbol
 _atom_site_label
 _atom_site_symmetry_multiplicity
 _atom_site_fract_x
 _atom_site_fract_y
 _atom_site_fract_z
 _atom_site_occupancy
  In  In0  1  0.81367803  0.17959856  -0.02255795  1
  In  In1  1  0.82320449  0.49831549  0.65338913  1
  In  In2  1  0.82707698  0.35175215  0.48568386  1
  In  In3  1  0.83233120  0.33722310  0.17096919  1
  In  In4  1  0.34383729  0.50443445  0.48605980  1
  In  In5  1  0.82475842  0.83727062  -0.00569221  1
  In  In6  1  0.81094926  0.63852448  0.81779083  1
  In  In7  1  0.48445410  0.49185632  0.65998597  1
  In  In8  1  0.86588224  0.15938192  0.35117458  1
  In  In9  1  0.49322330  0.33932359  0.49982683  1
  In  In10  1  0.53975437  0.24147757  0.00552882  1
  In  In11  1  0.32138066  0.87858297  0.80347087  1
  In  In12  1  0.15437262  0.67601063  0.84706029  1
  In  In13  1  0.29946274  0.80897484  0.20893150  1
  In  In14  1  0.85411497  0.01118533  0.14315306  1
  In  In15  1  0.65290046  0.00406578  -0.00620867  1
  In  In16  1  0.16577470  0.50057067  0.69080660  1
  In  In17  1  -0.00004954  0.44650466  0.83810078  1
  In  In18  1  0.16832227  0.48248248  0.00592453  1
  In  In19  1  0.85213090  0.85138185  0.66152681  1
  In  In20  1  0.33427449  0.35833626  0.00832553  1
  In  In21  1  0.00320522  0.31923977  0.00005934  1
  In  In22  1  0.17021485  0.84614972  -0.00898553  1
  In  In23  1  0.66017228  0.49893912  0.13409029  1
  In  In24  1  -0.01448402  0.82547763  0.49545857  1
  In  In25  1  0.49338211  0.16428063  0.31253104  1
  In  In26  1  0.68370015  0.01698003  0.66803266  1
  In  In27  1  0.30575656  0.67906805  0.68313071  1
  In  In28  1  0.66263765  0.67422270  0.65595076  1
  In  In29  1  0.48686979  -0.01679307  0.18342706  1
  In  In30  1  -0.01544833  0.01707764  0.00108958  1
  In  In31  1  0.05611757  0.81441981  0.19715757  1
  In  In32  1  0.68523436  0.81064713  0.17066352  1
  In  In33  1  0.65755751  0.34540251  0.29809350  1
  In  In34  1  0.01905380  0.03703564  0.67164239  1
  In  In35  1  0.33456863  -0.00905607  0.00768049  1
  In  In36  1  0.00490156  0.49524235  0.48547664  1
  In  In37  1  0.19452616  0.16505433  0.35327962  1
  In  In38  1  0.17164643  0.00545652  0.51410485  1
  In  In39  1  0.49936750  0.80242023  -0.00580638  1
  In  In40  1  0.34096118  0.81138337  0.47306197  1
  In  In41  1  0.33713743  0.65517994  0.00543307  1
  In  In42  1  0.00681320  0.18530511  0.52085173  1
  In  In43  1  0.18516130  0.66500092  0.49746180  1
  In  In44  1  -0.00945852  0.85098421  0.83922614  1
  In  In45  1  0.65960131  0.47620423  0.85584758  1
  In  In46  1  0.49891538  -0.01799823  0.48562095  1
  In  In47  1  0.01200773  0.62987903  0.31203477  1
  In  In48  1  0.84072672  -0.01096705  0.49842039  1
  In  In49  1  0.58323475  0.79007427  0.45933297  1
  In  In50  1  0.67427957  0.16034701  0.49812377  1
  In  In51  1  0.34305293  0.18076535  0.15316959  1
  In  In52  1  0.47713087  0.64831538  0.83336013  1
  In  In53  1  0.65212802  0.85672554  0.83123757  1
  In  In54  1  0.31163963  0.31893332  0.69291011  1
  In  In55  1  0.49279128  0.61861992  0.18499049  1
  In  In56  1  0.27846130  0.19153729  0.54590784  1
  In  In57  1  0.16643605  0.35267418  0.48178668  1
  In  In58  1  0.81858337  0.83469402  0.34102173  1
  In  In59  1  0.03414352  0.17327206  0.17246908  1
  In  In60  1  -0.00554408  0.68400028  0.67525207  1
  In  In61  1  0.85085112  0.18493906  0.72258997  1
  In  In62  1  0.63719587  0.64313242  0.33360917  1
  In  In63  1  0.49623696  0.31548328  0.81949925  1
  In  In64  1  0.84859633  0.67182263  0.14741234  1
  In  In65  1  0.32482697  0.00007943  0.35981390  1
  In  In66  1  0.48089121  0.04196553  0.82750067  1
  In  In67  1  0.19611267  0.34860170  0.18089588  1
  In  In68  1  0.65564982  0.33031174  0.67239566  1
  In  In69  1  0.14832827  0.15284610  -0.02434038  1
  In  In70  1  0.82964885  0.49278971  0.31647498  1
  In  In71  1  -0.02123989  0.65004084  0.01876795  1
  Te  Te72  1  0.09842070  0.06384643  0.09046708  1
  Te  Te73  1  0.08298083  0.09249438  0.42590800  1
  Te  Te74  1  0.13800111  0.09619183  0.73546052  1
  Te  Te75  1  0.07839138  0.40589416  0.09979820  1
  Te  Te76  1  0.11143884  0.45524536  0.39348316  1
  Te  Te77  1  0.09353510  0.38156226  0.74336167  1
  Te  Te78  1  0.09061266  0.74422816  0.06927192  1
  Te  Te79  1  0.06864201  0.72519143  0.41948574  1
  Te  Te80  1  0.08990328  0.77442331  0.75107170  1
  Te  Te81  1  0.43353644  0.08096902  0.08019919  1
  Te  Te82  1  0.41806632  0.09869284  0.42605856  1
  Te  Te83  1  0.37609113  0.09732701  0.74047552  1
  Te  Te84  1  0.41276904  0.39810290  0.12565237  1
  Te  Te85  1  0.45249339  0.44462122  0.40263244  1
  Te  Te86  1  0.40188219  0.42023904  0.76385114  1
  Te  Te87  1  0.39860952  0.75932963  0.09791094  1
  Te  Te88  1  0.44961810  0.72467866  0.41628753  1
  Te  Te89  1  0.41216086  0.76063324  0.75547163  1
  Te  Te90  1  0.74167439  0.09201069  0.08056338  1
  Te  Te91  1  0.75323868  0.07074148  0.40499426  1
  Te  Te92  1  0.72972342  0.11695430  0.76688346  1
  Te  Te93  1  0.72046869  0.37157627  0.07510432  1
  Te  Te94  1  0.72622245  0.43258816  0.40821617  1
  Te  Te95  1  0.75773134  0.40693905  0.75493664  1
  Te  Te96  1  0.74011625  0.72915455  0.05525425  1
  Te  Te97  1  0.72679236  0.74200116  0.41166670  1
  Te  Te98  1  0.75937046  0.76616627  0.75355064  1
  Te  Te99  1  0.10827778  0.26014140  0.27063634  1
  Te  Te100  1  0.13300052  0.24155522  0.57921200  1
  Te  Te101  1  0.04369292  0.22176426  0.89203693  1
  Te  Te102  1  0.11808728  0.59994326  0.21417510  1
  Te  Te103  1  0.08524327  0.58946342  0.59540772  1
  Te  Te104  1  0.06957663  0.57029568  0.91475988  1
  Te  Te105  1  0.13486596  0.90489913  0.27797709  1
  Te  Te106  1  0.06505291  0.92043512  0.58369370  1
  Te  Te107  1  0.08782065  0.94276424  0.90972295  1
  Te  Te108  1  0.42864594  0.27259306  0.23360313  1
  Te  Te109  1  0.41127693  0.25677132  0.59597030  1
  Te  Te110  1  0.40916419  0.25145589  0.92910194  1
  Te  Te111  1  0.36759878  0.58511698  0.25099577  1
  Te  Te112  1  0.39934689  0.59759957  0.59422041  1
  Te  Te113  1  0.43050844  0.56022407  0.94121855  1
  Te  Te114  1  0.40363534  0.89952728  0.27768229  1
  Te  Te115  1  0.41040879  0.89823405  0.56910973  1
  Te  Te116  1  0.43280522  0.91537177  0.91490540  1
  Te  Te117  1  0.76668041  0.24063073  0.26882551  1
  Te  Te118  1  0.75896813  0.25543024  0.58145288  1
  Te  Te119  1  0.78063574  0.30023864  0.90205969  1
  Te  Te120  1  0.74413433  0.59156427  0.23461846  1
  Te  Te121  1  0.74079598  0.58563742  0.57025059  1
  Te  Te122  1  0.75756139  0.56012210  0.92745493  1
  Te  Te123  1  0.76241801  0.92365336  0.23254162  1
  Te  Te124  1  0.73991127  0.90790748  0.57661530  1
  Te  Te125  1  0.75799279  0.93853533  0.90459234  1
  Te  Te126  1  0.23063027  0.24480879  0.07243360  1
  Te  Te127  1  0.27983552  0.27388238  0.41537613  1
  Te  Te128  1  0.26216535  0.20068541  0.76795527  1
  Te  Te129  1  0.23460877  0.58720142  0.08814353  1
  Te  Te130  1  0.27335170  0.60260180  0.39483477  1
  Te  Te131  1  0.25465120  0.57862396  0.78545471  1
  Te  Te132  1  0.25043907  0.91021973  0.10239191  1
  Te  Te133  1  0.21981566  0.89802397  0.41015547  1
  Te  Te134  1  0.22514915  0.96685127  0.73530323  1
  Te  Te135  1  0.61694547  0.27166710  0.12612224  1
  Te  Te136  1  0.59142199  0.25485156  0.41185679  1
  Te  Te137  1  0.58258961  0.22355370  0.74246951  1
  Te  Te138  1  0.56153598  0.58416087  0.06078570  1
  Te  Te139  1  0.53189508  0.59171635  0.42333572  1
  Te  Te140  1  0.58567165  0.56819492  0.74838435  1
  Te  Te141  1  0.58750398  0.89774228  0.08013247  1
  Te  Te142  1  0.59056574  0.91994889  0.39071894  1
  Te  Te143  1  0.56851454  0.94596366  0.74542401  1
  Te  Te144  1  0.91550954  0.22765806  0.09375116  1
  Te  Te145  1  0.94028285  0.27473796  0.41709524  1
  Te  Te146  1  0.96243079  0.27112938  0.75494918  1
  Te  Te147  1  0.91281589  0.54815817  0.10067517  1
  Te  Te148  1  0.90606109  0.58349331  0.41249010  1
  Te  Te149  1  0.93003454  0.56934258  0.75165504  1
  Te  Te150  1  0.93303625  0.89443195  0.08286844  1
  Te  Te151  1  0.93103031  0.92424807  0.39556428  1
  Te  Te152  1  0.91754563  0.95124569  0.75163628  1
  Te  Te153  1  0.26725934  0.08501781  0.24723411  1
  Te  Te154  1  0.28952388  0.05025618  0.59777374  1
  Te  Te155  1  0.26521989  0.08372711  0.91737519  1
  Te  Te156  1  0.30302232  0.44420134  0.22663299  1
  Te  Te157  1  0.25650428  0.42987214  0.58907430  1
  Te  Te158  1  0.22897024  0.38919207  0.91140002  1
  Te  Te159  1  0.21042859  0.70871850  0.27295416  1
  Te  Te160  1  0.23890112  0.77361450  0.58691181  1
  Te  Te161  1  0.26656715  0.76354775  0.90810334  1
  Te  Te162  1  0.58427127  0.07341016  0.24449776  1
  Te  Te163  1  0.57754539  0.08149276  0.58021700  1
  Te  Te164  1  0.57746769  0.11306295  0.92214962  1
  Te  Te165  1  0.56903663  0.44789479  0.23888607  1
  Te  Te166  1  0.59238119  0.42769825  0.57553506  1
  Te  Te167  1  0.57171104  0.38083806  0.93272402  1
  Te  Te168  1  0.57009309  0.74226174  0.23921064  1
  Te  Te169  1  0.55777836  0.75867080  0.60137465  1
  Te  Te170  1  0.59143319  0.73439430  0.89555117  1
  Te  Te171  1  0.94320268  0.07693555  0.24809464  1
  Te  Te172  1  0.89924665  0.09864576  0.58708055  1
  Te  Te173  1  0.91474636  0.10009923  0.90171937  1
  Te  Te174  1  0.93157526  0.41277242  0.24898162  1
  Te  Te175  1  0.92889983  0.41138372  0.58476315  1
  Te  Te176  1  0.89499163  0.40240714  0.93475227  1
  Te  Te177  1  0.92282213  0.75229148  0.25333173  1
  Te  Te178  1  0.89360919  0.73370616  0.57438975  1
  Te  Te179  1  0.91337501  0.73960501  0.90732701  1
