# generated using pymatgen
data_In2Te3
_symmetry_space_group_name_H-M   'P 1'
_cell_length_a   19.00137804
_cell_length_b   19.00911939
_cell_length_c   18.99258455
_cell_angle_alpha   89.99292268
_cell_angle_beta   90.35430390
_cell_angle_gamma   90.11877754
_symmetry_Int_Tables_number   1
_chemical_formula_structural   In2Te3
_chemical_formula_sum   'In72 Te108'
_cell_volume   6859.96540883
_cell_formula_units_Z   36
loop_
 _symmetry_equiv_pos_site_id
 _symmetry_equiv_pos_as_xyz
  1  'x, y, z'
loop_
 _atom_site_type_symbol
 _atom_site_label
 _atom_site_symmetry_multiplicity
 _atom_site_fract_x
 _atom_site_fract_y
 _atom_site_fract_z
 _atom_site_occupancy
  In  In0  1  0.47454048  0.16291160  0.02769944  1
  In  In1  1  0.49594719  0.84055538  0.67704801  1
  In  In2  1  0.82040334  0.17305649  0.35535351  1
  In  In3  1  0.15350789  0.64808357  0.81653579  1
  In  In4  1  0.84023854  0.16164821  0.00462982  1
  In  In5  1  -0.02487199  0.83764370  0.84699552  1
  In  In6  1  0.15103983  0.81623553  0.01500490  1
  In  In7  1  0.16396243  0.18396996  0.62403396  1
  In  In8  1  0.66173983  0.48159843  0.17083816  1
  In  In9  1  0.84833733  -0.01547866  0.15373645  1
  In  In10  1  0.82519687  0.65491786  0.83813158  1
  In  In11  1  -0.02361810  0.67428195  0.68149849  1
  In  In12  1  0.18632002  0.00929103  0.17610808  1
  In  In13  1  0.32152295  0.84552491  0.18185934  1
  In  In14  1  0.49281257  0.51283469  0.65494767  1
  In  In15  1  0.15856065  0.31897089  0.18862653  1
  In  In16  1  0.29922046  0.64115567  0.35624559  1
  In  In17  1  -0.00339089  0.02375093  0.33729962  1
  In  In18  1  0.32395695  0.16650165  0.49661836  1
  In  In19  1  0.19224952  0.82693665  0.65765378  1
  In  In20  1  -0.01333650  -0.01187855  0.66676474  1
  In  In21  1  0.68103409  0.32858277  0.00905312  1
  In  In22  1  0.35875902  0.34939444  0.33707385  1
  In  In23  1  0.48836398  0.17244123  0.33399026  1
  In  In24  1  0.00317105  0.49829078  0.49936429  1
  In  In25  1  0.01869743  -0.00700239  0.02376757  1
  In  In26  1  0.50063463  0.68541507  0.84866664  1
  In  In27  1  0.50274527  0.33553682  0.50217705  1
  In  In28  1  0.34330910  0.84444660  0.84170078  1
  In  In29  1  0.63384420  0.86117671  0.46040150  1
  In  In30  1  0.17529796  0.32578365  0.86159890  1
  In  In31  1  0.83700457  0.00133941  0.49037239  1
  In  In32  1  0.83125764  0.16154259  0.65165757  1
  In  In33  1  0.49540696  0.67261306  0.17881968  1
  In  In34  1  0.67935767  0.80621699  0.85184821  1
  In  In35  1  0.47969715  0.66235319  0.50150656  1
  In  In36  1  0.65923013  0.16692707  0.19230688  1
  In  In37  1  0.67676934  0.66337343  0.01333535  1
  In  In38  1  -0.01295804  0.33767197  -0.00736035  1
  In  In39  1  0.85186364  0.65711446  0.15544763  1
  In  In40  1  -0.00664633  0.49444789  0.85270041  1
  In  In41  1  0.32701915  0.36726615  0.65746618  1
  In  In42  1  0.66276739  -0.01849979  -0.01182875  1
  In  In43  1  0.54919132  0.33483994  0.82074109  1
  In  In44  1  0.34220519  0.82925087  0.50310120  1
  In  In45  1  0.50469577  0.00357462  0.83496526  1
  In  In46  1  0.17890097  0.00976170  0.80888410  1
  In  In47  1  0.34690199  -0.00454268  0.33942234  1
  In  In48  1  0.65737822  0.64027760  0.36207539  1
  In  In49  1  0.33388420  0.34733771  0.00381844  1
  In  In50  1  0.66633853  0.64880178  0.63736663  1
  In  In51  1  0.21303484  0.13054506  0.01151142  1
  In  In52  1  0.65495454  0.84622339  0.16972267  1
  In  In53  1  0.16667379  0.51474924  -0.00752406  1
  In  In54  1  0.65561515  0.33466146  0.33146404  1
  In  In55  1  0.17171216  0.15206827  0.33882895  1
  In  In56  1  0.67023240  0.01447857  0.65510284  1
  In  In57  1  0.02613987  0.63179642  0.34196546  1
  In  In58  1  -0.00749942  0.50257523  0.17568017  1
  In  In59  1  0.36613080  0.18535291  0.80477050  1
  In  In60  1  -0.02005947  0.15458888  0.84317999  1
  In  In61  1  0.34481331  0.67191351  -0.00754230  1
  In  In62  1  0.00499935  0.82065235  0.51217053  1
  In  In63  1  0.82207448  0.33779615  0.51272208  1
  In  In64  1  0.15970178  0.83571475  0.33550623  1
  In  In65  1  0.85178061  0.49613266  0.33487684  1
  In  In66  1  0.78568556  0.35139097  0.79116350  1
  In  In67  1  0.15646767  0.49783847  0.65316141  1
  In  In68  1  0.34320959  0.51104030  0.14314111  1
  In  In69  1  0.01405774  0.31681191  0.65267656  1
  In  In70  1  0.82063025  0.81264829  0.32128801  1
  In  In71  1  0.66668110  0.15412827  0.80861289  1
  Te  Te72  1  0.08948505  0.09984063  0.10216622  1
  Te  Te73  1  0.09467855  0.07147726  0.43356133  1
  Te  Te74  1  0.07754779  0.09984101  0.74015141  1
  Te  Te75  1  0.09805190  0.40693139  0.07216246  1
  Te  Te76  1  0.09142425  0.48263932  0.37882560  1
  Te  Te77  1  0.08249407  0.40599494  0.76767190  1
  Te  Te78  1  0.04599599  0.76749101  0.09944946  1
  Te  Te79  1  0.09952552  0.73659326  0.43067016  1
  Te  Te80  1  0.08493947  0.76776390  0.75011210  1
  Te  Te81  1  0.35377038  0.08609326  0.05628511  1
  Te  Te82  1  0.42940986  0.07712074  0.43726830  1
  Te  Te83  1  0.43568660  0.07955201  0.72709612  1
  Te  Te84  1  0.43675789  0.43322455  0.06211731  1
  Te  Te85  1  0.42940800  0.44155308  0.42972673  1
  Te  Te86  1  0.43248928  0.41264796  0.75559079  1
  Te  Te87  1  0.41378527  0.76401727  0.09066948  1
  Te  Te88  1  0.40612460  0.74313928  0.39642924  1
  Te  Te89  1  0.40384160  0.74343237  0.74657476  1
  Te  Te90  1  0.74082378  0.08164138  0.08792670  1
  Te  Te91  1  0.73285416  0.08579840  0.43328539  1
  Te  Te92  1  0.77517427  0.06496822  0.75439275  1
  Te  Te93  1  0.76519308  0.41161362  0.09592870  1
  Te  Te94  1  0.74349976  0.42568306  0.41515213  1
  Te  Te95  1  0.71220233  0.43966682  0.69495535  1
  Te  Te96  1  0.75772588  0.76131744  0.09583736  1
  Te  Te97  1  0.73762548  0.74924186  0.42975487  1
  Te  Te98  1  0.74654911  0.73663067  0.73708175  1
  Te  Te99  1  0.07437106  0.24673816  0.28175100  1
  Te  Te100  1  0.09482587  0.27925509  0.53793791  1
  Te  Te101  1  0.08656019  0.22313087  0.92769286  1
  Te  Te102  1  0.10715691  0.57640468  0.23234387  1
  Te  Te103  1  0.07211681  0.60325192  0.58721816  1
  Te  Te104  1  0.06272036  0.60572677  0.92940957  1
  Te  Te105  1  0.08113533  0.93093736  0.24941590  1
  Te  Te106  1  0.09376618  0.91927439  0.58584117  1
  Te  Te107  1  0.09671055  0.92929831  0.90681217  1
  Te  Te108  1  0.44323102  0.27686847  0.23967528  1
  Te  Te109  1  0.40472169  0.25920254  0.58809488  1
  Te  Te110  1  0.43558676  0.26634913  0.91347252  1
  Te  Te111  1  0.40636563  0.58371341  0.26090578  1
  Te  Te112  1  0.38605604  0.59347202  0.59145446  1
  Te  Te113  1  0.43107008  0.57930785  0.92209584  1
  Te  Te114  1  0.43418153  0.90560416  0.25945374  1
  Te  Te115  1  0.44279383  0.91759064  0.56533938  1
  Te  Te116  1  0.43541075  0.91611152  0.92875440  1
  Te  Te117  1  0.75939985  0.26453765  0.24798526  1
  Te  Te118  1  0.73291714  0.25064604  0.59201263  1
  Te  Te119  1  0.75798717  0.23819614  0.90012680  1
  Te  Te120  1  0.75008887  0.58680618  0.25334608  1
  Te  Te121  1  0.75283415  0.54277891  0.58930735  1
  Te  Te122  1  0.72623313  0.57157338  0.90975933  1
  Te  Te123  1  0.75232976  0.93021616  0.25672026  1
  Te  Te124  1  0.73483548  0.91500639  0.56360480  1
  Te  Te125  1  0.76476071  0.89629882  0.93085199  1
  Te  Te126  1  0.25673672  0.25320067  0.09051270  1
  Te  Te127  1  0.25536241  0.26501432  0.40632696  1
  Te  Te128  1  0.24119065  0.25924496  0.74293531  1
  Te  Te129  1  0.24190975  0.60900668  0.08332162  1
  Te  Te130  1  0.22644441  0.53610587  0.43074955  1
  Te  Te131  1  0.24963648  0.56697731  0.74472875  1
  Te  Te132  1  0.24862059  0.91666569  0.06985218  1
  Te  Te133  1  0.24721347  0.92079347  0.42382763  1
  Te  Te134  1  0.27885578  0.92722750  0.73156709  1
  Te  Te135  1  0.58096033  0.25073638  0.09264822  1
  Te  Te136  1  0.58984911  0.23776610  0.42657128  1
  Te  Te137  1  0.58931414  0.23882632  0.71212116  1
  Te  Te138  1  0.57697059  0.58070826  0.09126467  1
  Te  Te139  1  0.55552413  0.55731620  0.42828945  1
  Te  Te140  1  0.57706501  0.59953187  0.74860403  1
  Te  Te141  1  0.57174162  0.94116569  0.09392339  1
  Te  Te142  1  0.56624238  0.93433927  0.35284314  1
  Te  Te143  1  0.60556351  0.91064444  0.75857009  1
  Te  Te144  1  0.92396542  0.24757193  0.08718088  1
  Te  Te145  1  0.91337670  0.25208799  0.43638700  1
  Te  Te146  1  0.91219032  0.25562684  0.75183362  1
  Te  Te147  1  0.90463673  0.55174075  0.06947297  1
  Te  Te148  1  0.90710921  0.59615699  0.43317382  1
  Te  Te149  1  0.90455746  0.56047858  0.74923188  1
  Te  Te150  1  0.94372053  0.88381501  0.09500785  1
  Te  Te151  1  0.92005220  0.90220979  0.40569585  1
  Te  Te152  1  0.89700762  0.89953740  0.73931494  1
  Te  Te153  1  0.28251412  0.09954220  0.25068199  1
  Te  Te154  1  0.26014526  0.08000995  0.59667518  1
  Te  Te155  1  0.28682680  0.08234000  0.88723573  1
  Te  Te156  1  0.26579819  0.41552220  0.23393736  1
  Te  Te157  1  0.24131146  0.42835450  0.55184720  1
  Te  Te158  1  0.26414385  0.44049819  0.90478570  1
  Te  Te159  1  0.24036107  0.74079105  0.25174267  1
  Te  Te160  1  0.26258037  0.72834591  0.57644197  1
  Te  Te161  1  0.23832700  0.75147866  0.90519346  1
  Te  Te162  1  0.57034422  0.07001153  0.26084567  1
  Te  Te163  1  0.56440367  0.10979660  0.62569345  1
  Te  Te164  1  0.57875689  0.10693674  0.92396457  1
  Te  Te165  1  0.55856782  0.40422027  0.24369690  1
  Te  Te166  1  0.59152954  0.42073313  0.59108924  1
  Te  Te167  1  0.62358055  0.42477402  0.91103215  1
  Te  Te168  1  0.59552427  0.74289512  0.26682259  1
  Te  Te169  1  0.57694818  0.76049824  0.56962230  1
  Te  Te170  1  0.57737104  0.76270646  0.95300736  1
  Te  Te171  1  0.90147215  0.09283264  0.24479934  1
  Te  Te172  1  0.93392874  0.09038821  0.56747466  1
  Te  Te173  1  0.91241103  0.05126367  0.92977021  1
  Te  Te174  1  0.93711183  0.40146334  0.26493865  1
  Te  Te175  1  0.91951839  0.42069338  0.59858176  1
  Te  Te176  1  0.88416384  0.40239140  0.90204284  1
  Te  Te177  1  0.93058760  0.72969000  0.26269384  1
  Te  Te178  1  0.89908473  0.75902720  0.59089910  1
  Te  Te179  1  0.90214183  0.74273481  0.92841953  1
