# generated using pymatgen
data_In2Te3
_symmetry_space_group_name_H-M   'P 1'
_cell_length_a   19.04618946
_cell_length_b   19.03075235
_cell_length_c   19.03568353
_cell_angle_alpha   90.35356063
_cell_angle_beta   89.99799525
_cell_angle_gamma   90.17127772
_symmetry_Int_Tables_number   1
_chemical_formula_structural   In2Te3
_chemical_formula_sum   'In72 Te108'
_cell_volume   6899.57476033
_cell_formula_units_Z   36
loop_
 _symmetry_equiv_pos_site_id
 _symmetry_equiv_pos_as_xyz
  1  'x, y, z'
loop_
 _atom_site_type_symbol
 _atom_site_label
 _atom_site_symmetry_multiplicity
 _atom_site_fract_x
 _atom_site_fract_y
 _atom_site_fract_z
 _atom_site_occupancy
  In  In0  1  0.30275068  0.40125211  0.36507115  1
  In  In1  1  0.34199849  0.48948669  0.17888053  1
  In  In2  1  0.36874797  0.64995099  0.00451573  1
  In  In3  1  0.02380959  0.81754282  0.47950307  1
  In  In4  1  0.48452122  0.82931359  0.33638849  1
  In  In5  1  0.62500530  0.02581798  0.61935837  1
  In  In6  1  0.00459195  0.83951128  0.82026884  1
  In  In7  1  0.34423666  0.32868615  0.66691161  1
  In  In8  1  0.19486644  0.33445870  0.84908563  1
  In  In9  1  0.47905151  0.66291889  0.47730323  1
  In  In10  1  0.65678297  0.02859139  0.00905744  1
  In  In11  1  -0.00739534  0.34019166  0.67568591  1
  In  In12  1  0.51402353  0.48946312  0.33949614  1
  In  In13  1  0.79937712  0.30476928  0.84395751  1
  In  In14  1  0.54739309  0.33204290  0.74836002  1
  In  In15  1  0.65742435  0.49166322  0.82699230  1
  In  In16  1  0.80433477  0.01142870  0.20109112  1
  In  In17  1  0.85880236  0.85084806  0.66271915  1
  In  In18  1  0.67594881  0.64610096  0.32608177  1
  In  In19  1  0.33652762  0.34676986  0.02569652  1
  In  In20  1  0.50405591  0.83268040  -0.00226744  1
  In  In21  1  0.00280828  0.83302068  0.17349703  1
  In  In22  1  0.82641125  0.33927987  0.15053601  1
  In  In23  1  0.50163237  0.32462403  0.16854089  1
  In  In24  1  0.87917746  0.64335968  0.16995552  1
  In  In25  1  0.19213479  0.65357066  0.47828118  1
  In  In26  1  0.82657046  0.49436538  -0.00499404  1
  In  In27  1  0.35030568  -0.00168506  0.65174723  1
  In  In28  1  0.82745745  0.82740661  -0.00579624  1
  In  In29  1  -0.00348958  0.49242655  0.51444312  1
  In  In30  1  0.33109762  -0.01143947  0.36111245  1
  In  In31  1  -0.02546098  0.15968129  0.50148633  1
  In  In32  1  -0.02765382  0.30917347  0.34746002  1
  In  In33  1  0.18615003  0.52722096  0.67918490  1
  In  In34  1  0.32833159  0.68538586  0.64304769  1
  In  In35  1  0.79754585  0.02962083  0.50969026  1
  In  In36  1  0.15550147  0.15900529  -0.00041649  1
  In  In37  1  0.85946754  0.67030837  0.84235139  1
  In  In38  1  0.17566072  -0.01164227  0.51805938  1
  In  In39  1  0.67305554  0.81496001  0.15766594  1
  In  In40  1  0.32675558  0.16066704  0.80880173  1
  In  In41  1  0.79885611  0.18427269  0.66049787  1
  In  In42  1  0.12529485  0.68338995  0.23874786  1
  In  In43  1  0.49849130  0.19008099  0.34139935  1
  In  In44  1  0.17005827  0.83881615  -0.00261850  1
  In  In45  1  0.18648970  0.17405610  0.35612765  1
  In  In46  1  0.15857230  0.33072960  0.52228527  1
  In  In47  1  0.51742116  0.30814653  0.51701253  1
  In  In48  1  0.31604693  0.81887976  0.17514719  1
  In  In49  1  0.33565390  0.85756389  0.82520259  1
  In  In50  1  0.34004692  0.15833735  0.19637614  1
  In  In51  1  -0.00879326  0.17049309  0.15748669  1
  In  In52  1  0.33267057  0.02109695  -0.00907764  1
  In  In53  1  0.81956915  0.85978185  0.33612885  1
  In  In54  1  0.64124271  0.84329492  0.48183801  1
  In  In55  1  -0.01168845  -0.01518426  0.00440594  1
  In  In56  1  0.66077466  0.17571617  0.17786906  1
  In  In57  1  0.65180243  0.87157567  0.80993663  1
  In  In58  1  0.49884445  0.17751145  -0.01810064  1
  In  In59  1  0.59328326  0.60891624  -0.00332952  1
  In  In60  1  0.81907790  0.06376070  0.85320231  1
  In  In61  1  0.82531274  0.47346460  0.33179020  1
  In  In62  1  0.15675543  0.34812778  0.16441275  1
  In  In63  1  0.16418350  0.50297930  0.01452473  1
  In  In64  1  0.18684105  0.69718521  0.81609389  1
  In  In65  1  0.84650330  0.65316828  0.49705098  1
  In  In66  1  0.66555868  0.31514587  0.36334986  1
  In  In67  1  0.00198408  -0.01647383  0.33047595  1
  In  In68  1  0.67481185  0.69507353  0.66642191  1
  In  In69  1  0.85463002  0.50536411  0.68572667  1
  In  In70  1  0.51032337  0.68959021  0.81641974  1
  In  In71  1  0.01177209  0.50630413  0.85499387  1
  Te  Te72  1  0.08214989  0.06680005  0.09487396  1
  Te  Te73  1  0.08161054  0.08548538  0.42216809  1
  Te  Te74  1  0.15310679  0.03768796  0.66291929  1
  Te  Te75  1  0.07192746  0.39648980  0.05643096  1
  Te  Te76  1  0.07139991  0.39962793  0.42111687  1
  Te  Te77  1  0.09534359  0.42367289  0.75187532  1
  Te  Te78  1  0.10350595  0.74961425  0.09672005  1
  Te  Te79  1  0.08982262  0.72042020  0.38678263  1
  Te  Te80  1  0.09538114  0.76832342  0.73048052  1
  Te  Te81  1  0.42328668  0.09574300  0.08692610  1
  Te  Te82  1  0.40706484  0.10266972  0.42132201  1
  Te  Te83  1  0.42757424  0.07129608  0.75495472  1
  Te  Te84  1  0.45030303  0.43360338  0.07513278  1
  Te  Te85  1  0.43701040  0.41023414  0.44336503  1
  Te  Te86  1  0.42374505  0.41259879  0.75520265  1
  Te  Te87  1  0.43237991  0.74975330  0.09939831  1
  Te  Te88  1  0.38356472  0.75306923  0.41102710  1
  Te  Te89  1  0.41941542  0.77375720  0.73190669  1
  Te  Te90  1  0.76337804  0.10138581  0.08959559  1
  Te  Te91  1  0.73498326  0.06380332  0.38365646  1
  Te  Te92  1  0.72300712  0.06981701  0.73076814  1
  Te  Te93  1  0.73072945  0.41496746  0.06969895  1
  Te  Te94  1  0.73509153  0.42270641  0.43423094  1
  Te  Te95  1  0.75466671  0.40968509  0.74364862  1
  Te  Te96  1  0.76848794  0.72484627  0.08610753  1
  Te  Te97  1  0.75075791  0.74690631  0.42432248  1
  Te  Te98  1  0.77073684  0.76659895  0.76259183  1
  Te  Te99  1  0.09285262  0.24565301  0.25903710  1
  Te  Te100  1  0.06827005  0.23582753  0.59598128  1
  Te  Te101  1  0.09004142  0.26076930  0.91745902  1
  Te  Te102  1  0.02044450  0.58911755  0.19375538  1
  Te  Te103  1  0.09281334  0.58876714  0.57857308  1
  Te  Te104  1  0.11252933  0.60331018  0.91271636  1
  Te  Te105  1  0.09879522  0.90230926  0.25977520  1
  Te  Te106  1  0.05891257  0.91948291  0.58265137  1
  Te  Te107  1  0.09260506  0.92908690  0.90763072  1
  Te  Te108  1  0.39146683  0.28321066  0.26300251  1
  Te  Te109  1  0.43376840  0.22270618  0.60574243  1
  Te  Te110  1  0.38788876  0.25431426  0.91713759  1
  Te  Te111  1  0.43995995  0.57961674  0.24727650  1
  Te  Te112  1  0.41327614  0.58496718  0.58085232  1
  Te  Te113  1  0.46467501  0.58191463  0.91311227  1
  Te  Te114  1  0.40634106  0.92000956  0.24476921  1
  Te  Te115  1  0.45608621  0.93760829  0.56310520  1
  Te  Te116  1  0.43158594  0.93436526  0.91376071  1
  Te  Te117  1  0.76073592  0.25562423  0.25667043  1
  Te  Te118  1  0.68548858  0.24613045  0.58732735  1
  Te  Te119  1  0.75055727  0.18445171  0.91088119  1
  Te  Te120  1  0.75901001  0.56574455  0.23190031  1
  Te  Te121  1  0.75958382  0.58672686  0.59988188  1
  Te  Te122  1  0.74693339  0.59177442  0.90407203  1
  Te  Te123  1  0.70138040  0.92113812  0.26648627  1
  Te  Te124  1  0.74028511  0.90796860  0.58236137  1
  Te  Te125  1  0.74308733  0.92835649  0.92181368  1
  Te  Te126  1  0.25110829  0.24143376  0.09496414  1
  Te  Te127  1  0.26847224  0.26894579  0.43833060  1
  Te  Te128  1  0.23158311  0.24765073  0.73125342  1
  Te  Te129  1  0.26438219  0.58678825  0.09370690  1
  Te  Te130  1  0.25823168  0.53832902  0.41491584  1
  Te  Te131  1  0.28680710  0.59721300  0.76583608  1
  Te  Te132  1  0.25766488  0.92799623  0.08221731  1
  Te  Te133  1  0.25712904  0.88921895  0.44190877  1
  Te  Te134  1  0.24456981  0.92089086  0.72866152  1
  Te  Te135  1  0.59369986  0.25771875  0.06880418  1
  Te  Te136  1  0.63472318  0.17455085  0.41319826  1
  Te  Te137  1  0.63354090  0.20748629  0.72102333  1
  Te  Te138  1  0.54516104  0.56737603  0.12491994  1
  Te  Te139  1  0.59955607  0.57410364  0.43241472  1
  Te  Te140  1  0.58728346  0.59077186  0.73179611  1
  Te  Te141  1  0.58711713  0.91982820  0.08961672  1
  Te  Te142  1  0.53916027  0.93679899  0.42906831  1
  Te  Te143  1  0.56024755  0.92125562  0.70612454  1
  Te  Te144  1  0.92446396  0.26410596  0.07004875  1
  Te  Te145  1  0.87689130  0.24519605  0.43598789  1
  Te  Te146  1  0.90595286  0.24340648  0.75159605  1
  Te  Te147  1  0.93854700  0.57365056  0.05245980  1
  Te  Te148  1  0.92547511  0.56729949  0.40404355  1
  Te  Te149  1  0.95444076  0.59922229  0.74940994  1
  Te  Te150  1  0.88826647  0.91761164  0.10720718  1
  Te  Te151  1  0.91197943  0.92331954  0.43721578  1
  Te  Te152  1  0.90671340  0.93974196  0.77174795  1
  Te  Te153  1  0.24045601  0.06829760  0.26238467  1
  Te  Te154  1  0.26519987  0.09717345  0.57518774  1
  Te  Te155  1  0.23210351  0.07820608  0.89519111  1
  Te  Te156  1  0.21231281  0.45555732  0.25341707  1
  Te  Te157  1  0.25443120  0.42625382  0.59059335  1
  Te  Te158  1  0.27089889  0.43943605  0.92627882  1
  Te  Te159  1  0.26452985  0.72192239  0.27171993  1
  Te  Te160  1  0.23764715  0.76830864  0.56202355  1
  Te  Te161  1  0.28573221  0.75702934  0.93164340  1
  Te  Te162  1  0.55304287  0.09893750  0.23991842  1
  Te  Te163  1  0.50831690  0.09501459  0.55279098  1
  Te  Te164  1  0.57362175  0.08025789  0.90152534  1
  Te  Te165  1  0.60025710  0.40005842  0.25475775  1
  Te  Te166  1  0.59290186  0.38791102  0.61585210  1
  Te  Te167  1  0.58678255  0.37710148  0.88234389  1
  Te  Te168  1  0.58489945  0.74280265  0.25697882  1
  Te  Te169  1  0.57026113  0.74697451  0.57214781  1
  Te  Te170  1  0.60529843  0.75867668  0.91356184  1
  Te  Te171  1  0.91766180  0.08920128  0.26436013  1
  Te  Te172  1  0.90099595  0.08024113  0.60568750  1
  Te  Te173  1  0.94220990  0.09678680  0.92490072  1
  Te  Te174  1  0.92912857  0.40727471  0.24294007  1
  Te  Te175  1  0.89497937  0.40219368  0.57960213  1
  Te  Te176  1  0.90293746  0.41096410  0.89415658  1
  Te  Te177  1  0.90763229  0.76135288  0.26771630  1
  Te  Te178  1  0.93164435  0.74462224  0.58145624  1
  Te  Te179  1  0.94510481  0.75572076  0.93348687  1
