# generated using pymatgen
data_In2Te3
_symmetry_space_group_name_H-M   'P 1'
_cell_length_a   18.76026554
_cell_length_b   18.75812069
_cell_length_c   18.75890164
_cell_angle_alpha   90.02129880
_cell_angle_beta   90.01632531
_cell_angle_gamma   90.00494447
_symmetry_Int_Tables_number   1
_chemical_formula_structural   In2Te3
_chemical_formula_sum   'In72 Te108'
_cell_volume   6601.39415137
_cell_formula_units_Z   36
loop_
 _symmetry_equiv_pos_site_id
 _symmetry_equiv_pos_as_xyz
  1  'x, y, z'
loop_
 _atom_site_type_symbol
 _atom_site_label
 _atom_site_symmetry_multiplicity
 _atom_site_fract_x
 _atom_site_fract_y
 _atom_site_fract_z
 _atom_site_occupancy
  In  In0  1  0.67473692  0.32707538  0.31803109  1
  In  In1  1  0.32442424  -0.03394491  0.67230499  1
  In  In2  1  0.00212173  0.51762195  0.47459940  1
  In  In3  1  0.80562074  0.66058166  0.17164227  1
  In  In4  1  0.67377595  0.33362666  0.65908697  1
  In  In5  1  0.31689760  -0.00540378  -0.01023602  1
  In  In6  1  0.00853626  0.16608378  0.50608562  1
  In  In7  1  0.83197755  0.33665534  0.50052310  1
  In  In8  1  0.82661915  -0.00432299  0.19522198  1
  In  In9  1  0.65128609  0.52128278  0.49191955  1
  In  In10  1  0.00571851  0.66377777  -0.01779599  1
  In  In11  1  0.00536357  0.84001978  0.50554339  1
  In  In12  1  0.82563120  0.82535166  0.66168306  1
  In  In13  1  0.16499484  0.81921894  0.65504418  1
  In  In14  1  0.31625223  0.48681840  0.52861304  1
  In  In15  1  0.80477279  0.52610631  -0.01790990  1
  In  In16  1  0.00085824  0.34211089  0.33663356  1
  In  In17  1  -0.01178407  0.66850524  0.35038837  1
  In  In18  1  0.67800367  0.16294319  0.82508124  1
  In  In19  1  0.34516562  0.16221797  0.17406284  1
  In  In20  1  0.31648305  0.81543340  0.51813907  1
  In  In21  1  0.67500584  0.15588520  0.19837264  1
  In  In22  1  0.86952519  0.16687657  0.00269072  1
  In  In23  1  0.49591084  0.82487226  0.00197732  1
  In  In24  1  0.81055451  0.81456471  0.35587359  1
  In  In25  1  0.51006833  0.67908289  0.51046360  1
  In  In26  1  0.15953188  0.17003265  -0.02948673  1
  In  In27  1  0.16292952  0.01196438  0.49377538  1
  In  In28  1  -0.00970218  0.67133506  0.66510592  1
  In  In29  1  0.68125994  0.15196462  0.50253123  1
  In  In30  1  0.52064613  0.52736826  0.70189675  1
  In  In31  1  0.47693555  0.34207688  0.48614073  1
  In  In32  1  0.67791715  0.81123955  0.84595867  1
  In  In33  1  0.16557970  0.49956967  0.33161214  1
  In  In34  1  0.85299265  -0.00614916  0.83795922  1
  In  In35  1  0.48539545  0.16551200  0.64715873  1
  In  In36  1  0.01805220  0.49542123  0.83476794  1
  In  In37  1  0.16219681  0.69324187  0.51838173  1
  In  In38  1  0.30670938  0.19305628  0.47457222  1
  In  In39  1  -0.00334282  0.17816016  0.17780091  1
  In  In40  1  0.16221987  0.34800771  0.16868119  1
  In  In41  1  0.66492293  0.50566564  0.18262328  1
  In  In42  1  0.85385131  0.34188877  0.81814826  1
  In  In43  1  0.48383087  0.52524600  -0.01254524  1
  In  In44  1  0.02010409  0.83945205  0.17033176  1
  In  In45  1  0.48760689  0.19533860  -0.01158542  1
  In  In46  1  0.47256900  0.34329118  0.84472023  1
  In  In47  1  0.02294227  0.32301005  0.67340143  1
  In  In48  1  0.35372242  -0.00653963  0.34097623  1
  In  In49  1  0.52824309  -0.03592002  0.47057531  1
  In  In50  1  0.66977331  0.35831046  0.00212066  1
  In  In51  1  0.49992770  -0.03146715  0.81623162  1
  In  In52  1  0.01412648  0.83225433  0.84498488  1
  In  In53  1  0.66468414  -0.02802272  0.69657096  1
  In  In54  1  0.33254202  0.67103438  0.31804503  1
  In  In55  1  0.64656523  -0.00152949  0.01754106  1
  In  In56  1  0.30935847  0.68029806  -0.02057522  1
  In  In57  1  0.18618387  0.67113792  0.15897959  1
  In  In58  1  0.51348052  0.67800413  0.18576647  1
  In  In59  1  0.84748618  0.80535296  0.01733231  1
  In  In60  1  0.01951915  -0.01036667  -0.01728303  1
  In  In61  1  0.31869241  0.51975624  0.81017003  1
  In  In62  1  -0.00084128  0.47599997  0.16215576  1
  In  In63  1  0.81725511  0.50708303  0.65125714  1
  In  In64  1  0.49509298  0.16198719  0.32033769  1
  In  In65  1  0.15224653  0.14888852  0.69552402  1
  In  In66  1  0.17107303  0.32750426  0.83566526  1
  In  In67  1  0.34354814  0.33871571  -0.00733226  1
  In  In68  1  0.50164099  -0.01579740  0.18706807  1
  In  In69  1  0.49375385  0.32813507  0.17361776  1
  In  In70  1  0.17989413  -0.01086770  0.17192060  1
  In  In71  1  0.84529964  0.01231367  0.50008091  1
  Te  Te72  1  0.08635056  0.08440321  0.08506939  1
  Te  Te73  1  0.07174714  0.08143174  0.40026206  1
  Te  Te74  1  0.06265788  0.06805081  0.77724824  1
  Te  Te75  1  0.09272329  0.42308715  0.06175012  1
  Te  Te76  1  0.10124030  0.40573303  0.43587678  1
  Te  Te77  1  0.11517288  0.43340961  0.72956656  1
  Te  Te78  1  0.09437487  0.75717614  0.06767993  1
  Te  Te79  1  0.09305207  0.76617795  0.40355344  1
  Te  Te80  1  0.09392269  0.72670008  0.76303877  1
  Te  Te81  1  0.43184812  0.07592684  0.07893116  1
  Te  Te82  1  0.42776912  0.08860745  0.43912788  1
  Te  Te83  1  0.41331423  0.07275293  0.74599920  1
  Te  Te84  1  0.41679749  0.43004946  0.09001641  1
  Te  Te85  1  0.39343938  0.43720808  0.41223878  1
  Te  Te86  1  0.40710111  0.42130062  0.73328031  1
  Te  Te87  1  0.40698673  0.73602631  0.08633207  1
  Te  Te88  1  0.41463718  0.75667745  0.41805887  1
  Te  Te89  1  0.40022152  0.79810800  0.69150526  1
  Te  Te90  1  0.75678336  0.08845438  0.07696732  1
  Te  Te91  1  0.75084880  0.07200911  0.40022703  1
  Te  Te92  1  0.76910106  0.07707927  0.73868742  1
  Te  Te93  1  0.76468587  0.42547696  0.09768715  1
  Te  Te94  1  0.74530469  0.42449462  0.41368051  1
  Te  Te95  1  0.74091577  0.42663621  0.75957456  1
  Te  Te96  1  0.72922877  0.73564682  0.06882634  1
  Te  Te97  1  0.70133194  0.74979155  0.44167734  1
  Te  Te98  1  0.75713393  0.72565398  0.75036660  1
  Te  Te99  1  0.10917135  0.24686461  0.27301005  1
  Te  Te100  1  0.11624364  0.24672427  0.57988959  1
  Te  Te101  1  0.06483694  0.27320396  0.92344343  1
  Te  Te102  1  0.07386849  0.59234534  0.24584715  1
  Te  Te103  1  0.08563000  0.58065581  0.58624590  1
  Te  Te104  1  0.10873567  0.58389650  0.91256076  1
  Te  Te105  1  0.07796835  0.93467787  0.26635701  1
  Te  Te106  1  0.08078036  0.93430471  0.59772540  1
  Te  Te107  1  0.12338345  0.89732047  0.92686526  1
  Te  Te108  1  0.39599128  0.26809498  0.27473593  1
  Te  Te109  1  0.38768937  0.26556056  0.58420243  1
  Te  Te110  1  0.37874262  0.23000528  0.88765524  1
  Te  Te111  1  0.41811729  0.57831264  0.24134915  1
  Te  Te112  1  0.42869119  0.57704062  0.59161332  1
  Te  Te113  1  0.41519038  0.61365583  0.88367936  1
  Te  Te114  1  0.40877148  0.88946064  0.25131581  1
  Te  Te115  1  0.43605024  0.90528491  0.58214958  1
  Te  Te116  1  0.40042255  0.89099261  0.90185991  1
  Te  Te117  1  0.77707367  0.25020970  0.24530782  1
  Te  Te118  1  0.77004687  0.23428001  0.59679079  1
  Te  Te119  1  0.75428625  0.25380545  0.92158833  1
  Te  Te120  1  0.72725347  0.59931340  0.28085540  1
  Te  Te121  1  0.72384272  0.60852625  0.59131463  1
  Te  Te122  1  0.71497870  0.59840488  0.89062542  1
  Te  Te123  1  0.74193805  0.88175320  0.23962108  1
  Te  Te124  1  0.74280645  0.92009672  0.57575151  1
  Te  Te125  1  0.74778097  0.92364584  0.92525539  1
  Te  Te126  1  0.25553111  0.24228278  0.07953058  1
  Te  Te127  1  0.22416433  0.26885612  0.38102458  1
  Te  Te128  1  0.25445813  0.24345758  0.74649615  1
  Te  Te129  1  0.25257672  0.57548450  0.06902948  1
  Te  Te130  1  0.24324274  0.59743674  0.42916797  1
  Te  Te131  1  0.22729767  0.61477109  0.74413584  1
  Te  Te132  1  0.27232080  0.90256813  0.09591441  1
  Te  Te133  1  0.24957042  0.91096815  0.41965181  1
  Te  Te134  1  0.23099870  0.89697420  0.76836638  1
  Te  Te135  1  0.59425696  0.24604567  0.09109148  1
  Te  Te136  1  0.58601912  0.24652098  0.42402999  1
  Te  Te137  1  0.57384187  0.25038046  0.75035491  1
  Te  Te138  1  0.58729482  0.58894018  0.08071732  1
  Te  Te139  1  0.56459905  0.59523239  0.39791752  1
  Te  Te140  1  0.61600465  0.61896869  0.76939646  1
  Te  Te141  1  0.59184611  0.88883017  0.10490862  1
  Te  Te142  1  0.59935867  0.86507206  0.38449495  1
  Te  Te143  1  0.57167269  0.85808519  0.73922737  1
  Te  Te144  1  0.92565021  0.27241839  0.08865467  1
  Te  Te145  1  0.91133805  0.24232768  0.41242391  1
  Te  Te146  1  0.92039209  0.23821719  0.73822023  1
  Te  Te147  1  0.91600766  0.59061872  0.08238609  1
  Te  Te148  1  0.88488103  0.59249969  0.42480874  1
  Te  Te149  1  0.91284377  0.57365887  0.75328599  1
  Te  Te150  1  0.91430316  0.92991826  0.07754098  1
  Te  Te151  1  0.91624018  0.91275402  0.40529144  1
  Te  Te152  1  0.93048958  0.90633712  0.73954550  1
  Te  Te153  1  0.25446795  0.08520053  0.26796898  1
  Te  Te154  1  0.26509634  0.08130867  0.58301735  1
  Te  Te155  1  0.23969501  0.07373097  0.89196995  1
  Te  Te156  1  0.26041471  0.43305399  0.24031837  1
  Te  Te157  1  0.20912589  0.41302880  0.59497020  1
  Te  Te158  1  0.25108704  0.43160613  0.91682060  1
  Te  Te159  1  0.24479453  0.77099369  0.25125070  1
  Te  Te160  1  0.28906970  0.71004262  0.63431932  1
  Te  Te161  1  0.25217618  0.78743454  0.89223811  1
  Te  Te162  1  0.59885746  0.05492281  0.28277873  1
  Te  Te163  1  0.58980555  0.06680012  0.59311542  1
  Te  Te164  1  0.57664930  0.07905239  0.90619653  1
  Te  Te165  1  0.56712297  0.42257731  0.26768359  1
  Te  Te166  1  0.57201673  0.41834761  0.58502704  1
  Te  Te167  1  0.57907500  0.43406029  0.90599420  1
  Te  Te168  1  0.60746726  0.76277384  0.26463796  1
  Te  Te169  1  0.62634745  0.75136590  0.57332627  1
  Te  Te170  1  0.57214068  0.72981866  0.91405963  1
  Te  Te171  1  0.92135519  0.08431291  0.26486256  1
  Te  Te172  1  0.93170200  0.07891193  0.59943191  1
  Te  Te173  1  0.95444318  0.10010176  0.88892238  1
  Te  Te174  1  0.90887015  0.43800731  0.27196167  1
  Te  Te175  1  0.92954425  0.41804119  0.58674306  1
  Te  Te176  1  0.91182809  0.43016925  0.92752187  1
  Te  Te177  1  0.91375472  0.75524832  0.24356837  1
  Te  Te178  1  0.90360702  0.73966508  0.55950900  1
  Te  Te179  1  0.90303217  0.73729195  0.89427350  1
