# generated using pymatgen
data_In2Te3
_symmetry_space_group_name_H-M   'P 1'
_cell_length_a   18.73393738
_cell_length_b   18.73424671
_cell_length_c   18.73440800
_cell_angle_alpha   90.00139739
_cell_angle_beta   89.96991348
_cell_angle_gamma   89.93912570
_symmetry_Int_Tables_number   1
_chemical_formula_structural   In2Te3
_chemical_formula_sum   'In72 Te108'
_cell_volume   6575.13945599
_cell_formula_units_Z   36
loop_
 _symmetry_equiv_pos_site_id
 _symmetry_equiv_pos_as_xyz
  1  'x, y, z'
loop_
 _atom_site_type_symbol
 _atom_site_label
 _atom_site_symmetry_multiplicity
 _atom_site_fract_x
 _atom_site_fract_y
 _atom_site_fract_z
 _atom_site_occupancy
  In  In0  1  0.50790541  0.15006935  0.31151123  1
  In  In1  1  0.33206862  0.16038953  0.85860153  1
  In  In2  1  0.33374373  0.51511608  0.17362653  1
  In  In3  1  0.14477083  0.49930886  -0.00476667  1
  In  In4  1  0.51562730  0.66153501  0.49401941  1
  In  In5  1  0.12332487  0.48344119  0.36103877  1
  In  In6  1  0.32302417  -0.01966365  0.32182185  1
  In  In7  1  0.51436510  0.00162309  0.15132417  1
  In  In8  1  0.69161331  -0.00632153  0.01344549  1
  In  In9  1  -0.01656216  0.65043012  0.35293708  1
  In  In10  1  0.85863705  0.81846678  0.65123290  1
  In  In11  1  0.34416001  0.01638077  -0.01821390  1
  In  In12  1  0.83917854  0.50751598  0.00045463  1
  In  In13  1  0.68299645  0.50952038  0.19404404  1
  In  In14  1  0.34731484  0.70168730  0.68860385  1
  In  In15  1  0.34746769  0.83740664  0.17080133  1
  In  In16  1  0.52357917  -0.01787552  0.84381624  1
  In  In17  1  0.66276911  0.00136258  0.68321352  1
  In  In18  1  0.34462063  0.51382049  0.84557833  1
  In  In19  1  0.50521937  0.30657912  0.81906759  1
  In  In20  1  0.69310398  0.66487346  0.34597582  1
  In  In21  1  -0.02240868  0.00177845  0.33922640  1
  In  In22  1  0.51403179  -0.02520946  0.48955724  1
  In  In23  1  0.34379597  0.32215698  0.34498800  1
  In  In24  1  0.14460056  0.30220748  0.82036200  1
  In  In25  1  0.31292577  0.16823633  0.49208726  1
  In  In26  1  0.16847711  0.81176199  0.35457154  1
  In  In27  1  0.53191993  0.68598474  0.17325906  1
  In  In28  1  0.33928441  0.67396681  0.32851505  1
  In  In29  1  0.16774760  0.00496557  0.17550954  1
  In  In30  1  0.48506915  0.51504639  -0.01359106  1
  In  In31  1  -0.02429199  0.50792835  0.81523974  1
  In  In32  1  0.32412082  -0.02155313  0.66352065  1
  In  In33  1  0.84763383  0.17777495  0.33968148  1
  In  In34  1  0.69833877  0.68811188  0.01752650  1
  In  In35  1  0.17355183  0.32356139  0.16975279  1
  In  In36  1  0.32314150  0.48497076  0.51297035  1
  In  In37  1  0.67575444  0.53171373  0.83351654  1
  In  In38  1  0.50841595  0.35029054  0.51176774  1
  In  In39  1  -0.00024632  0.14809636  0.85295517  1
  In  In40  1  -0.01339213  -0.01728077  0.00419495  1
  In  In41  1  0.70118803  0.34908663  0.36028657  1
  In  In42  1  0.13643049  0.17350287  0.67856638  1
  In  In43  1  0.15137695  0.67118954  0.82690494  1
  In  In44  1  0.53258540  0.51044072  0.65166847  1
  In  In45  1  0.66310273  0.82261548  0.49399146  1
  In  In46  1  0.82349697  0.33959601  0.84762413  1
  In  In47  1  0.14876628  0.52791873  0.62861892  1
  In  In48  1  0.31451317  0.36984897  0.65396224  1
  In  In49  1  0.13293480  0.86267119  0.65093199  1
  In  In50  1  0.33089760  0.64126059  -0.01954722  1
  In  In51  1  0.50694695  0.17481480  0.68250473  1
  In  In52  1  0.82944315  0.52331427  0.64179390  1
  In  In53  1  0.84816618  0.00812929  0.49534297  1
  In  In54  1  -0.01835800  0.81977154  0.17772446  1
  In  In55  1  0.50096973  0.84875126  -0.01077603  1
  In  In56  1  -0.00084529  0.33583847  0.65866516  1
  In  In57  1  0.82765400  0.15808493  0.65534317  1
  In  In58  1  -0.02010675  0.51289801  0.17454555  1
  In  In59  1  0.32776195  0.82649761  0.49419770  1
  In  In60  1  0.66484849  0.16178768  0.83321348  1
  In  In61  1  0.13896414  0.14520081  0.33688343  1
  In  In62  1  0.13614573  0.65935596  0.49418846  1
  In  In63  1  0.69251632  0.17203640  0.48738168  1
  In  In64  1  -0.03488902  0.81205451  0.84241960  1
  In  In65  1  0.14465293  0.82315985  0.00315911  1
  In  In66  1  0.31891529  0.31813252  0.00681808  1
  In  In67  1  0.53022452  0.32676150  0.16777954  1
  In  In68  1  -0.00998494  0.16677542  0.16688475  1
  In  In69  1  0.85428337  0.33083574  0.18173191  1
  In  In70  1  0.69815029  0.83398941  0.82781277  1
  In  In71  1  0.65992444  0.32040022  -0.00231574  1
  Te  Te72  1  0.08096845  0.08081250  0.07743819  1
  Te  Te73  1  0.06954954  0.06315954  0.44438771  1
  Te  Te74  1  0.07386008  0.06461085  0.75524745  1
  Te  Te75  1  0.07078383  0.41333637  0.09710874  1
  Te  Te76  1  0.01159708  0.40422101  0.41992156  1
  Te  Te77  1  0.09373569  0.42927807  0.75027073  1
  Te  Te78  1  0.06970645  0.73410258  0.09299623  1
  Te  Te79  1  0.04472371  0.77318051  0.43733381  1
  Te  Te80  1  0.06420450  0.74986978  0.73257313  1
  Te  Te81  1  0.40801847  0.08754770  0.09369375  1
  Te  Te82  1  0.41494045  0.07731526  0.42037755  1
  Te  Te83  1  0.42217699  0.07178916  0.75671665  1
  Te  Te84  1  0.41758497  0.41768380  0.08678731  1
  Te  Te85  1  0.42574967  0.43282783  0.41146843  1
  Te  Te86  1  0.43201587  0.42240817  0.74759575  1
  Te  Te87  1  0.41605120  0.73843250  0.07456844  1
  Te  Te88  1  0.43581102  0.76193223  0.40668012  1
  Te  Te89  1  0.42672604  0.78321852  0.77810650  1
  Te  Te90  1  0.75298946  0.06517938  0.13015608  1
  Te  Te91  1  0.74765468  0.06844562  0.39346963  1
  Te  Te92  1  0.76859771  0.07021077  0.76703918  1
  Te  Te93  1  0.74593746  0.41763257  0.08494133  1
  Te  Te94  1  0.76986165  0.46538652  0.42305557  1
  Te  Te95  1  0.75618971  0.43276781  0.74838763  1
  Te  Te96  1  0.76688019  0.77753606  0.11615094  1
  Te  Te97  1  0.78233492  0.75358761  0.43308888  1
  Te  Te98  1  0.75981650  0.73803999  0.73050986  1
  Te  Te99  1  0.06815430  0.25775713  0.26149897  1
  Te  Te100  1  0.06611848  0.23990087  0.56542828  1
  Te  Te101  1  0.07630395  0.24579300  0.93676755  1
  Te  Te102  1  0.08768417  0.58901115  0.25767878  1
  Te  Te103  1  0.02413899  0.59021678  0.57135420  1
  Te  Te104  1  0.05583053  0.59745946  0.91963338  1
  Te  Te105  1  0.08393781  0.90992711  0.25983318  1
  Te  Te106  1  0.06602706  0.94396147  0.54817232  1
  Te  Te107  1  0.07383481  0.90990674  0.90126954  1
  Te  Te108  1  0.41526108  0.24605409  0.23393170  1
  Te  Te109  1  0.41191283  0.25123730  0.58149591  1
  Te  Te110  1  0.43537620  0.24252736  0.93814359  1
  Te  Te111  1  0.44167359  0.58796236  0.25342952  1
  Te  Te112  1  0.40568622  0.59006187  0.58965265  1
  Te  Te113  1  0.44959054  0.62018228  0.88116358  1
  Te  Te114  1  0.44351338  0.91125927  0.26139505  1
  Te  Te115  1  0.42845834  0.89425678  0.58791193  1
  Te  Te116  1  0.39445491  0.90088130  0.89106550  1
  Te  Te117  1  0.74313637  0.25255410  0.25135165  1
  Te  Te118  1  0.77135505  0.26506102  0.56920601  1
  Te  Te119  1  0.76331013  0.22758066  0.93302100  1
  Te  Te120  1  0.78516290  0.60715392  0.23761022  1
  Te  Te121  1  0.74982770  0.59571438  0.53498699  1
  Te  Te122  1  0.78508276  0.61942522  0.90323016  1
  Te  Te123  1  0.76551621  0.91533630  0.18731519  1
  Te  Te124  1  0.74937059  0.92451933  0.58453466  1
  Te  Te125  1  0.77958014  0.91788343  0.91950342  1
  Te  Te126  1  0.23564571  0.22232732  0.08096551  1
  Te  Te127  1  0.22173462  0.25854964  0.41031938  1
  Te  Te128  1  0.27214935  0.25220163  0.74626556  1
  Te  Te129  1  0.23218760  0.58823687  0.08555662  1
  Te  Te130  1  0.24914365  0.58383540  0.41403609  1
  Te  Te131  1  0.24867927  0.58036784  0.74369631  1
  Te  Te132  1  0.25178423  0.91653861  0.08088469  1
  Te  Te133  1  0.23247366  0.92939712  0.43267637  1
  Te  Te134  1  0.23410524  0.90310473  0.75201899  1
  Te  Te135  1  0.59514552  0.22228248  0.08717923  1
  Te  Te136  1  0.57498197  0.24762129  0.41060373  1
  Te  Te137  1  0.62207882  0.26529053  0.72798396  1
  Te  Te138  1  0.59635068  0.57700178  0.07421745  1
  Te  Te139  1  0.60116519  0.56846416  0.41656315  1
  Te  Te140  1  0.60365181  0.61463819  0.73100215  1
  Te  Te141  1  0.60237423  0.88972526  0.09418713  1
  Te  Te142  1  0.61170978  0.92123211  0.39344094  1
  Te  Te143  1  0.57749594  0.88797301  0.73684763  1
  Te  Te144  1  0.90847227  0.24810048  0.07268233  1
  Te  Te145  1  0.94004328  0.26272468  0.41648364  1
  Te  Te146  1  0.91368806  0.25281492  0.75693330  1
  Te  Te147  1  0.91662278  0.61098579  0.07782740  1
  Te  Te148  1  0.87188246  0.58565676  0.43700276  1
  Te  Te149  1  0.90191436  0.61196367  0.73921803  1
  Te  Te150  1  0.88828678  0.89434447  0.08236547  1
  Te  Te151  1  0.88539927  0.89983538  0.39849108  1
  Te  Te152  1  0.91912746  0.91507957  0.74622804  1
  Te  Te153  1  0.25949356  0.10037637  0.25228006  1
  Te  Te154  1  0.23841302  0.08562208  0.59513959  1
  Te  Te155  1  0.22615173  0.07377668  0.91216810  1
  Te  Te156  1  0.24838713  0.42339692  0.26230346  1
  Te  Te157  1  0.20015526  0.40237677  0.55624865  1
  Te  Te158  1  0.24402204  0.41268984  0.91169970  1
  Te  Te159  1  0.24142835  0.74659736  0.23591972  1
  Te  Te160  1  0.23480348  0.74304750  0.58246684  1
  Te  Te161  1  0.24883007  0.75116316  0.91225497  1
  Te  Te162  1  0.61448002  0.07706098  0.23598835  1
  Te  Te163  1  0.58605196  0.08807024  0.57883074  1
  Te  Te164  1  0.58585276  0.08207464  0.93816725  1
  Te  Te165  1  0.58864848  0.41949212  0.27220765  1
  Te  Te166  1  0.62136852  0.42065876  0.57439634  1
  Te  Te167  1  0.58651476  0.42103404  0.90595404  1
  Te  Te168  1  0.61169487  0.76391354  0.26857269  1
  Te  Te169  1  0.59156440  0.73913604  0.59534065  1
  Te  Te170  1  0.60103998  0.75498263  0.91940722  1
  Te  Te171  1  0.89300457  0.06739556  0.22984890  1
  Te  Te172  1  0.93779359  0.08325773  0.58810272  1
  Te  Te173  1  0.89537791  0.07531034  0.93119477  1
  Te  Te174  1  0.91626750  0.42486242  0.27972579  1
  Te  Te175  1  0.91145805  0.41808934  0.56967837  1
  Te  Te176  1  0.93313572  0.41066747  0.92713803  1
  Te  Te177  1  0.89206997  0.73496098  0.26482231  1
  Te  Te178  1  0.94986460  0.73185014  0.57045868  1
  Te  Te179  1  0.90366080  0.71951559  0.94130011  1
