# generated using pymatgen
data_In2Te3
_symmetry_space_group_name_H-M   'P 1'
_cell_length_a   18.86663966
_cell_length_b   18.86656015
_cell_length_c   18.86688377
_cell_angle_alpha   90.05769391
_cell_angle_beta   89.98338324
_cell_angle_gamma   90.09185333
_symmetry_Int_Tables_number   1
_chemical_formula_structural   In2Te3
_chemical_formula_sum   'In72 Te108'
_cell_volume   6715.62840047
_cell_formula_units_Z   36
loop_
 _symmetry_equiv_pos_site_id
 _symmetry_equiv_pos_as_xyz
  1  'x, y, z'
loop_
 _atom_site_type_symbol
 _atom_site_label
 _atom_site_symmetry_multiplicity
 _atom_site_fract_x
 _atom_site_fract_y
 _atom_site_fract_z
 _atom_site_occupancy
  In  In0  1  0.79803111  0.51956596  -0.01574331  1
  In  In1  1  0.33187544  0.67384642  0.65508359  1
  In  In2  1  0.49415481  0.86889461  0.65687556  1
  In  In3  1  0.66830935  0.02684547  0.34099386  1
  In  In4  1  0.49047758  0.47324691  0.31022449  1
  In  In5  1  0.65161628  0.33666278  0.03181440  1
  In  In6  1  0.49201497  0.82964117  0.31791618  1
  In  In7  1  0.51594152  0.51039448  0.64521652  1
  In  In8  1  0.01394252  0.32833959  0.32555837  1
  In  In9  1  0.18247220  0.34974725  0.82662466  1
  In  In10  1  -0.00669020  0.17957741  0.47595823  1
  In  In11  1  0.48046339  0.15013836  0.65200494  1
  In  In12  1  0.34135134  0.84502055  0.16252490  1
  In  In13  1  0.19303528  0.81446866  0.00805600  1
  In  In14  1  0.83207798  0.33848327  0.84078394  1
  In  In15  1  0.82098345  0.81517749  0.32443669  1
  In  In16  1  0.17348910  0.48752718  0.02043481  1
  In  In17  1  0.84906038  -0.01838608  0.85975664  1
  In  In18  1  0.17253934  0.02848047  0.17281828  1
  In  In19  1  0.17652528  -0.02443616  0.49457762  1
  In  In20  1  0.33860895  0.30962876  0.64875237  1
  In  In21  1  0.32788870  0.82849908  0.83351844  1
  In  In22  1  0.83787616  0.81366315  0.66071281  1
  In  In23  1  0.48931058  -0.01794236  0.84085678  1
  In  In24  1  0.32084148  0.65477240  0.34487520  1
  In  In25  1  0.51154272  0.01162662  0.18561653  1
  In  In26  1  0.16812510  0.83240042  0.64603005  1
  In  In27  1  0.62590780  0.00593562  0.68198450  1
  In  In28  1  -0.01424347  0.15213485  0.85370855  1
  In  In29  1  0.47820442  0.02914977  0.47516613  1
  In  In30  1  0.19317082  0.17393486  0.01844887  1
  In  In31  1  0.01034816  0.64991452  -0.00141509  1
  In  In32  1  -0.04473302  0.34920582  0.63395926  1
  In  In33  1  0.65037288  0.21948522  0.47694040  1
  In  In34  1  0.51757173  0.68399121  0.86570645  1
  In  In35  1  0.48915936  0.19725289  0.02586653  1
  In  In36  1  -0.01288462  0.17800124  0.19545526  1
  In  In37  1  -0.00496487  -0.01641050  -0.00480038  1
  In  In38  1  0.65802352  0.00553507  0.02729165  1
  In  In39  1  -0.00652564  0.51396339  0.82761900  1
  In  In40  1  0.15548293  0.50134023  0.65493904  1
  In  In41  1  0.83576550  0.82120567  0.00957625  1
  In  In42  1  -0.00417759  0.81506587  0.79985898  1
  In  In43  1  0.35278825  0.50251362  0.83359792  1
  In  In44  1  0.18416491  0.00153698  0.85535383  1
  In  In45  1  0.68073150  0.83171262  0.49329004  1
  In  In46  1  0.16430365  0.65442222  0.16058468  1
  In  In47  1  0.00682686  0.66514010  0.63251981  1
  In  In48  1  0.01644290  0.67765647  0.35194161  1
  In  In49  1  0.67255065  0.48432108  0.47712785  1
  In  In50  1  0.66408244  0.36175719  0.66049278  1
  In  In51  1  0.00814204  0.00687606  0.33891561  1
  In  In52  1  0.00004259  0.51084775  0.17488633  1
  In  In53  1  0.81775481  0.00050335  0.48584811  1
  In  In54  1  0.84150104  0.49696778  0.64376578  1
  In  In55  1  0.50637222  0.33402773  0.84609784  1
  In  In56  1  0.66625112  0.50062025  0.18838087  1
  In  In57  1  0.50130713  0.65573024  0.49582746  1
  In  In58  1  0.04543443  0.01287747  0.65028952  1
  In  In59  1  0.50321104  0.68301048  0.15940532  1
  In  In60  1  0.00436661  0.31830621  0.02375645  1
  In  In61  1  0.48415676  0.46885027  0.02695540  1
  In  In62  1  0.19563045  0.16670311  0.63359563  1
  In  In63  1  0.66666724  0.82907180  0.16199548  1
  In  In64  1  -0.01936541  0.85154293  0.18495580  1
  In  In65  1  0.31859418  0.34061417  0.32609845  1
  In  In66  1  0.80570778  0.15753218  0.65322586  1
  In  In67  1  0.66894299  0.66828148  0.69050546  1
  In  In68  1  0.33919155  0.17317725  0.18289400  1
  In  In69  1  0.16756462  0.31487422  0.47889644  1
  In  In70  1  0.82696131  0.50741814  0.33101248  1
  In  In71  1  0.66342250  0.18027094  0.84462604  1
  Te  Te72  1  0.07057097  0.09042735  0.07516208  1
  Te  Te73  1  0.10252213  0.09192194  0.42205383  1
  Te  Te74  1  0.09851364  0.09842523  0.76396995  1
  Te  Te75  1  0.09106180  0.40206348  0.11586674  1
  Te  Te76  1  0.11219196  0.41814407  0.39200860  1
  Te  Te77  1  0.06341727  0.40471845  0.74461587  1
  Te  Te78  1  0.06938226  0.76387538  0.08546220  1
  Te  Te79  1  0.11705858  0.77331264  0.41101974  1
  Te  Te80  1  0.10112493  0.72832183  0.73622504  1
  Te  Te81  1  0.41569308  0.07944584  0.08824989  1
  Te  Te82  1  0.37389801  0.10449010  0.40154828  1
  Te  Te83  1  0.41101960  0.06888706  0.75146645  1
  Te  Te84  1  0.40886563  0.38110965  0.12245168  1
  Te  Te85  1  0.38656485  0.44207589  0.40983353  1
  Te  Te86  1  0.42400352  0.40984481  0.73288624  1
  Te  Te87  1  0.41594694  0.75932071  0.06710203  1
  Te  Te88  1  0.41188125  0.75439863  0.42241912  1
  Te  Te89  1  0.43117446  0.74448981  0.74736792  1
  Te  Te90  1  0.71458937  0.10325199  0.12658635  1
  Te  Te91  1  0.75678122  0.12356778  0.41926083  1
  Te  Te92  1  0.74674867  0.07509305  0.76869169  1
  Te  Te93  1  0.76064305  0.42227992  0.09452760  1
  Te  Te94  1  0.74028201  0.39307691  0.38043444  1
  Te  Te95  1  0.75283182  0.43772822  0.75852533  1
  Te  Te96  1  0.74535489  0.72806968  0.08442334  1
  Te  Te97  1  0.75419976  0.72728197  0.42251500  1
  Te  Te98  1  0.75877575  0.75596345  0.77020024  1
  Te  Te99  1  0.10684531  0.23404527  0.25854753  1
  Te  Te100  1  0.07466702  0.25100799  0.59459860  1
  Te  Te101  1  0.09164329  0.25338124  0.91609949  1
  Te  Te102  1  0.09959014  0.57385899  0.27136997  1
  Te  Te103  1  0.08970505  0.57569207  0.54431542  1
  Te  Te104  1  0.10621657  0.57347624  0.90925728  1
  Te  Te105  1  0.09800882  0.91879469  0.25187389  1
  Te  Te106  1  0.05728146  0.89317826  0.56142162  1
  Te  Te107  1  0.08156359  0.89766614  0.90355817  1
  Te  Te108  1  0.43362480  0.25952845  0.26507788  1
  Te  Te109  1  0.42432361  0.24029613  0.54964207  1
  Te  Te110  1  0.40802751  0.25230736  0.91627928  1
  Te  Te111  1  0.41533031  0.58981952  0.24211150  1
  Te  Te112  1  0.39926618  0.56717482  0.56779349  1
  Te  Te113  1  0.42665090  0.58466247  0.93736262  1
  Te  Te114  1  0.40220657  0.93903775  0.26663523  1
  Te  Te115  1  0.40274727  0.92855747  0.55845428  1
  Te  Te116  1  0.41681300  0.89293933  0.93307401  1
  Te  Te117  1  0.79123527  0.19712836  0.21845029  1
  Te  Te118  1  0.75924707  0.27831421  0.57543162  1
  Te  Te119  1  0.75185191  0.25598913  0.93997301  1
  Te  Te120  1  0.74906142  0.60464362  0.25178659  1
  Te  Te121  1  0.73207376  0.58308303  0.58072257  1
  Te  Te122  1  0.73473615  0.62218365  0.90030724  1
  Te  Te123  1  0.74155050  0.92548232  0.25388170  1
  Te  Te124  1  0.74303493  0.92814759  0.59963755  1
  Te  Te125  1  0.73739621  0.91112483  0.93283343  1
  Te  Te126  1  0.26714436  0.27661136  0.09901962  1
  Te  Te127  1  0.28460443  0.22987974  0.43459418  1
  Te  Te128  1  0.25821164  0.23732648  0.75550975  1
  Te  Te129  1  0.26652686  0.58211218  0.08443525  1
  Te  Te130  1  0.22259424  0.61682535  0.45112258  1
  Te  Te131  1  0.25354833  0.57700110  0.74489990  1
  Te  Te132  1  0.24983090  0.93575943  0.07644651  1
  Te  Te133  1  0.22630348  0.87876126  0.39735473  1
  Te  Te134  1  0.24861372  0.91990574  0.74172003  1
  Te  Te135  1  0.59956340  0.22885780  0.12054366  1
  Te  Te136  1  0.55203970  0.25535608  0.37115790  1
  Te  Te137  1  0.58576398  0.24845560  0.73251231  1
  Te  Te138  1  0.57985901  0.57160571  0.08549713  1
  Te  Te139  1  0.57753064  0.57195235  0.39738524  1
  Te  Te140  1  0.57422426  0.57654181  0.76726594  1
  Te  Te141  1  0.55998589  0.90445870  0.08604951  1
  Te  Te142  1  0.57961605  0.91813878  0.41869556  1
  Te  Te143  1  0.59179573  0.89014679  0.77378651  1
  Te  Te144  1  0.89527985  0.25660199  0.10488934  1
  Te  Te145  1  0.90333691  0.26848514  0.40553052  1
  Te  Te146  1  0.90433541  0.23640243  0.75191273  1
  Te  Te147  1  0.90337655  0.58156818  0.08011843  1
  Te  Te148  1  0.92267745  0.58190359  0.41996053  1
  Te  Te149  1  0.91110901  0.59786756  0.73596763  1
  Te  Te150  1  0.89090303  0.93550828  0.09764652  1
  Te  Te151  1  0.90966485  0.90999896  0.40767182  1
  Te  Te152  1  0.93195196  0.94004428  0.74007758  1
  Te  Te153  1  0.26105641  0.08617308  0.27789228  1
  Te  Te154  1  0.27095986  0.05171211  0.58289736  1
  Te  Te155  1  0.27460639  0.09007366  0.92939616  1
  Te  Te156  1  0.28819118  0.42310779  0.20249283  1
  Te  Te157  1  0.24485406  0.40519086  0.57766471  1
  Te  Te158  1  0.27476586  0.41195200  0.92872296  1
  Te  Te159  1  0.25305653  0.74892209  0.24186081  1
  Te  Te160  1  0.24104349  0.73725768  0.55203553  1
  Te  Te161  1  0.24706216  0.72766583  0.90466820  1
  Te  Te162  1  0.56627834  0.11670612  0.27933209  1
  Te  Te163  1  0.60023383  0.09343090  0.55922711  1
  Te  Te164  1  0.57242057  0.08921976  0.92492915  1
  Te  Te165  1  0.61077435  0.38787200  0.27164675  1
  Te  Te166  1  0.56528687  0.40218161  0.55074022  1
  Te  Te167  1  0.59534195  0.42680584  0.92275904  1
  Te  Te168  1  0.59945744  0.73834318  0.26626416  1
  Te  Te169  1  0.58017140  0.75299330  0.58777557  1
  Te  Te170  1  0.62745431  0.71194146  0.96414797  1
  Te  Te171  1  0.89829784  0.08179387  0.26820174  1
  Te  Te172  1  0.91863028  0.08362838  0.57955455  1
  Te  Te173  1  0.88963022  0.09400261  0.95417991  1
  Te  Te174  1  0.91175617  0.41187064  0.24582254  1
  Te  Te175  1  0.92331490  0.44777595  0.52881270  1
  Te  Te176  1  0.92844607  0.42123394  0.93168090  1
  Te  Te177  1  0.91785426  0.72806597  0.24392466  1
  Te  Te178  1  0.90986494  0.74540341  0.55415973  1
  Te  Te179  1  0.92291172  0.74073873  0.91197516  1
