# generated using pymatgen
data_In2Te3
_symmetry_space_group_name_H-M   'P 1'
_cell_length_a   18.83524725
_cell_length_b   18.85608508
_cell_length_c   18.83448102
_cell_angle_alpha   89.86257232
_cell_angle_beta   90.08573826
_cell_angle_gamma   90.02300992
_symmetry_Int_Tables_number   1
_chemical_formula_structural   In2Te3
_chemical_formula_sum   'In72 Te108'
_cell_volume   6689.20864747
_cell_formula_units_Z   36
loop_
 _symmetry_equiv_pos_site_id
 _symmetry_equiv_pos_as_xyz
  1  'x, y, z'
loop_
 _atom_site_type_symbol
 _atom_site_label
 _atom_site_symmetry_multiplicity
 _atom_site_fract_x
 _atom_site_fract_y
 _atom_site_fract_z
 _atom_site_occupancy
  In  In0  1  0.84730043  0.84549567  -0.02946834  1
  In  In1  1  0.16565320  0.82934864  0.33962248  1
  In  In2  1  0.50930222  0.82187777  0.00682085  1
  In  In3  1  0.66913537  0.33120685  0.33383639  1
  In  In4  1  0.67176304  0.19584649  0.54447913  1
  In  In5  1  -0.00086780  0.03311778  0.00636532  1
  In  In6  1  0.85566818  0.46916712  0.64234243  1
  In  In7  1  0.67366381  0.46675641  0.84854754  1
  In  In8  1  0.02068184  0.81242715  0.81901907  1
  In  In9  1  0.68611364  0.21194818  0.82385136  1
  In  In10  1  0.01230411  0.64156218  -0.02001329  1
  In  In11  1  0.64905474  0.64578078  0.68949615  1
  In  In12  1  0.33591330  -0.01610512  0.32707691  1
  In  In13  1  -0.00563987  0.49504949  0.82887217  1
  In  In14  1  0.33874106  0.34761185  0.69050823  1
  In  In15  1  0.15646748  0.02780568  0.15416657  1
  In  In16  1  0.16510365  0.64983312  0.16299883  1
  In  In17  1  0.63284885  0.84268039  0.48576480  1
  In  In18  1  0.65345013  0.68305182  0.36801602  1
  In  In19  1  0.33744598  0.32455453  0.36101052  1
  In  In20  1  0.83722983  0.16122798  0.32251141  1
  In  In21  1  0.50537738  0.83990911  0.35366690  1
  In  In22  1  0.85933325  0.65133909  0.48872641  1
  In  In23  1  0.67756431  0.03250208  -0.00679788  1
  In  In24  1  0.01081354  0.00358917  0.64054089  1
  In  In25  1  0.82738945  0.48740348  0.34133049  1
  In  In26  1  0.03204989  0.84962122  0.16854757  1
  In  In27  1  0.82117195  0.82066107  0.67491742  1
  In  In28  1  0.82808566  0.01145208  0.49589980  1
  In  In29  1  0.47745548  0.64626901  0.54132180  1
  In  In30  1  0.34125991  0.17454323  0.11694210  1
  In  In31  1  0.01056777  0.47133579  0.17805632  1
  In  In32  1  0.01177233  0.84145090  0.49475989  1
  In  In33  1  0.18223093  -0.01241875  0.82054459  1
  In  In34  1  0.31673436  0.15127794  0.49500177  1
  In  In35  1  0.61777393  0.83111290  0.82337137  1
  In  In36  1  0.33595442  0.49857493  0.17650214  1
  In  In37  1  0.83838281  0.84585117  0.31261740  1
  In  In38  1  0.18004007  0.31504663  0.15226784  1
  In  In39  1  0.49893041  0.00467329  0.83439903  1
  In  In40  1  0.02528569  0.65133360  0.68976112  1
  In  In41  1  0.81443627  0.65543439  0.13931220  1
  In  In42  1  0.20661170  0.67772247  0.55371617  1
  In  In43  1  0.31896378  0.01554329  -0.00970762  1
  In  In44  1  0.82718017  0.44849846  0.00448172  1
  In  In45  1  -0.01988579  0.19211390  0.80319800  1
  In  In46  1  0.83976806  0.01585720  0.83278288  1
  In  In47  1  0.52203395  0.32392407  0.15342876  1
  In  In48  1  0.64819838  -0.00528543  0.69068315  1
  In  In49  1  0.69491157  0.84781356  0.16036386  1
  In  In50  1  0.50417571  0.01367046  0.20861497  1
  In  In51  1  0.16176979  0.51190449  0.35643020  1
  In  In52  1  0.00067310  0.33614132  0.34320602  1
  In  In53  1  0.64584949  0.64960831  -0.03777058  1
  In  In54  1  0.48523106  0.49737636  -0.03551110  1
  In  In55  1  0.31209224  0.66730686  0.33640071  1
  In  In56  1  0.16783243  0.00567928  0.51245061  1
  In  In57  1  0.66654447  0.48904237  0.17285233  1
  In  In58  1  0.48293150  0.36132856  0.52281193  1
  In  In59  1  0.81950772  0.01622509  0.16840602  1
  In  In60  1  0.48528783  0.68043164  0.16014395  1
  In  In61  1  0.19003414  0.85594709  -0.01958310  1
  In  In62  1  0.50532527  0.16946390  0.68779771  1
  In  In63  1  0.17167982  0.32987769  0.82909305  1
  In  In64  1  0.00990123  0.19329064  0.52592939  1
  In  In65  1  0.16442379  0.17175457  0.33059246  1
  In  In66  1  0.34133504  0.81113310  0.81036785  1
  In  In67  1  0.49459494  0.17084638  0.33263569  1
  In  In68  1  0.19220563  0.50183299  0.67489536  1
  In  In69  1  -0.04347246  0.67317005  0.36243668  1
  In  In70  1  0.18077448  0.48268681  -0.01746144  1
  In  In71  1  0.65670205  0.48537445  0.52013299  1
  Te  Te72  1  0.09013597  0.12943274  0.07070215  1
  Te  Te73  1  0.07604163  0.09423508  0.42856757  1
  Te  Te74  1  0.07312886  0.08033446  0.75500347  1
  Te  Te75  1  0.08343526  0.39942676  0.06581451  1
  Te  Te76  1  0.10074304  0.40013494  0.43111269  1
  Te  Te77  1  0.08064546  0.41274749  0.73381692  1
  Te  Te78  1  0.08657386  0.74647739  0.06598929  1
  Te  Te79  1  0.09355671  0.72965617  0.42927146  1
  Te  Te80  1  0.12662720  0.74428114  0.74436615  1
  Te  Te81  1  0.43773305  0.06351437  0.08105493  1
  Te  Te82  1  0.42114589  0.06919794  0.42133048  1
  Te  Te83  1  0.40380620  0.09515585  0.76605789  1
  Te  Te84  1  0.42345936  0.42014403  0.08193447  1
  Te  Te85  1  0.40682374  0.43810426  0.42184346  1
  Te  Te86  1  0.44516592  0.44375276  0.73673150  1
  Te  Te87  1  0.39829570  0.73840873  0.05755461  1
  Te  Te88  1  0.41843787  0.73760632  0.42554704  1
  Te  Te89  1  0.40351978  0.71020234  0.71472751  1
  Te  Te90  1  0.75485576  0.11900964  0.08307144  1
  Te  Te91  1  0.73533119  0.11277877  0.43285488  1
  Te  Te92  1  0.74929774  0.09557178  0.74074886  1
  Te  Te93  1  0.72660956  0.38070408  0.09384612  1
  Te  Te94  1  0.75465084  0.39860378  0.44106415  1
  Te  Te95  1  0.76633719  0.40452250  0.74527053  1
  Te  Te96  1  0.73253083  0.75359735  0.04263795  1
  Te  Te97  1  0.76715446  0.76903760  0.42770382  1
  Te  Te98  1  0.73465934  0.74271196  0.77256770  1
  Te  Te99  1  0.07060501  0.24845110  0.23826111  1
  Te  Te100  1  0.07709813  0.26958617  0.63349998  1
  Te  Te101  1  0.06680257  0.25544894  0.90446546  1
  Te  Te102  1  0.06284722  0.59181759  0.25965815  1
  Te  Te103  1  0.09103432  0.57681232  0.57894918  1
  Te  Te104  1  0.11202383  0.57887022  0.88517822  1
  Te  Te105  1  0.09180602  0.94327936  0.27042640  1
  Te  Te106  1  0.10773413  0.89347348  0.60026867  1
  Te  Te107  1  0.06345750  0.92211281  0.92302254  1
  Te  Te108  1  0.40204565  0.26126074  0.23836183  1
  Te  Te109  1  0.41060882  0.24046114  0.58178054  1
  Te  Te110  1  0.40774875  0.22886844  0.98663591  1
  Te  Te111  1  0.42225075  0.58841633  0.26365703  1
  Te  Te112  1  0.40177411  0.54829768  0.63007884  1
  Te  Te113  1  0.37172421  0.54755509  0.88257900  1
  Te  Te114  1  0.41808251  0.89088592  0.23809495  1
  Te  Te115  1  0.39714572  0.87593533  0.52033535  1
  Te  Te116  1  0.41208283  0.91161630  0.92101755  1
  Te  Te117  1  0.73755266  0.23930019  0.24109001  1
  Te  Te118  1  0.76142715  0.28550997  0.62272691  1
  Te  Te119  1  0.79070039  0.25007671  0.92406015  1
  Te  Te120  1  0.74226424  0.59266139  0.27202997  1
  Te  Te121  1  0.74909042  0.59054570  0.58467486  1
  Te  Te122  1  0.76470133  0.56644792  0.92176847  1
  Te  Te123  1  0.73044321  0.94548920  0.27196847  1
  Te  Te124  1  0.74212711  0.91871010  0.58739429  1
  Te  Te125  1  0.72897664  0.92082141  0.89415466  1
  Te  Te126  1  0.26043574  0.27042056  0.03252960  1
  Te  Te127  1  0.22364595  0.26046048  0.43946688  1
  Te  Te128  1  0.26928516  0.23838610  0.76357448  1
  Te  Te129  1  0.26161053  0.58045796  0.07056364  1
  Te  Te130  1  0.26319598  0.57857836  0.44938038  1
  Te  Te131  1  0.29049931  0.60013344  0.73341727  1
  Te  Te132  1  0.25380635  0.92491818  0.09889094  1
  Te  Te133  1  0.26207247  0.90059394  0.43599591  1
  Te  Te134  1  0.28271874  0.92430746  0.73376168  1
  Te  Te135  1  0.55715069  0.25092842  0.02836539  1
  Te  Te136  1  0.57113446  0.25830116  0.43301511  1
  Te  Te137  1  0.57243458  0.28342322  0.75587549  1
  Te  Te138  1  0.57879654  0.57839895  0.08020941  1
  Te  Te139  1  0.56886913  0.57606595  0.43407193  1
  Te  Te140  1  0.57130139  0.55005052  0.77232521  1
  Te  Te141  1  0.59373223  0.92875890  0.07860978  1
  Te  Te142  1  0.58464511  0.95451523  0.40232376  1
  Te  Te143  1  0.53027130  0.90298226  0.72085621  1
  Te  Te144  1  0.88055950  0.30763355  0.03888447  1
  Te  Te145  1  0.90627373  0.24991616  0.42545277  1
  Te  Te146  1  0.88881999  0.27348866  0.71466049  1
  Te  Te147  1  0.92709798  0.56319330  0.07973900  1
  Te  Te148  1  0.93922337  0.53373024  0.43311199  1
  Te  Te149  1  0.90128634  0.57920836  0.74009243  1
  Te  Te150  1  0.91545562  0.91826497  0.08656853  1
  Te  Te151  1  0.92384642  0.93120946  0.40841604  1
  Te  Te152  1  0.91930895  0.91588963  0.74692090  1
  Te  Te153  1  0.26821000  0.09761084  0.24659139  1
  Te  Te154  1  0.24256110  0.08979656  0.60644394  1
  Te  Te155  1  0.23216278  0.09745177  0.90490270  1
  Te  Te156  1  0.23492776  0.41522001  0.25510347  1
  Te  Te157  1  0.26072130  0.41052679  0.58155510  1
  Te  Te158  1  0.28226782  0.42039863  0.88979104  1
  Te  Te159  1  0.24792936  0.75810141  0.23205826  1
  Te  Te160  1  0.31320804  0.77971776  0.60048354  1
  Te  Te161  1  0.24832862  0.74543587  0.90529900  1
  Te  Te162  1  0.59574080  0.12664369  0.23246334  1
  Te  Te163  1  0.57785785  0.08093323  0.58617842  1
  Te  Te164  1  0.59004793  0.10997664  0.89615106  1
  Te  Te165  1  0.56636466  0.42108219  0.26559912  1
  Te  Te166  1  0.58928148  0.39892279  0.62085118  1
  Te  Te167  1  0.58490195  0.38593643  0.93985150  1
  Te  Te168  1  0.59985459  0.75409395  0.23952460  1
  Te  Te169  1  0.58250529  0.74695724  0.59242011  1
  Te  Te170  1  0.53377889  0.72234781  0.89018114  1
  Te  Te171  1  0.92982212  0.08618617  0.23621094  1
  Te  Te172  1  0.90293745  0.09814638  0.59453976  1
  Te  Te173  1  0.89666609  0.11591702  0.92959053  1
  Te  Te174  1  0.89512734  0.39599767  0.24246154  1
  Te  Te175  1  0.95581338  0.36307502  0.59834233  1
  Te  Te176  1  0.92108338  0.38558870  0.90246973  1
  Te  Te177  1  0.92069018  0.75179195  0.22564922  1
  Te  Te178  1  0.92921743  0.75089126  0.59224752  1
  Te  Te179  1  0.91853309  0.73015464  0.89729743  1
