# generated using pymatgen
data_In2Te3
_symmetry_space_group_name_H-M   'P 1'
_cell_length_a   18.74690884
_cell_length_b   18.76375767
_cell_length_c   18.75893445
_cell_angle_alpha   90.05635634
_cell_angle_beta   89.99847359
_cell_angle_gamma   90.05277666
_symmetry_Int_Tables_number   1
_chemical_formula_structural   In2Te3
_chemical_formula_sum   'In72 Te108'
_cell_volume   6598.68283324
_cell_formula_units_Z   36
loop_
 _symmetry_equiv_pos_site_id
 _symmetry_equiv_pos_as_xyz
  1  'x, y, z'
loop_
 _atom_site_type_symbol
 _atom_site_label
 _atom_site_symmetry_multiplicity
 _atom_site_fract_x
 _atom_site_fract_y
 _atom_site_fract_z
 _atom_site_occupancy
  In  In0  1  0.52047312  0.02798978  0.49716012  1
  In  In1  1  0.52183540  0.49936234  0.33945603  1
  In  In2  1  -0.00808347  0.49611356  0.48280736  1
  In  In3  1  -0.02273253  -0.00885743  0.33234757  1
  In  In4  1  0.65977003  0.65145055  0.00107245  1
  In  In5  1  0.82240862  0.33685920  0.16573101  1
  In  In6  1  0.84272408  0.65866009  0.49652294  1
  In  In7  1  -0.02161013  0.13557519  0.86030882  1
  In  In8  1  0.31987430  0.68570741  0.01234270  1
  In  In9  1  0.33716179  0.67753258  0.33035179  1
  In  In10  1  0.84496136  0.82911944  0.35070049  1
  In  In11  1  -0.01227626  0.35112985  0.64980136  1
  In  In12  1  0.84470761  0.00699631  0.16718681  1
  In  In13  1  0.15288449  -0.02427370  0.48704494  1
  In  In14  1  0.33668356  0.00253906  0.66322615  1
  In  In15  1  0.33453336  0.66991202  0.66107853  1
  In  In16  1  0.12426358  0.12962827  0.02817610  1
  In  In17  1  0.00172099  0.82986350  0.50479631  1
  In  In18  1  0.13845457  0.33175636  0.80403735  1
  In  In19  1  0.66973558  0.68947464  0.63197656  1
  In  In20  1  0.49530059  0.84483202  0.33357624  1
  In  In21  1  0.17194070  0.52383523  -0.00434143  1
  In  In22  1  0.35595408  0.49660072  0.50537891  1
  In  In23  1  0.13775873  0.17136723  0.67060648  1
  In  In24  1  0.54137653  0.50957239  -0.00197121  1
  In  In25  1  0.50376657  0.15858760  0.34056206  1
  In  In26  1  0.51982730  0.36628792  0.84524846  1
  In  In27  1  0.16250679  0.00892248  0.83404572  1
  In  In28  1  0.16276491  0.32700701  0.50907571  1
  In  In29  1  0.14598397  0.68876697  0.83797014  1
  In  In30  1  -0.01018422  0.85267565  0.82010254  1
  In  In31  1  0.81317282  0.85665623  0.65382724  1
  In  In32  1  0.67967701  0.02161429  0.34633078  1
  In  In33  1  0.69377044  0.16057291  0.18347841  1
  In  In34  1  0.48668247  0.68601067  0.84500286  1
  In  In35  1  0.68599636  0.15942606  0.83544603  1
  In  In36  1  0.52107346  0.14982852  0.63713501  1
  In  In37  1  0.32791141  0.83479624  0.17108588  1
  In  In38  1  0.31962148  0.15404792  0.18313850  1
  In  In39  1  -0.01410448  0.83792059  0.16962421  1
  In  In40  1  -0.00509997  0.48954125  0.18615266  1
  In  In41  1  0.68215867  0.65830984  0.33945625  1
  In  In42  1  0.33723818  0.15622802  0.48142690  1
  In  In43  1  0.82532057  0.64756339  0.18285821  1
  In  In44  1  0.34370239  0.15005109  0.80321674  1
  In  In45  1  0.33129220  0.32645465  -0.00097707  1
  In  In46  1  0.33507186  0.81133982  0.82087877  1
  In  In47  1  -0.02136372  0.32637912  0.00340194  1
  In  In48  1  0.32811830  0.49761876  0.15556371  1
  In  In49  1  0.33107485  0.83844574  0.49018401  1
  In  In50  1  0.84702916  0.64520295  0.80318810  1
  In  In51  1  -0.01582795  0.67664758  0.02921823  1
  In  In52  1  0.52028010  0.33832380  0.19368471  1
  In  In53  1  0.14709199  0.32451699  0.19022029  1
  In  In54  1  0.67070959  0.33159789  0.66136290  1
  In  In55  1  0.49329254  0.84902409  0.01837003  1
  In  In56  1  0.82766903  0.32546774  0.83836028  1
  In  In57  1  0.15024553  0.49857765  0.33064274  1
  In  In58  1  0.34749652  0.49498461  0.81832977  1
  In  In59  1  0.32873581  -0.00742069  0.00433385  1
  In  In60  1  0.14693620  0.49678440  0.64997760  1
  In  In61  1  0.15064065  0.15538796  0.32456726  1
  In  In62  1  0.67781674  0.17027074  0.49514062  1
  In  In63  1  0.85395664  0.14385075  0.64737248  1
  In  In64  1  0.83833008  0.85287748  0.00852831  1
  In  In65  1  0.64463596  0.84300080  0.16318527  1
  In  In66  1  0.15230076  0.67948552  0.49423929  1
  In  In67  1  0.51835358  0.16047026  -0.00297410  1
  In  In68  1  0.52361153  0.48765070  0.66064652  1
  In  In69  1  0.51290846  0.33240298  0.50494848  1
  In  In70  1  0.66825958  0.87530982  0.81896712  1
  In  In71  1  0.67751407  0.49576373  0.83805193  1
  Te  Te72  1  0.05565327  0.04805176  0.13039898  1
  Te  Te73  1  0.06137282  0.08631127  0.43080186  1
  Te  Te74  1  0.05377020  0.06838507  0.74297346  1
  Te  Te75  1  0.09316559  0.41810791  0.07796622  1
  Te  Te76  1  0.07148655  0.39047250  0.40400080  1
  Te  Te77  1  0.04694581  0.44968127  0.76358943  1
  Te  Te78  1  0.08546084  0.76814134  0.08354670  1
  Te  Te79  1  0.08031774  0.76390096  0.39757672  1
  Te  Te80  1  0.07476002  0.76478118  0.73440657  1
  Te  Te81  1  0.41837625  0.08497930  0.08755347  1
  Te  Te82  1  0.40566386  0.05348717  0.39493589  1
  Te  Te83  1  0.45672578  0.05902287  0.75224264  1
  Te  Te84  1  0.43192165  0.41067173  0.07814274  1
  Te  Te85  1  0.41917979  0.40202883  0.40584525  1
  Te  Te86  1  0.42075935  0.39662580  0.72962384  1
  Te  Te87  1  0.43331455  0.73589005  0.09858901  1
  Te  Te88  1  0.43297039  0.74075227  0.42992658  1
  Te  Te89  1  0.44730830  0.76971425  0.71823766  1
  Te  Te90  1  0.76030512  0.08580998  0.07109020  1
  Te  Te91  1  0.78417968  0.09494035  0.42149392  1
  Te  Te92  1  0.77374178  0.07010842  0.75006061  1
  Te  Te93  1  0.73795220  0.40771084  0.06837620  1
  Te  Te94  1  0.77384069  0.37154863  0.39550632  1
  Te  Te95  1  0.76560341  0.42532539  0.73668253  1
  Te  Te96  1  0.75573309  0.75287176  0.09271305  1
  Te  Te97  1  0.74184411  0.76033680  0.43801542  1
  Te  Te98  1  0.73816260  0.74785773  0.75791811  1
  Te  Te99  1  0.04750824  0.22857113  0.24274197  1
  Te  Te100  1  0.05014029  0.24021712  0.56517629  1
  Te  Te101  1  0.08624762  0.24063120  0.91467719  1
  Te  Te102  1  0.08010855  0.59519659  0.24496510  1
  Te  Te103  1  0.05824458  0.60030058  0.58590363  1
  Te  Te104  1  0.05999521  0.59341160  0.92058334  1
  Te  Te105  1  0.08232808  0.93205395  0.24221732  1
  Te  Te106  1  0.08345708  0.91104167  0.59976697  1
  Te  Te107  1  0.07660900  0.92350893  0.91884221  1
  Te  Te108  1  0.41193499  0.25047858  0.25875788  1
  Te  Te109  1  0.41352696  0.24341568  0.58139614  1
  Te  Te110  1  0.42315910  0.24998806  0.90315388  1
  Te  Te111  1  0.41887341  0.57676606  0.25027178  1
  Te  Te112  1  0.44277670  0.59360461  0.58308976  1
  Te  Te113  1  0.40629630  0.58011519  0.93303327  1
  Te  Te114  1  0.42783111  0.92654994  0.23147117  1
  Te  Te115  1  0.42908775  0.92614197  0.57051146  1
  Te  Te116  1  0.41491123  0.91409100  0.90517418  1
  Te  Te117  1  0.75443647  0.25383136  0.28744318  1
  Te  Te118  1  0.77390734  0.25654426  0.57896602  1
  Te  Te119  1  0.77086346  0.22880429  0.93730613  1
  Te  Te120  1  0.74996180  0.54737216  0.26397947  1
  Te  Te121  1  0.75451012  0.57836179  0.58728496  1
  Te  Te122  1  0.77100005  0.58077574  0.92369057  1
  Te  Te123  1  0.75699737  0.90939736  0.25169863  1
  Te  Te124  1  0.72593222  0.92906997  0.56107653  1
  Te  Te125  1  0.76963069  0.94447837  0.90935577  1
  Te  Te126  1  0.23655525  0.24399808  0.08625442  1
  Te  Te127  1  0.24498756  0.24944899  0.40504446  1
  Te  Te128  1  0.25026070  0.25350187  0.73491795  1
  Te  Te129  1  0.23127423  0.60703064  0.10982497  1
  Te  Te130  1  0.24980937  0.57589215  0.42813334  1
  Te  Te131  1  0.24188709  0.58715946  0.75427393  1
  Te  Te132  1  0.23468699  0.91513378  0.08587419  1
  Te  Te133  1  0.24936842  0.91497094  0.39315809  1
  Te  Te134  1  0.24561438  0.91329533  0.74683145  1
  Te  Te135  1  0.59570985  0.24538628  0.09857774  1
  Te  Te136  1  0.59862416  0.26202024  0.40011589  1
  Te  Te137  1  0.57939917  0.24804618  0.75008861  1
  Te  Te138  1  0.59891626  0.57883604  0.11479965  1
  Te  Te139  1  0.59769920  0.58171219  0.43612437  1
  Te  Te140  1  0.57691386  0.58606468  0.76626508  1
  Te  Te141  1  0.59918100  0.94235241  0.06422893  1
  Te  Te142  1  0.59977230  0.91477033  0.42226583  1
  Te  Te143  1  0.56433481  0.94161066  0.74140929  1
  Te  Te144  1  0.91385530  0.23632527  0.09989180  1
  Te  Te145  1  0.88494993  0.28021477  0.39053051  1
  Te  Te146  1  0.92695171  0.24415515  0.75239085  1
  Te  Te147  1  0.90307446  0.55872475  0.08539331  1
  Te  Te148  1  0.91558942  0.58442825  0.39060720  1
  Te  Te149  1  0.94244682  0.56395445  0.72883617  1
  Te  Te150  1  0.95075126  0.94972225  0.06143425  1
  Te  Te151  1  0.89621866  0.93369625  0.45183345  1
  Te  Te152  1  0.89435170  0.94288843  0.74619848  1
  Te  Te153  1  0.22975303  0.05569857  0.24655514  1
  Te  Te154  1  0.23874334  0.08891210  0.58072954  1
  Te  Te155  1  0.25298504  0.10235452  0.91879203  1
  Te  Te156  1  0.25437633  0.41099147  0.25787644  1
  Te  Te157  1  0.26003979  0.41220259  0.59213560  1
  Te  Te158  1  0.24357246  0.41332629  0.90731165  1
  Te  Te159  1  0.23697553  0.76168548  0.26499510  1
  Te  Te160  1  0.23942906  0.76397947  0.58876740  1
  Te  Te161  1  0.23163962  0.77708131  0.92966170  1
  Te  Te162  1  0.58104913  0.07254022  0.24109092  1
  Te  Te163  1  0.64063885  0.05321529  0.60078109  1
  Te  Te164  1  0.59405023  0.06736174  0.91108004  1
  Te  Te165  1  0.62283330  0.43144467  0.24945758  1
  Te  Te166  1  0.61967228  0.42987211  0.55510966  1
  Te  Te167  1  0.63509203  0.39049109  0.95060575  1
  Te  Te168  1  0.58109939  0.74195674  0.25648293  1
  Te  Te169  1  0.54883943  0.76244304  0.59873950  1
  Te  Te170  1  0.59530991  0.76618804  0.92061313  1
  Te  Te171  1  0.91571936  0.10502753  0.25620749  1
  Te  Te172  1  0.93259316  0.07441121  0.54429051  1
  Te  Te173  1  0.86972240  0.06959984  0.93737528  1
  Te  Te174  1  0.90805096  0.40424452  0.27546049  1
  Te  Te175  1  0.89098388  0.42463155  0.56641299  1
  Te  Te176  1  0.91023181  0.42248614  0.91661850  1
  Te  Te177  1  0.92425033  0.73287632  0.26286762  1
  Te  Te178  1  0.90978833  0.75160998  0.59959567  1
  Te  Te179  1  0.90413251  0.75114999  0.91302803  1
