# generated using pymatgen
data_In2Te3
_symmetry_space_group_name_H-M   'P 1'
_cell_length_a   18.78348433
_cell_length_b   18.78439749
_cell_length_c   18.78199505
_cell_angle_alpha   90.03640375
_cell_angle_beta   90.00034193
_cell_angle_gamma   90.07210663
_symmetry_Int_Tables_number   1
_chemical_formula_structural   In2Te3
_chemical_formula_sum   'In72 Te108'
_cell_volume   6626.96560902
_cell_formula_units_Z   36
loop_
 _symmetry_equiv_pos_site_id
 _symmetry_equiv_pos_as_xyz
  1  'x, y, z'
loop_
 _atom_site_type_symbol
 _atom_site_label
 _atom_site_symmetry_multiplicity
 _atom_site_fract_x
 _atom_site_fract_y
 _atom_site_fract_z
 _atom_site_occupancy
  In  In0  1  0.16054037  0.02301811  0.80162751  1
  In  In1  1  0.84392957  0.65901286  0.48893273  1
  In  In2  1  0.35773835  0.51896676  0.52879582  1
  In  In3  1  0.18082711  0.82954144  0.00901517  1
  In  In4  1  0.66833723  0.84170026  0.14788201  1
  In  In5  1  0.64992654  0.47998683  0.48906539  1
  In  In6  1  -0.00382152  0.34855890  0.32224815  1
  In  In7  1  0.66683386  0.21800490  0.17329417  1
  In  In8  1  0.65539802  0.48200674  0.84115923  1
  In  In9  1  0.49728462  0.33824578  0.82544734  1
  In  In10  1  0.16307828  0.18555698  -0.01375176  1
  In  In11  1  0.67330165  0.83295991  0.82062605  1
  In  In12  1  0.19280969  0.83867022  0.65540306  1
  In  In13  1  0.00114069  0.65366081  0.36224700  1
  In  In14  1  0.66524339  0.45732005  0.18929637  1
  In  In15  1  0.80714360  0.01109531  0.15304697  1
  In  In16  1  0.66195432  0.00258906  0.66350824  1
  In  In17  1  0.38143828  -0.01445844  -0.03510348  1
  In  In18  1  -0.02068825  0.31820834  0.67801999  1
  In  In19  1  0.16934033  0.67799202  0.50514173  1
  In  In20  1  0.81659587  0.49726067  0.01149002  1
  In  In21  1  -0.02993428  0.48398019  0.16513939  1
  In  In22  1  0.51633336  0.16904541  0.66242673  1
  In  In23  1  0.66778278  0.32109304  0.66410977  1
  In  In24  1  -0.00580142  0.01388339  0.67111442  1
  In  In25  1  -0.01363170  0.16588186  0.52058096  1
  In  In26  1  0.00673444  0.82766322  0.19170648  1
  In  In27  1  0.66656430  0.68253759  0.68162649  1
  In  In28  1  0.67943275  0.66961763  -0.00480856  1
  In  In29  1  0.15344147  0.00443477  0.17166607  1
  In  In30  1  0.50609746  0.15793936  0.34458433  1
  In  In31  1  0.82444998  0.49582322  0.66527029  1
  In  In32  1  0.52372008  0.49002403  -0.02515573  1
  In  In33  1  0.35043493  0.66363769  0.31775642  1
  In  In34  1  0.35555520  0.17884290  0.17971282  1
  In  In35  1  0.83290225  0.82617774  -0.00389843  1
  In  In36  1  -0.02891782  0.00223298  -0.02711999  1
  In  In37  1  0.84704267  0.82601553  0.35203490  1
  In  In38  1  0.32968450  0.34046031  0.67296150  1
  In  In39  1  0.35148337  -0.01685296  0.64265604  1
  In  In40  1  -0.00760925  0.33156228  0.00469154  1
  In  In41  1  0.00382202  0.67803821  0.64773763  1
  In  In42  1  0.18230616  0.64637522  0.82910382  1
  In  In43  1  -0.00212535  0.50350963  0.83243256  1
  In  In44  1  0.15973315  0.47227058  -0.01894950  1
  In  In45  1  0.84101658  0.03108081  0.83950267  1
  In  In46  1  0.34678813  0.49802381  0.17330201  1
  In  In47  1  0.51117065  0.81777096  0.35365006  1
  In  In48  1  0.51464851  0.31905359  0.49516920  1
  In  In49  1  0.16635590  0.51002103  0.66082852  1
  In  In50  1  0.48137419  0.68397234  0.80560619  1
  In  In51  1  0.82227578  0.33003042  0.50338255  1
  In  In52  1  0.17216599  -0.00355188  0.50423879  1
  In  In53  1  0.34349285  0.67047447  -0.00369005  1
  In  In54  1  0.64761989  0.04520898  -0.02368836  1
  In  In55  1  0.69761186  0.02085892  0.37157990  1
  In  In56  1  -0.02782698  0.16835972  0.16754380  1
  In  In57  1  0.14947355  0.15698281  0.67561817  1
  In  In58  1  0.50526453  0.00749819  0.17210123  1
  In  In59  1  0.33116205  0.81051729  0.16796290  1
  In  In60  1  0.15755253  0.67509380  0.16499847  1
  In  In61  1  0.16850577  0.47914810  0.33877993  1
  In  In62  1  0.16265965  0.18717393  0.34309951  1
  In  In63  1  0.65370820  0.84487029  0.51831756  1
  In  In64  1  0.33670997  0.16539849  0.81883156  1
  In  In65  1  0.66441042  0.62983733  0.33217165  1
  In  In66  1  -0.02833238  0.00035664  0.31976433  1
  In  In67  1  -0.00438512  0.83833049  0.83981501  1
  In  In68  1  0.32710203  0.34964311  -0.00374150  1
  In  In69  1  0.34489449  0.31909637  0.34304824  1
  In  In70  1  0.47921078  0.65995825  0.15218907  1
  In  In71  1  0.33496214  -0.00458699  0.36467586  1
  Te  Te72  1  0.07107041  0.08801938  0.07455164  1
  Te  Te73  1  0.07604238  0.08210983  0.41584725  1
  Te  Te74  1  0.04104336  0.11415085  0.77705497  1
  Te  Te75  1  0.08856247  0.40902133  0.09712961  1
  Te  Te76  1  0.08558496  0.39857421  0.42910972  1
  Te  Te77  1  0.08356967  0.41385100  0.74565962  1
  Te  Te78  1  0.06478407  0.75166921  0.07117178  1
  Te  Te79  1  0.07282669  0.76187924  0.43183912  1
  Te  Te80  1  0.09355566  0.75397133  0.75341827  1
  Te  Te81  1  0.42298927  0.09121643  0.07511007  1
  Te  Te82  1  0.42532419  0.08208286  0.44335751  1
  Te  Te83  1  0.42757565  0.07179003  0.74324229  1
  Te  Te84  1  0.43554771  0.41692879  0.07963124  1
  Te  Te85  1  0.42139055  0.42051640  0.42790686  1
  Te  Te86  1  0.42496653  0.43324853  0.73873530  1
  Te  Te87  1  0.43425052  0.77500287  0.06090998  1
  Te  Te88  1  0.39900695  0.75394722  0.42546622  1
  Te  Te89  1  0.41248755  0.78829786  0.72136105  1
  Te  Te90  1  0.74098499  0.12012456  0.07225963  1
  Te  Te91  1  0.76942960  0.10885810  0.46573330  1
  Te  Te92  1  0.73562202  0.10066227  0.75547425  1
  Te  Te93  1  0.72816033  0.39133141  0.06992271  1
  Te  Te94  1  0.73256597  0.39409524  0.39670226  1
  Te  Te95  1  0.75764950  0.39793113  0.76081514  1
  Te  Te96  1  0.76794591  0.73572524  0.10163001  1
  Te  Te97  1  0.72752256  0.74763641  0.41407073  1
  Te  Te98  1  0.77571360  0.75087770  0.75340123  1
  Te  Te99  1  0.08220743  0.25357412  0.23423627  1
  Te  Te100  1  0.08767756  0.26091136  0.58283734  1
  Te  Te101  1  0.07646860  0.26650892  0.89962103  1
  Te  Te102  1  0.08155426  0.57163023  0.24778123  1
  Te  Te103  1  0.07068052  0.57318605  0.55988751  1
  Te  Te104  1  0.08032077  0.59068022  0.92897608  1
  Te  Te105  1  0.09640678  0.91451804  0.27974074  1
  Te  Te106  1  0.07650012  0.91277731  0.58973064  1
  Te  Te107  1  0.09723430  0.92524098  0.91908017  1
  Te  Te108  1  0.46052678  0.27271854  0.24093073  1
  Te  Te109  1  0.41126824  0.24694296  0.58380895  1
  Te  Te110  1  0.41506796  0.24808114  0.92101426  1
  Te  Te111  1  0.45172126  0.55954192  0.26637114  1
  Te  Te112  1  0.46231212  0.61912331  0.56292470  1
  Te  Te113  1  0.41898159  0.57719583  0.90428663  1
  Te  Te114  1  0.41848533  0.91080501  0.25411570  1
  Te  Te115  1  0.44181719  0.87519063  0.59729824  1
  Te  Te116  1  0.46032966  0.90441582  0.87139338  1
  Te  Te117  1  0.74859810  0.28865857  0.27681169  1
  Te  Te118  1  0.73218171  0.22479755  0.56761133  1
  Te  Te119  1  0.78581632  0.20878532  0.86509469  1
  Te  Te120  1  0.75811167  0.55788413  0.24565939  1
  Te  Te121  1  0.73424792  0.58093560  0.57600708  1
  Te  Te122  1  0.75643537  0.58350899  0.89720441  1
  Te  Te123  1  0.74674937  0.91052543  0.26095792  1
  Te  Te124  1  0.75796051  0.90874790  0.59918432  1
  Te  Te125  1  0.74861317  0.93227590  0.92592362  1
  Te  Te126  1  0.25294913  0.25265981  0.09045657  1
  Te  Te127  1  0.26404277  0.23808204  0.43600371  1
  Te  Te128  1  0.23298165  0.25722928  0.75906476  1
  Te  Te129  1  0.25244035  0.58364325  0.08417959  1
  Te  Te130  1  0.25800519  0.57849892  0.41391899  1
  Te  Te131  1  0.27624491  0.58783708  0.72856276  1
  Te  Te132  1  0.26184752  0.92990569  0.09165094  1
  Te  Te133  1  0.26554493  0.89493150  0.44790455  1
  Te  Te134  1  0.26596911  0.92343729  0.75898780  1
  Te  Te135  1  0.59454904  0.24848918  0.04684497  1
  Te  Te136  1  0.60949689  0.24356255  0.40987515  1
  Te  Te137  1  0.59586049  0.22768556  0.78003512  1
  Te  Te138  1  0.59172888  0.57919654  0.08432610  1
  Te  Te139  1  0.56227516  0.59074676  0.43444087  1
  Te  Te140  1  0.57804462  0.57778263  0.74828757  1
  Te  Te141  1  0.58085169  0.93019858  0.06281530  1
  Te  Te142  1  0.57803969  0.93790810  0.42183479  1
  Te  Te143  1  0.57169911  0.92714583  0.76147740  1
  Te  Te144  1  0.88892372  0.26660335  0.09181675  1
  Te  Te145  1  0.91878200  0.24975109  0.41375404  1
  Te  Te146  1  0.87046453  0.23864680  0.73718755  1
  Te  Te147  1  0.91942735  0.58510622  0.07199410  1
  Te  Te148  1  0.89876994  0.55447033  0.40105101  1
  Te  Te149  1  0.91487479  0.59287933  0.74108970  1
  Te  Te150  1  0.92112453  0.92241798  0.09948535  1
  Te  Te151  1  0.90689442  0.93287780  0.43335566  1
  Te  Te152  1  0.90318525  0.91981614  0.75182718  1
  Te  Te153  1  0.25806064  0.08660202  0.25623860  1
  Te  Te154  1  0.25631693  0.09138448  0.58825619  1
  Te  Te155  1  0.25415150  0.07776469  0.92213124  1
  Te  Te156  1  0.25673806  0.39766207  0.24443339  1
  Te  Te157  1  0.24856335  0.41832516  0.56893719  1
  Te  Te158  1  0.26278406  0.42694022  0.88814427  1
  Te  Te159  1  0.23239827  0.75529287  0.26959135  1
  Te  Te160  1  0.26493928  0.71317510  0.61652489  1
  Te  Te161  1  0.26267476  0.75812498  0.90148759  1
  Te  Te162  1  0.61329259  0.08357481  0.24943828  1
  Te  Te163  1  0.57452211  0.07362800  0.56545196  1
  Te  Te164  1  0.55710249  0.13480209  0.90250331  1
  Te  Te165  1  0.55060443  0.40138190  0.26045741  1
  Te  Te166  1  0.56833071  0.41716404  0.60269784  1
  Te  Te167  1  0.61259030  0.36424678  0.94068426  1
  Te  Te168  1  0.58109932  0.74720492  0.23616757  1
  Te  Te169  1  0.56254638  0.74259755  0.58708961  1
  Te  Te170  1  0.58141474  0.74527098  0.90867133  1
  Te  Te171  1  0.87198493  0.10042721  0.26125384  1
  Te  Te172  1  0.88639412  0.07856350  0.58867446  1
  Te  Te173  1  0.90124551  0.13026975  0.93973234  1
  Te  Te174  1  0.88043451  0.37792507  0.22732998  1
  Te  Te175  1  0.92197048  0.42016671  0.57698824  1
  Te  Te176  1  0.90361776  0.41403495  0.91077448  1
  Te  Te177  1  0.91326735  0.72792993  0.25594060  1
  Te  Te178  1  0.90775843  0.76158816  0.57314927  1
  Te  Te179  1  0.91495334  0.73838192  0.91185899  1
