# generated using pymatgen
data_In2Te3
_symmetry_space_group_name_H-M   'P 1'
_cell_length_a   18.81217258
_cell_length_b   18.82033156
_cell_length_c   18.80825647
_cell_angle_alpha   89.95718509
_cell_angle_beta   90.05370676
_cell_angle_gamma   89.98764493
_symmetry_Int_Tables_number   1
_chemical_formula_structural   In2Te3
_chemical_formula_sum   'In72 Te108'
_cell_volume   6659.08318890
_cell_formula_units_Z   36
loop_
 _symmetry_equiv_pos_site_id
 _symmetry_equiv_pos_as_xyz
  1  'x, y, z'
loop_
 _atom_site_type_symbol
 _atom_site_label
 _atom_site_symmetry_multiplicity
 _atom_site_fract_x
 _atom_site_fract_y
 _atom_site_fract_z
 _atom_site_occupancy
  In  In0  1  0.49071460  0.31787793  0.84528457  1
  In  In1  1  0.84613190  0.84429351  0.68932037  1
  In  In2  1  0.49556853  0.18909422  0.31244811  1
  In  In3  1  0.34435354  0.86528069  0.11832568  1
  In  In4  1  0.65441542  0.66778989  0.32287352  1
  In  In5  1  0.01250506  0.49609804  0.83556460  1
  In  In6  1  0.86364979  -0.00395586  0.48528929  1
  In  In7  1  0.49958735  -0.00528165  0.49809276  1
  In  In8  1  0.17737963  0.48698701  -0.00331761  1
  In  In9  1  0.67640550  0.49116779  0.49393597  1
  In  In10  1  0.64938270  0.83102953  0.50957728  1
  In  In11  1  0.81436396  0.33239514  0.17660610  1
  In  In12  1  -0.00199853  0.33434535  0.32391341  1
  In  In13  1  0.85915528  0.33867186  0.83177763  1
  In  In14  1  -0.00414948  0.65712872  0.33992176  1
  In  In15  1  0.53448546  0.49002071  0.31374390  1
  In  In16  1  0.00882597  0.32979413  -0.00648627  1
  In  In17  1  0.16425102  0.85998551  0.32506710  1
  In  In18  1  0.18194649  0.48348585  0.69350899  1
  In  In19  1  0.68235633  0.51006522  0.82888589  1
  In  In20  1  0.35877868  0.33431296  0.29510592  1
  In  In21  1  0.34898071  0.68820328  0.33966890  1
  In  In22  1  0.49008044  0.66228679  0.17238943  1
  In  In23  1  0.51818709  0.49210857  0.68858371  1
  In  In24  1  0.01087959  0.17107444  0.51322184  1
  In  In25  1  0.66025906  0.17693605  0.14930475  1
  In  In26  1  0.34243280  0.14513813  0.85781930  1
  In  In27  1  0.01004915  0.50902423  0.50818688  1
  In  In28  1  0.32222955  0.64972259  0.69756082  1
  In  In29  1  0.63081737  0.15020495  0.84627223  1
  In  In30  1  0.16375799  0.52279874  0.29657339  1
  In  In31  1  0.66335512  0.17173647  0.50701741  1
  In  In32  1  0.84112378  0.66129073  0.51430365  1
  In  In33  1  0.83433827  0.47749843  0.65863882  1
  In  In34  1  0.32307111  0.82781487  0.46577937  1
  In  In35  1  0.33839276  0.31567039  0.68907797  1
  In  In36  1  0.33563778  0.85081270  0.85223638  1
  In  In37  1  0.65163113  0.49438834  0.16961312  1
  In  In38  1  0.35316616  0.46932166  0.12669302  1
  In  In39  1  0.33965007  0.65675498  -0.01750132  1
  In  In40  1  0.14223091  0.30338984  0.49475966  1
  In  In41  1  0.65573178  0.33828113  0.00531893  1
  In  In42  1  0.31868348  0.16460475  0.51308497  1
  In  In43  1  0.82134769  0.85822740  0.32904517  1
  In  In44  1  0.64723450  0.83932077  0.85452908  1
  In  In45  1  0.32750533  0.01962966  0.68828990  1
  In  In46  1  0.83147395  0.67483648  0.82792907  1
  In  In47  1  0.84253774  0.65551248  0.13325043  1
  In  In48  1  0.33507655  0.50362899  0.52280281  1
  In  In49  1  0.67314397  -0.00905362  0.68693276  1
  In  In50  1  0.01400224  0.16963250  0.84256073  1
  In  In51  1  0.14447185  0.80935593  0.70703260  1
  In  In52  1  0.16064806  0.67790389  0.18122197  1
  In  In53  1  0.83067032  0.15501421  -0.01593043  1
  In  In54  1  0.32127386  0.00700961  0.30931979  1
  In  In55  1  0.16988099  0.66998530  0.51734390  1
  In  In56  1  0.01432926  0.83979412  0.17762419  1
  In  In57  1  0.67605866  0.01687968  0.31335173  1
  In  In58  1  0.84310283  0.00122205  0.83328375  1
  In  In59  1  0.84504157  0.01657440  0.16215596  1
  In  In60  1  0.64987592  0.66224611  -0.00124866  1
  In  In61  1  -0.02694275  0.84855118  0.50794231  1
  In  In62  1  0.84355240  0.82178149  -0.02021187  1
  In  In63  1  0.14276013  0.85697493  -0.01177072  1
  In  In64  1  0.47332695  0.81984368  0.32163638  1
  In  In65  1  0.00963161  0.15473261  0.16715567  1
  In  In66  1  0.01673122  0.01600602  0.66585569  1
  In  In67  1  0.18485489  0.16956779  0.00927868  1
  In  In68  1  0.49731735  0.83664001  0.67528237  1
  In  In69  1  0.48766002  0.32648568  0.49839361  1
  In  In70  1  0.82135427  0.33875816  0.49510914  1
  In  In71  1  0.16359464  0.16171472  0.32680523  1
  Te  Te72  1  0.08226655  0.07651203  0.06669973  1
  Te  Te73  1  0.08866572  0.08115659  0.42515592  1
  Te  Te74  1  0.10587883  0.08485988  0.76082089  1
  Te  Te75  1  0.09671077  0.40322085  0.08690197  1
  Te  Te76  1  0.09858959  0.43070820  0.40871932  1
  Te  Te77  1  0.08205990  0.39428163  0.75427826  1
  Te  Te78  1  0.07528299  0.74616201  0.07489050  1
  Te  Te79  1  0.09014874  0.75244500  0.41579505  1
  Te  Te80  1  0.05996462  0.73060025  0.79808128  1
  Te  Te81  1  0.43120692  0.05207939  0.04774504  1
  Te  Te82  1  0.41869070  0.09007072  0.40974812  1
  Te  Te83  1  0.43789050  0.08609232  0.75932767  1
  Te  Te84  1  0.43547680  0.36812476  0.05617678  1
  Te  Te85  1  0.41291087  0.42851892  0.41251433  1
  Te  Te86  1  0.39522877  0.43462592  0.76339995  1
  Te  Te87  1  0.42954780  0.75200597  0.06373305  1
  Te  Te88  1  0.44530068  0.74015816  0.44936766  1
  Te  Te89  1  0.41356245  0.74828385  0.77015850  1
  Te  Te90  1  0.73644711  0.07173733  0.06835527  1
  Te  Te91  1  0.75745822  0.08646788  0.41933184  1
  Te  Te92  1  0.75222450  0.09759786  0.75960240  1
  Te  Te93  1  0.75446208  0.43070198  0.07519401  1
  Te  Te94  1  0.74585649  0.41321294  0.39149669  1
  Te  Te95  1  0.74302896  0.39593373  0.74851317  1
  Te  Te96  1  0.74286299  0.75549144  0.07625312  1
  Te  Te97  1  0.75558948  0.74856955  0.41891296  1
  Te  Te98  1  0.73425829  0.76259963  0.74961049  1
  Te  Te99  1  0.09618423  0.26225108  0.23263433  1
  Te  Te100  1  0.08670867  0.24550176  0.61748380  1
  Te  Te101  1  0.11674689  0.26525650  0.90844538  1
  Te  Te102  1  0.04162408  0.57406299  0.21343222  1
  Te  Te103  1  0.09069364  0.58502209  0.61226120  1
  Te  Te104  1  0.10342171  0.58789019  0.91346662  1
  Te  Te105  1  0.09950770  0.94967363  0.22824789  1
  Te  Te106  1  0.08694134  0.90242030  0.59062071  1
  Te  Te107  1  0.05404341  0.92736268  0.89468263  1
  Te  Te108  1  0.39014485  0.21600648  0.20488652  1
  Te  Te109  1  0.42758913  0.22965843  0.59860434  1
  Te  Te110  1  0.38789606  0.26538248  0.94453044  1
  Te  Te111  1  0.40655770  0.56857416  0.25637985  1
  Te  Te112  1  0.42652563  0.59033747  0.60236661  1
  Te  Te113  1  0.39427890  0.53764399  0.91241145  1
  Te  Te114  1  0.42668049  0.93237589  0.22853060  1
  Te  Te115  1  0.40087071  0.91732004  0.58344212  1
  Te  Te116  1  0.42372388  0.94193448  0.93184272  1
  Te  Te117  1  0.74969944  0.22664655  0.25590243  1
  Te  Te118  1  0.74759640  0.25616388  0.59239766  1
  Te  Te119  1  0.74312654  0.25526945  0.90971795  1
  Te  Te120  1  0.75122145  0.58612939  0.24184059  1
  Te  Te121  1  0.74110371  0.58343499  0.59802808  1
  Te  Te122  1  0.76467376  0.58617938  0.93277985  1
  Te  Te123  1  0.73687956  0.91531171  0.21765591  1
  Te  Te124  1  0.75884905  0.91714775  0.57555050  1
  Te  Te125  1  0.74622858  0.92927613  0.92721525  1
  Te  Te126  1  0.28045260  0.24378888  0.09499789  1
  Te  Te127  1  0.26682766  0.26008912  0.40336480  1
  Te  Te128  1  0.25264424  0.22986878  0.77089095  1
  Te  Te129  1  0.25845912  0.59272496  0.09945425  1
  Te  Te130  1  0.24879179  0.58891507  0.41468535  1
  Te  Te131  1  0.21385580  0.59841982  0.78536032  1
  Te  Te132  1  0.23282403  0.95000716  0.06664715  1
  Te  Te133  1  0.24028483  0.94810752  0.42607031  1
  Te  Te134  1  0.23396483  0.91899427  0.76221569  1
  Te  Te135  1  0.55285401  0.25398987  0.07622592  1
  Te  Te136  1  0.59065886  0.26305934  0.40555488  1
  Te  Te137  1  0.57767910  0.24712013  0.75005280  1
  Te  Te138  1  0.55637752  0.56695270  0.07419994  1
  Te  Te139  1  0.57628890  0.58673922  0.42504455  1
  Te  Te140  1  0.57950625  0.59852151  0.77016238  1
  Te  Te141  1  0.54168075  0.94743398  0.03400682  1
  Te  Te142  1  0.58599576  0.91564726  0.39731591  1
  Te  Te143  1  0.56015446  0.93680130  0.77349762  1
  Te  Te144  1  0.90897141  0.24596082  0.07842841  1
  Te  Te145  1  0.91802024  0.24668175  0.41795979  1
  Te  Te146  1  0.92092238  0.23604148  0.74824556  1
  Te  Te147  1  0.95706798  0.58243728  0.08282442  1
  Te  Te148  1  0.90076321  0.56204769  0.41480369  1
  Te  Te149  1  0.91262046  0.57343950  0.74656060  1
  Te  Te150  1  0.91886105  0.91046953  0.08133663  1
  Te  Te151  1  0.94832521  0.92696025  0.37887534  1
  Te  Te152  1  0.95512632  0.91047709  0.77420600  1
  Te  Te153  1  0.25413420  0.10537293  0.21987705  1
  Te  Te154  1  0.22879149  0.09019606  0.60208398  1
  Te  Te155  1  0.25333893  0.05390398  0.93856522  1
  Te  Te156  1  0.24851382  0.41521888  0.22655704  1
  Te  Te157  1  0.24644693  0.39301345  0.57664413  1
  Te  Te158  1  0.28524842  0.43497410  0.90961236  1
  Te  Te159  1  0.26706389  0.77723681  0.23781565  1
  Te  Te160  1  0.26098671  0.76054330  0.59764773  1
  Te  Te161  1  0.24074927  0.75595084  0.92302446  1
  Te  Te162  1  0.56709242  0.08163441  0.23050270  1
  Te  Te163  1  0.58196113  0.07620320  0.59573544  1
  Te  Te164  1  0.55545692  0.09235719  0.95984026  1
  Te  Te165  1  0.57032679  0.38097165  0.22244715  1
  Te  Te166  1  0.58750084  0.40420874  0.58413921  1
  Te  Te167  1  0.57895331  0.42669139  0.90834121  1
  Te  Te168  1  0.58598518  0.76624057  0.22922917  1
  Te  Te169  1  0.59130469  0.74210551  0.60982467  1
  Te  Te170  1  0.55558006  0.74088940  0.91575520  1
  Te  Te171  1  0.90780207  0.10472258  0.26182615  1
  Te  Te172  1  0.90259322  0.08876139  0.59784995  1
  Te  Te173  1  0.94208900  0.06508339  0.93252027  1
  Te  Te174  1  0.91277033  0.42166581  0.24198680  1
  Te  Te175  1  0.93884461  0.39849997  0.58281454  1
  Te  Te176  1  0.91306344  0.43399929  0.93564830  1
  Te  Te177  1  0.90708709  0.74937010  0.25386775  1
  Te  Te178  1  0.92904964  0.74206679  0.60862698  1
  Te  Te179  1  0.94522007  0.73821119  0.90507364  1
