# generated using pymatgen
data_In2Te3
_symmetry_space_group_name_H-M   'P 1'
_cell_length_a   18.80813653
_cell_length_b   18.80410398
_cell_length_c   18.79857478
_cell_angle_alpha   90.03871679
_cell_angle_beta   89.97765785
_cell_angle_gamma   90.00242303
_symmetry_Int_Tables_number   1
_chemical_formula_structural   In2Te3
_chemical_formula_sum   'In72 Te108'
_cell_volume   6648.49282574
_cell_formula_units_Z   36
loop_
 _symmetry_equiv_pos_site_id
 _symmetry_equiv_pos_as_xyz
  1  'x, y, z'
loop_
 _atom_site_type_symbol
 _atom_site_label
 _atom_site_symmetry_multiplicity
 _atom_site_fract_x
 _atom_site_fract_y
 _atom_site_fract_z
 _atom_site_occupancy
  In  In0  1  0.83532041  0.18053567  0.31105721  1
  In  In1  1  0.67964649  0.32757036  0.66140290  1
  In  In2  1  0.16856253  -0.00856015  0.84347760  1
  In  In3  1  0.18539664  0.16047598  0.67084691  1
  In  In4  1  0.67139420  0.83902914  0.84168200  1
  In  In5  1  0.51321338  0.02808399  0.48861009  1
  In  In6  1  0.82110397  0.01337720  0.83588995  1
  In  In7  1  0.15530380  0.83134622  0.00678023  1
  In  In8  1  0.82392111  0.83668100  -0.00124646  1
  In  In9  1  -0.00994650  0.15497312  0.49256725  1
  In  In10  1  0.31610415  0.15105788  0.82967753  1
  In  In11  1  -0.01488494  0.82283873  0.16947588  1
  In  In12  1  0.68242905  0.66437652  0.33566987  1
  In  In13  1  0.33248345  0.84688307  0.83682556  1
  In  In14  1  0.67280690  0.84529850  0.16397844  1
  In  In15  1  0.51847669  0.35041368  0.83225393  1
  In  In16  1  0.33766624  0.00551511  0.67959764  1
  In  In17  1  0.84080098  0.67831865  0.47707715  1
  In  In18  1  0.17178707  0.49184278  0.66585244  1
  In  In19  1  -0.00244738  0.17295587  0.84333207  1
  In  In20  1  0.67045690  0.17942697  0.50863984  1
  In  In21  1  0.51194961  0.34734225  0.18065733  1
  In  In22  1  0.68434842  0.34240258  0.02296059  1
  In  In23  1  0.84549944  -0.00526888  0.50013801  1
  In  In24  1  0.16142223  0.34720067  0.48307309  1
  In  In25  1  0.02633282  0.65024754  0.65498642  1
  In  In26  1  0.49650283  0.17742626  -0.00056448  1
  In  In27  1  0.16691645  0.29965180  0.84385669  1
  In  In28  1  0.01176769  0.85670827  0.48962876  1
  In  In29  1  0.30773395  0.82700413  0.17365682  1
  In  In30  1  0.17694112  -0.00199424  0.52532263  1
  In  In31  1  0.67287317  0.17055703  0.82809665  1
  In  In32  1  0.82242684  0.84555425  0.65512420  1
  In  In33  1  -0.00926595  0.01089902  0.31300397  1
  In  In34  1  0.34465856  0.01414334  0.34954245  1
  In  In35  1  0.01714807  0.33231496  0.32457312  1
  In  In36  1  0.14745100  0.49645524  0.00727528  1
  In  In37  1  0.83881368  0.33099190  0.85736326  1
  In  In38  1  0.47667624  0.31470330  0.51925082  1
  In  In39  1  0.48108501  0.65156463  0.16479285  1
  In  In40  1  0.32394726  0.17339988  0.16715070  1
  In  In41  1  0.66388274  0.50199207  0.49156070  1
  In  In42  1  0.14966247  0.81879805  0.32071737  1
  In  In43  1  0.31502622  0.65859022  0.64435232  1
  In  In44  1  -0.02117248  0.48873471  0.86423021  1
  In  In45  1  0.00087794  0.81498343  0.80741842  1
  In  In46  1  0.49901814  -0.01143593  0.84251483  1
  In  In47  1  0.33063223  0.34788158  0.33001205  1
  In  In48  1  -0.01067837  0.33049957  0.67018307  1
  In  In49  1  0.83447849  0.47175906  0.65690171  1
  In  In50  1  0.01518673  0.02948300  0.03307922  1
  In  In51  1  0.16852060  0.18115473  0.31335414  1
  In  In52  1  0.35637724  0.49634298  0.82634723  1
  In  In53  1  0.64699203  0.65984242  0.67314730  1
  In  In54  1  0.33394374  0.67400192  0.00553646  1
  In  In55  1  0.00351595  0.64241001  0.02434740  1
  In  In56  1  0.32508505  0.51688672  0.47879575  1
  In  In57  1  0.50002896  0.67085817  0.50710729  1
  In  In58  1  0.83168269  0.64117711  0.85966514  1
  In  In59  1  -0.00056654  0.66199986  0.31328442  1
  In  In60  1  -0.00762491  0.49695751  0.16730520  1
  In  In61  1  0.66587228  0.00070555  0.30972305  1
  In  In62  1  0.51424128  0.82954723  0.66923566  1
  In  In63  1  0.32447231  0.33168414  0.02051702  1
  In  In64  1  0.65713729  0.66046949  0.00297734  1
  In  In65  1  0.51538624  0.01744353  0.16153504  1
  In  In66  1  0.67694049  0.33039550  0.32010460  1
  In  In67  1  0.51058790  0.65655120  0.83415628  1
  In  In68  1  0.82348272  0.49433163  0.32532804  1
  In  In69  1  0.32542508  0.48692185  0.17220024  1
  In  In70  1  0.32805796  0.81987524  0.51024049  1
  In  In71  1  0.49386196  0.82970784  0.34943894  1
  Te  Te72  1  0.09881342  0.12754050  0.10509221  1
  Te  Te73  1  0.09477364  0.07527391  0.41253779  1
  Te  Te74  1  0.08405653  0.08344501  0.75318853  1
  Te  Te75  1  0.06535962  0.39824419  0.07988182  1
  Te  Te76  1  0.10631630  0.43993348  0.37950053  1
  Te  Te77  1  0.07813390  0.41029755  0.76701748  1
  Te  Te78  1  0.09268551  0.73367161  0.10631952  1
  Te  Te79  1  0.07799821  0.73580797  0.42573280  1
  Te  Te80  1  0.10739569  0.73815514  0.74253762  1
  Te  Te81  1  0.40503842  0.08228674  0.07524272  1
  Te  Te82  1  0.43178975  0.11839750  0.40527136  1
  Te  Te83  1  0.43525416  0.09513180  0.75236691  1
  Te  Te84  1  0.42958416  0.42393677  0.07743797  1
  Te  Te85  1  0.43002193  0.42157694  0.41749179  1
  Te  Te86  1  0.42791226  0.41097291  0.73148805  1
  Te  Te87  1  0.42064501  0.76891043  0.08668382  1
  Te  Te88  1  0.39641272  0.72800038  0.40839961  1
  Te  Te89  1  0.41326469  0.74415704  0.74509598  1
  Te  Te90  1  0.77058255  0.13212578  0.09128541  1
  Te  Te91  1  0.75831944  0.08986452  0.40843322  1
  Te  Te92  1  0.74807984  0.08704423  0.73194079  1
  Te  Te93  1  0.79033458  0.44444491  0.05771497  1
  Te  Te94  1  0.75851835  0.40176641  0.42923180  1
  Te  Te95  1  0.74773011  0.41571812  0.76857262  1
  Te  Te96  1  0.75621966  0.73796849  0.09070147  1
  Te  Te97  1  0.74977079  0.77187094  0.41028097  1
  Te  Te98  1  0.75561038  0.74066305  0.76045020  1
  Te  Te99  1  0.05722009  0.22613240  0.22293720  1
  Te  Te100  1  0.09199076  0.24433528  0.58216596  1
  Te  Te101  1  0.06107523  0.26573928  0.94047553  1
  Te  Te102  1  0.09415080  0.56440371  0.25304483  1
  Te  Te103  1  0.09269120  0.55892991  0.56071050  1
  Te  Te104  1  0.08353276  0.59218550  0.90468966  1
  Te  Te105  1  0.08542612  0.92351572  0.23069683  1
  Te  Te106  1  0.07290942  0.92939832  0.60225170  1
  Te  Te107  1  0.05805403  0.91624265  0.92045621  1
  Te  Te108  1  0.42185274  0.24961251  0.25509275  1
  Te  Te109  1  0.38553635  0.22292315  0.58825736  1
  Te  Te110  1  0.40525871  0.26013733  0.90984766  1
  Te  Te111  1  0.40845289  0.56892127  0.26500298  1
  Te  Te112  1  0.42567429  0.57085867  0.59202445  1
  Te  Te113  1  0.42826616  0.57678969  0.93507340  1
  Te  Te114  1  0.41913440  0.91978206  0.25145172  1
  Te  Te115  1  0.42434303  0.91697458  0.57897169  1
  Te  Te116  1  0.40407301  0.92668243  0.93630110  1
  Te  Te117  1  0.75645785  0.26204625  0.20776978  1
  Te  Te118  1  0.77686572  0.25610800  0.57709481  1
  Te  Te119  1  0.75711357  0.23026978  0.94185112  1
  Te  Te120  1  0.72964184  0.56576825  0.23397165  1
  Te  Te121  1  0.75660457  0.58952802  0.58267001  1
  Te  Te122  1  0.73555084  0.55358216  0.92845376  1
  Te  Te123  1  0.77063928  0.93428464  0.23051610  1
  Te  Te124  1  0.73441572  0.93226226  0.57696313  1
  Te  Te125  1  0.73198943  0.94106193  0.93825738  1
  Te  Te126  1  0.22212386  0.24275692  0.08150900  1
  Te  Te127  1  0.25599198  0.24633418  0.41793281  1
  Te  Te128  1  0.27137168  0.26808135  0.73664145  1
  Te  Te129  1  0.24226482  0.58539723  0.08863802  1
  Te  Te130  1  0.26504964  0.60634046  0.37902612  1
  Te  Te131  1  0.24962019  0.58356889  0.76037230  1
  Te  Te132  1  0.24196008  0.92272928  0.08300936  1
  Te  Te133  1  0.24576772  0.90891473  0.41214885  1
  Te  Te134  1  0.23658566  0.90706680  0.73413344  1
  Te  Te135  1  0.58907150  0.24390043  0.09841108  1
  Te  Te136  1  0.58129860  0.26139571  0.41603231  1
  Te  Te137  1  0.57571515  0.24533185  0.73748229  1
  Te  Te138  1  0.58624255  0.57088708  0.09842767  1
  Te  Te139  1  0.57129000  0.58372212  0.40360073  1
  Te  Te140  1  0.58571914  0.55662348  0.75666233  1
  Te  Te141  1  0.59091079  0.92784790  0.07256415  1
  Te  Te142  1  0.59456054  0.91901779  0.41898066  1
  Te  Te143  1  0.60092385  0.93036653  0.74211911  1
  Te  Te144  1  0.88223633  0.22073166  0.10952528  1
  Te  Te145  1  0.91576415  0.26108337  0.41519263  1
  Te  Te146  1  0.89692863  0.23942161  0.74881846  1
  Te  Te147  1  0.88908230  0.57773218  0.09205540  1
  Te  Te148  1  0.92284182  0.56898827  0.41296002  1
  Te  Te149  1  0.91724104  0.57666980  0.74790066  1
  Te  Te150  1  0.91098161  0.92629748  0.08527507  1
  Te  Te151  1  0.90945168  0.90700259  0.39028669  1
  Te  Te152  1  0.91376178  0.92449975  0.74902538  1
  Te  Te153  1  0.24579689  0.06709486  0.24638868  1
  Te  Te154  1  0.28919609  0.09974157  0.56464000  1
  Te  Te155  1  0.23210402  0.08945748  0.93314338  1
  Te  Te156  1  0.22575772  0.39926802  0.23956976  1
  Te  Te157  1  0.26494021  0.41289801  0.57418470  1
  Te  Te158  1  0.24782915  0.41852460  0.91404373  1
  Te  Te159  1  0.24862894  0.72080514  0.26274078  1
  Te  Te160  1  0.21872313  0.74671083  0.57629093  1
  Te  Te161  1  0.24132773  0.74844163  0.91048333  1
  Te  Te162  1  0.58680363  0.10972778  0.25074793  1
  Te  Te163  1  0.58703009  0.09408773  0.59683704  1
  Te  Te164  1  0.58850867  0.08390658  0.92327868  1
  Te  Te165  1  0.61039903  0.44081464  0.24332185  1
  Te  Te166  1  0.58134015  0.41387642  0.58278756  1
  Te  Te167  1  0.58987069  0.42133343  0.93937296  1
  Te  Te168  1  0.57829415  0.75292998  0.24792083  1
  Te  Te169  1  0.60601783  0.76231974  0.56733330  1
  Te  Te170  1  0.57033563  0.76283747  0.92561090  1
  Te  Te171  1  0.90718898  0.08874934  0.21401531  1
  Te  Te172  1  0.92399740  0.07564031  0.59620271  1
  Te  Te173  1  0.91187566  0.08752897  0.93544321  1
  Te  Te174  1  0.90448238  0.39599942  0.24228963  1
  Te  Te175  1  0.94141831  0.42453066  0.56733005  1
  Te  Te176  1  0.91445521  0.40223009  0.96969239  1
  Te  Te177  1  0.89268652  0.74239794  0.25132463  1
  Te  Te178  1  0.92330914  0.75254004  0.58559340  1
  Te  Te179  1  0.92489177  0.74625451  0.92512966  1
