# generated using pymatgen
data_In2Te3
_symmetry_space_group_name_H-M   'P 1'
_cell_length_a   18.82122011
_cell_length_b   18.83677082
_cell_length_c   18.82911039
_cell_angle_alpha   90.05097581
_cell_angle_beta   89.94280549
_cell_angle_gamma   90.05625009
_symmetry_Int_Tables_number   1
_chemical_formula_structural   In2Te3
_chemical_formula_sum   'In72 Te108'
_cell_volume   6675.49434027
_cell_formula_units_Z   36
loop_
 _symmetry_equiv_pos_site_id
 _symmetry_equiv_pos_as_xyz
  1  'x, y, z'
loop_
 _atom_site_type_symbol
 _atom_site_label
 _atom_site_symmetry_multiplicity
 _atom_site_fract_x
 _atom_site_fract_y
 _atom_site_fract_z
 _atom_site_occupancy
  In  In0  1  0.50400934  0.51009211  0.32714482  1
  In  In1  1  -0.00876983  0.84506121  0.83759039  1
  In  In2  1  0.35038936  0.50569262  0.50587875  1
  In  In3  1  -0.00130091  0.82625331  0.50923268  1
  In  In4  1  0.83552948  0.84097084  0.32381307  1
  In  In5  1  0.64450422  0.34591026  0.34533795  1
  In  In6  1  0.32926356  0.82660460  0.83711292  1
  In  In7  1  -0.00077394  0.49001512  0.82673207  1
  In  In8  1  0.16408293  0.33923235  0.17414980  1
  In  In9  1  0.64947252  0.66637134  0.33129643  1
  In  In10  1  0.01132539  0.02273020  0.31843670  1
  In  In11  1  0.00179386  0.83465871  0.16026076  1
  In  In12  1  0.17263773  0.18554196  0.35151320  1
  In  In13  1  0.16768162  0.64568094  0.51033057  1
  In  In14  1  0.17710368  0.82646394  0.67281772  1
  In  In15  1  0.49753614  0.00720866  0.49988350  1
  In  In16  1  0.33779604  0.19502145  0.81880081  1
  In  In17  1  0.18104240  0.34568052  0.51242705  1
  In  In18  1  0.82106889  0.69713889  0.14298265  1
  In  In19  1  0.80035079  -0.00121317  0.85656356  1
  In  In20  1  0.03779400  0.63821558  0.32106472  1
  In  In21  1  0.66714230  0.50743254  0.84854310  1
  In  In22  1  0.67512391  -0.01217768  0.33891725  1
  In  In23  1  0.66086513  0.35774234  0.00056501  1
  In  In24  1  0.33931789  -0.00329579  0.00128834  1
  In  In25  1  0.00184629  0.66944673  0.64532657  1
  In  In26  1  -0.00817258  -0.00742169  -0.01115693  1
  In  In27  1  0.50782041  -0.00479650  0.84986763  1
  In  In28  1  0.85685399  0.33475466  0.83647988  1
  In  In29  1  0.33282279  0.52546421  0.15912614  1
  In  In30  1  0.83468101  0.67600336  0.50324240  1
  In  In31  1  0.82176013  0.32858893  0.15509714  1
  In  In32  1  0.84668104  -0.00009645  0.18146729  1
  In  In33  1  0.83402202  0.15857943  -0.00355717  1
  In  In34  1  0.48741878  0.16973323  -0.02623467  1
  In  In35  1  -0.01020302  0.30542288  0.34936500  1
  In  In36  1  0.50493249  0.34019288  0.17826505  1
  In  In37  1  0.48702544  0.50665663  -0.00342077  1
  In  In38  1  0.66751048  0.15858057  0.18181225  1
  In  In39  1  0.32509851  0.79059445  0.17927468  1
  In  In40  1  0.33988957  0.16741725  0.14581188  1
  In  In41  1  0.15548136  0.00245033  0.82876224  1
  In  In42  1  0.34765652  -0.01354051  0.34464451  1
  In  In43  1  0.79609111  0.67939962  0.85576885  1
  In  In44  1  0.00025059  0.34631499  -0.00045738  1
  In  In45  1  0.49102549  0.67680231  0.86674765  1
  In  In46  1  -0.00007932  0.49616761  0.52341901  1
  In  In47  1  0.00553977  0.33681397  0.67667460  1
  In  In48  1  0.65926205  -0.01090994  0.67082383  1
  In  In49  1  0.49109235  0.33172657  0.51377835  1
  In  In50  1  0.48634129  0.16758426  0.65222241  1
  In  In51  1  0.01343190  0.66193033  -0.01019191  1
  In  In52  1  0.83436046  0.50434615  0.67934879  1
  In  In53  1  0.19770875  0.14899793  0.63888486  1
  In  In54  1  0.64506151  0.16824480  0.81921329  1
  In  In55  1  0.82257731  0.48807251  0.33021895  1
  In  In56  1  0.16052004  0.51019480  0.31327118  1
  In  In57  1  0.81366760  0.00419464  0.50830724  1
  In  In58  1  0.51394798  0.68493701  0.12671715  1
  In  In59  1  0.48271390  0.49377144  0.67270730  1
  In  In60  1  0.65988227  0.68429803  0.66113398  1
  In  In61  1  0.13760228  0.16748571  -0.00337743  1
  In  In62  1  0.02757301  0.50520758  0.16749186  1
  In  In63  1  0.34420187  0.82662417  0.49554196  1
  In  In64  1  0.17478484  -0.00227275  0.16300136  1
  In  In65  1  0.00316593  -0.00873487  0.67602595  1
  In  In66  1  0.20482842  0.63463764  0.81103807  1
  In  In67  1  0.67107407  0.29911006  0.64868927  1
  In  In68  1  0.50074233  0.82526693  0.66678820  1
  In  In69  1  0.48985044  0.14568624  0.34043058  1
  In  In70  1  -0.01395423  0.16166412  0.47880294  1
  In  In71  1  0.48856238  0.83098899  0.33168746  1
  Te  Te72  1  0.06377196  0.07690406  0.09474576  1
  Te  Te73  1  0.10289930  0.07468449  0.42871601  1
  Te  Te74  1  0.08580296  0.10158850  0.74070678  1
  Te  Te75  1  0.11226345  0.43130473  0.06343858  1
  Te  Te76  1  0.08016158  0.41983695  0.41168961  1
  Te  Te77  1  0.10132764  0.39519179  0.77483216  1
  Te  Te78  1  0.09045695  0.76463352  0.06526205  1
  Te  Te79  1  0.09209404  0.74471613  0.42183034  1
  Te  Te80  1  0.08062235  0.74535523  0.75860168  1
  Te  Te81  1  0.44224117  0.07275037  0.08410808  1
  Te  Te82  1  0.38547471  0.10471864  0.44823501  1
  Te  Te83  1  0.41904470  0.07986750  0.75946941  1
  Te  Te84  1  0.40683260  0.41035520  0.08731893  1
  Te  Te85  1  0.41818110  0.41142099  0.40516658  1
  Te  Te86  1  0.39266868  0.41844485  0.76750280  1
  Te  Te87  1  0.39331338  0.73681126  0.05873961  1
  Te  Te88  1  0.41845036  0.73017493  0.41222103  1
  Te  Te89  1  0.41029045  0.73300926  0.74836987  1
  Te  Te90  1  0.74764920  0.07088176  0.08586274  1
  Te  Te91  1  0.75292314  0.09192067  0.40703590  1
  Te  Te92  1  0.75005656  0.09059998  0.74333664  1
  Te  Te93  1  0.75227817  0.43642037  0.08582506  1
  Te  Te94  1  0.73211894  0.43065716  0.43027088  1
  Te  Te95  1  0.74222887  0.40841084  0.75472861  1
  Te  Te96  1  0.71916275  0.76783869  0.05654529  1
  Te  Te97  1  0.74491528  0.75900418  0.41375397  1
  Te  Te98  1  0.74471186  0.76672542  0.74967801  1
  Te  Te99  1  0.07665236  0.23604411  0.24426358  1
  Te  Te100  1  0.08101533  0.24536890  0.56988744  1
  Te  Te101  1  0.07591294  0.26306330  0.90208174  1
  Te  Te102  1  0.13870066  0.63358580  0.19817563  1
  Te  Te103  1  0.10088238  0.55787235  0.61883273  1
  Te  Te104  1  0.10255056  0.56977295  0.90590239  1
  Te  Te105  1  0.09315452  0.90935026  0.25789615  1
  Te  Te106  1  0.09743575  0.91844330  0.58085495  1
  Te  Te107  1  0.10040620  0.90343432  0.92926322  1
  Te  Te108  1  0.41282549  0.24607825  0.25486135  1
  Te  Te109  1  0.39085092  0.26698366  0.60064736  1
  Te  Te110  1  0.39649461  0.27460595  0.92839962  1
  Te  Te111  1  0.43018429  0.60849622  0.23915697  1
  Te  Te112  1  0.44617634  0.59692160  0.57317805  1
  Te  Te113  1  0.37884459  0.59104406  0.93026564  1
  Te  Te114  1  0.41146924  0.91204282  0.22886046  1
  Te  Te115  1  0.41142753  0.92903682  0.59718607  1
  Te  Te116  1  0.42907981  0.89392505  0.93239340  1
  Te  Te117  1  0.74573333  0.25822456  0.26497617  1
  Te  Te118  1  0.77040218  0.24882698  0.55515610  1
  Te  Te119  1  0.74267003  0.25296776  0.91672577  1
  Te  Te120  1  0.76000201  0.59990912  0.24676543  1
  Te  Te121  1  0.74631416  0.58147687  0.58307199  1
  Te  Te122  1  0.74218630  0.58133188  0.95336728  1
  Te  Te123  1  0.73665843  0.90316580  0.22732625  1
  Te  Te124  1  0.73446947  0.90234328  0.57805370  1
  Te  Te125  1  0.72736342  0.89745585  0.93578912  1
  Te  Te126  1  0.24038717  0.25453958  0.07071600  1
  Te  Te127  1  0.26977024  0.26882260  0.42305472  1
  Te  Te128  1  0.23319238  0.25610978  0.73583239  1
  Te  Te129  1  0.22357400  0.58143684  0.07966254  1
  Te  Te130  1  0.25882485  0.58263989  0.40604616  1
  Te  Te131  1  0.29372864  0.53979854  0.73840201  1
  Te  Te132  1  0.25599686  0.90021557  0.08351135  1
  Te  Te133  1  0.24867783  0.90365002  0.41300661  1
  Te  Te134  1  0.26100261  0.92993260  0.74707127  1
  Te  Te135  1  0.58469958  0.24630682  0.08462466  1
  Te  Te136  1  0.57615317  0.23645585  0.42683555  1
  Te  Te137  1  0.55720891  0.26639570  0.74825130  1
  Te  Te138  1  0.59595230  0.57438295  0.07082179  1
  Te  Te139  1  0.58807665  0.57537477  0.42971057  1
  Te  Te140  1  0.57513435  0.59259282  0.76164039  1
  Te  Te141  1  0.60017848  0.86986321  0.02498797  1
  Te  Te142  1  0.58272407  0.90507299  0.42745664  1
  Te  Te143  1  0.59010950  0.89560609  0.76971521  1
  Te  Te144  1  0.92531662  0.24295466  0.08489317  1
  Te  Te145  1  0.87732638  0.26146653  0.43908972  1
  Te  Te146  1  0.91140299  0.24117400  0.73917982  1
  Te  Te147  1  0.92637829  0.59217533  0.09582902  1
  Te  Te148  1  0.92614805  0.58381337  0.42167943  1
  Te  Te149  1  0.91390622  0.60444584  0.76145840  1
  Te  Te150  1  0.89969061  0.90615746  0.07241692  1
  Te  Te151  1  0.92664786  0.92350015  0.41405798  1
  Te  Te152  1  0.89182614  0.92397131  0.75549097  1
  Te  Te153  1  0.25889901  0.08923082  0.25262673  1
  Te  Te154  1  0.28665115  0.06080716  0.56359845  1
  Te  Te155  1  0.25017223  0.08807846  0.91809039  1
  Te  Te156  1  0.26507408  0.41722013  0.25404676  1
  Te  Te157  1  0.25957726  0.43459255  0.60210322  1
  Te  Te158  1  0.30296842  0.46410648  0.88653279  1
  Te  Te159  1  0.23081878  0.73320735  0.27499245  1
  Te  Te160  1  0.26240044  0.73078857  0.59364748  1
  Te  Te161  1  0.24100024  0.73527712  0.91193529  1
  Te  Te162  1  0.57300242  0.05833436  0.24759432  1
  Te  Te163  1  0.59659356  0.09332298  0.57776059  1
  Te  Te164  1  0.60345156  0.07830392  0.93424299  1
  Te  Te165  1  0.60345363  0.44080553  0.23257958  1
  Te  Te166  1  0.59042523  0.41628160  0.59227336  1
  Te  Te167  1  0.55984069  0.41092302  0.90074415  1
  Te  Te168  1  0.58747871  0.76557032  0.23386357  1
  Te  Te169  1  0.56969773  0.74698677  0.56181161  1
  Te  Te170  1  0.60877337  0.74173543  0.93676809  1
  Te  Te171  1  0.90194288  0.10621444  0.26694495  1
  Te  Te172  1  0.91583944  0.08276329  0.58988588  1
  Te  Te173  1  0.92404388  0.08966947  0.89530730  1
  Te  Te174  1  0.93284712  0.41465964  0.24857914  1
  Te  Te175  1  0.89827235  0.40372359  0.58439099  1
  Te  Te176  1  0.90152488  0.44249496  0.93429548  1
  Te  Te177  1  0.92619240  0.73574691  0.25833693  1
  Te  Te178  1  0.89531662  0.77148639  0.60640940  1
  Te  Te179  1  0.90796406  0.75653347  0.92896698  1
