# generated using pymatgen
data_In2Te3
_symmetry_space_group_name_H-M   'P 1'
_cell_length_a   18.98721412
_cell_length_b   18.98551975
_cell_length_c   19.00635815
_cell_angle_alpha   89.89933183
_cell_angle_beta   89.97649298
_cell_angle_gamma   89.99803006
_symmetry_Int_Tables_number   1
_chemical_formula_structural   In2Te3
_chemical_formula_sum   'In72 Te108'
_cell_volume   6851.44129138
_cell_formula_units_Z   36
loop_
 _symmetry_equiv_pos_site_id
 _symmetry_equiv_pos_as_xyz
  1  'x, y, z'
loop_
 _atom_site_type_symbol
 _atom_site_label
 _atom_site_symmetry_multiplicity
 _atom_site_fract_x
 _atom_site_fract_y
 _atom_site_fract_z
 _atom_site_occupancy
  In  In0  1  0.33650662  0.18393492  0.49865503  1
  In  In1  1  0.32102036  0.51250888  0.82026578  1
  In  In2  1  0.15024410  0.15548981  0.32155821  1
  In  In3  1  0.32816981  0.82879881  0.79903138  1
  In  In4  1  0.69536285  0.63949120  0.29870727  1
  In  In5  1  0.87856003  0.22798667  0.66786731  1
  In  In6  1  0.70004393  -0.00126530  0.00970625  1
  In  In7  1  0.01585366  0.02876112  0.66492090  1
  In  In8  1  0.16516234  0.35335567  0.82793802  1
  In  In9  1  0.65069923  0.34411594  0.31152192  1
  In  In10  1  0.30816954  -0.02436029  0.64746807  1
  In  In11  1  0.48240695  0.17607857  0.67525726  1
  In  In12  1  0.49861729  0.77900903  0.64331391  1
  In  In13  1  0.52270789  0.81180310  0.01228644  1
  In  In14  1  0.65119454  0.84309025  0.16783480  1
  In  In15  1  0.32263121  0.79290766  0.49235500  1
  In  In16  1  0.01887548  0.36501345  -0.02499155  1
  In  In17  1  0.34373519  0.48278596  0.15612833  1
  In  In18  1  0.50499733  0.36237157  0.50341273  1
  In  In19  1  0.83776759  0.81716957  0.01822572  1
  In  In20  1  0.49607924  0.52917672  0.65544893  1
  In  In21  1  0.70185553  0.66253052  0.66571866  1
  In  In22  1  0.82458800  0.33130421  0.18289000  1
  In  In23  1  -0.01114224  0.18103767  0.17988536  1
  In  In24  1  0.69348327  0.19161733  0.81770967  1
  In  In25  1  0.68107345  0.35199645  0.01086737  1
  In  In26  1  0.52325101  0.19088321  -0.00873320  1
  In  In27  1  0.49863903  0.46702533  0.00911555  1
  In  In28  1  0.82662371  0.65886948  0.49998781  1
  In  In29  1  0.31342778  0.83587717  0.17581583  1
  In  In30  1  0.13870157  0.81104666  0.33981339  1
  In  In31  1  0.71499043  0.46769261  0.80977774  1
  In  In32  1  -0.03758813  0.87105610  0.27829870  1
  In  In33  1  0.48083142  0.02571530  0.86391279  1
  In  In34  1  0.17886606  0.83646983  -0.00533680  1
  In  In35  1  0.31520034  0.65350173  -0.01369682  1
  In  In36  1  0.18800819  0.55123393  0.35905783  1
  In  In37  1  0.01053162  0.33345860  0.36838204  1
  In  In38  1  0.85098174  -0.00972187  0.85304169  1
  In  In39  1  -0.02637032  0.66333615  0.32684100  1
  In  In40  1  0.15338662  0.83958261  0.66763093  1
  In  In41  1  0.12798552  0.22040539  0.67178795  1
  In  In42  1  0.51437591  0.00477750  0.51650117  1
  In  In43  1  0.00741989  0.03683349  0.01317505  1
  In  In44  1  -0.02804830  0.51607366  0.81468965  1
  In  In45  1  0.14422202  0.61023234  0.75648969  1
  In  In46  1  0.68494367  0.82678513  0.48593984  1
  In  In47  1  0.83932541  -0.00846795  0.49832297  1
  In  In48  1  0.31447699  -0.01473148  0.32786025  1
  In  In49  1  0.31459224  0.31827931  0.30778696  1
  In  In50  1  0.01775954  0.63224017  0.01594678  1
  In  In51  1  0.84599619  0.15929268  0.00543284  1
  In  In52  1  0.16602610  0.67606379  0.17758240  1
  In  In53  1  0.67620866  0.63523180  -0.01425302  1
  In  In54  1  0.49337583  0.66934854  0.81060279  1
  In  In55  1  0.83777744  0.02365165  0.17914038  1
  In  In56  1  0.68320234  0.81111530  0.77884823  1
  In  In57  1  0.48322225  0.18875811  0.33748871  1
  In  In58  1  0.01124022  0.52000465  0.50495777  1
  In  In59  1  0.14597121  0.02711720  0.48805875  1
  In  In60  1  0.48758055  0.49152955  0.33692316  1
  In  In61  1  0.46604841  0.02595891  0.18129488  1
  In  In62  1  0.84829500  0.82414317  0.64069855  1
  In  In63  1  0.67143424  0.50165362  0.50795247  1
  In  In64  1  -0.01265725  0.47779983  0.15383484  1
  In  In65  1  -0.00403680  0.82599801  0.85631004  1
  In  In66  1  0.34485923  -0.00505385  -0.01205736  1
  In  In67  1  0.32699631  0.18020437  0.84355297  1
  In  In68  1  0.63872845  0.01011823  0.68928564  1
  In  In69  1  0.83703090  0.34764053  0.50333911  1
  In  In70  1  0.49759108  0.65923268  0.17139544  1
  In  In71  1  0.65851077  -0.00478572  0.34720376  1
  Te  Te72  1  0.09250657  0.12286273  0.09285211  1
  Te  Te73  1  0.04443937  0.09396184  0.40584752  1
  Te  Te74  1  0.08977380  0.10925534  0.75980427  1
  Te  Te75  1  0.10054419  0.41913392  0.08369184  1
  Te  Te76  1  0.11150049  0.43867791  0.42431967  1
  Te  Te77  1  0.04825123  0.40612563  0.74297541  1
  Te  Te78  1  0.08263090  0.75665477  0.08049402  1
  Te  Te79  1  0.06818111  0.71804879  0.42768621  1
  Te  Te80  1  0.06837869  0.74614438  0.75226982  1
  Te  Te81  1  0.41739250  0.10642460  0.06494024  1
  Te  Te82  1  0.41071090  0.07358198  0.42157772  1
  Te  Te83  1  0.40510573  0.06028380  0.73718406  1
  Te  Te84  1  0.37686361  0.39043374  0.04439044  1
  Te  Te85  1  0.39207780  0.40278253  0.41277497  1
  Te  Te86  1  0.42726876  0.44132278  0.74900033  1
  Te  Te87  1  0.39732057  0.74738293  0.08354789  1
  Te  Te88  1  0.42492549  0.70128991  0.44189251  1
  Te  Te89  1  0.38211367  0.71239005  0.71704251  1
  Te  Te90  1  0.73938636  0.11015913  0.10263990  1
  Te  Te91  1  0.73871865  0.07715204  0.43675746  1
  Te  Te92  1  0.76014196  0.07034789  0.75699097  1
  Te  Te93  1  0.75288293  0.44111836  0.10784853  1
  Te  Te94  1  0.74404461  0.42070315  0.40466623  1
  Te  Te95  1  0.80369337  0.36915524  0.73816442  1
  Te  Te96  1  0.72821699  0.74042216  0.08761881  1
  Te  Te97  1  0.76446317  0.74297220  0.38953777  1
  Te  Te98  1  0.80788391  0.72439443  0.75955816  1
  Te  Te99  1  0.08628481  0.27373971  0.25116890  1
  Te  Te100  1  0.03039775  0.26658906  0.56028695  1
  Te  Te101  1  0.09714179  0.25686258  0.91590869  1
  Te  Te102  1  0.07645044  0.57722907  0.25020208  1
  Te  Te103  1  0.10248926  0.56878441  0.61428383  1
  Te  Te104  1  0.08950545  0.57409283  0.89558113  1
  Te  Te105  1  0.09710917  0.91842349  0.25027145  1
  Te  Te106  1  0.07079342  0.92407104  0.57160861  1
  Te  Te107  1  0.07879164  0.92862868  0.92702871  1
  Te  Te108  1  0.43987700  0.27549614  0.22253427  1
  Te  Te109  1  0.40906982  0.27793886  0.59068561  1
  Te  Te110  1  0.44603331  0.25757188  0.88400491  1
  Te  Te111  1  0.39855383  0.58606509  0.25570652  1
  Te  Te112  1  0.41978701  0.57859033  0.53888841  1
  Te  Te113  1  0.43833482  0.58833885  0.92787636  1
  Te  Te114  1  0.42185972  0.90257619  0.25850882  1
  Te  Te115  1  0.41820349  0.89853232  0.57778822  1
  Te  Te116  1  0.42010125  0.88477725  0.90689220  1
  Te  Te117  1  0.74188741  0.24058478  0.26133775  1
  Te  Te118  1  0.75400545  0.27333094  0.60424473  1
  Te  Te119  1  0.77078518  0.26352158  0.92395123  1
  Te  Te120  1  0.77650711  0.55834071  0.20858126  1
  Te  Te121  1  0.78571920  0.54611204  0.60522930  1
  Te  Te122  1  0.77829150  0.55495717  0.91419105  1
  Te  Te123  1  0.74925273  0.92097572  0.25099556  1
  Te  Te124  1  0.72869322  0.91348711  0.60195041  1
  Te  Te125  1  0.74787222  0.89250740  0.90930697  1
  Te  Te126  1  0.29568641  0.24100371  0.18132681  1
  Te  Te127  1  0.22866413  0.24611055  0.41669320  1
  Te  Te128  1  0.25999973  0.26823574  0.74285883  1
  Te  Te129  1  0.23805650  0.57707670  0.08777100  1
  Te  Te130  1  0.28957138  0.60425958  0.45411912  1
  Te  Te131  1  0.24415189  0.51918348  0.69231313  1
  Te  Te132  1  0.24397754  0.93579362  0.08912277  1
  Te  Te133  1  0.23719924  0.91187675  0.43394458  1
  Te  Te134  1  0.22423816  0.93369981  0.76582936  1
  Te  Te135  1  0.58887122  0.27132327  0.09318270  1
  Te  Te136  1  0.58252960  0.25978839  0.42575305  1
  Te  Te137  1  0.57397725  0.25495078  0.76114717  1
  Te  Te138  1  0.58279987  0.56957865  0.08619021  1
  Te  Te139  1  0.59871478  0.57634478  0.39838902  1
  Te  Te140  1  0.61153671  0.58226644  0.75857281  1
  Te  Te141  1  0.57175214  0.94279552  0.08296082  1
  Te  Te142  1  0.56747037  0.89844286  0.42225487  1
  Te  Te143  1  0.56020149  0.88857093  0.73665337  1
  Te  Te144  1  0.92056819  0.27099142  0.07491072  1
  Te  Te145  1  0.90265542  0.24693167  0.41797455  1
  Te  Te146  1  0.93918693  0.30294803  0.77936952  1
  Te  Te147  1  0.90625091  0.59650342  0.11123013  1
  Te  Te148  1  0.89737404  0.56158115  0.40899809  1
  Te  Te149  1  0.88867003  0.58734199  0.71547034  1
  Te  Te150  1  0.90947448  0.93753527  0.07676805  1
  Te  Te151  1  0.91670501  0.89718033  0.41672813  1
  Te  Te152  1  0.92472121  0.91400842  0.74483562  1
  Te  Te153  1  0.26557975  0.09563403  0.24206421  1
  Te  Te154  1  0.24244894  0.09569205  0.58316612  1
  Te  Te155  1  0.25078571  0.08953290  0.92801824  1
  Te  Te156  1  0.24180322  0.44555639  0.26148424  1
  Te  Te157  1  0.16079906  0.33330419  0.58295016  1
  Te  Te158  1  0.26369747  0.41998935  0.91874501  1
  Te  Te159  1  0.25896493  0.74086288  0.27915475  1
  Te  Te160  1  0.23102772  0.73968130  0.59260810  1
  Te  Te161  1  0.23934746  0.74347275  0.89153889  1
  Te  Te162  1  0.57372753  0.09170181  0.26156298  1
  Te  Te163  1  0.59147483  0.11246400  0.58764799  1
  Te  Te164  1  0.61395754  0.08115389  0.91170812  1
  Te  Te165  1  0.55593226  0.41987631  0.22745959  1
  Te  Te166  1  0.59602147  0.42006855  0.60896267  1
  Te  Te167  1  0.59979979  0.42360252  0.90522237  1
  Te  Te168  1  0.58346804  0.74426763  0.26010748  1
  Te  Te169  1  0.60782524  0.71716706  0.56006206  1
  Te  Te170  1  0.60138563  0.74075662  0.90022654  1
  Te  Te171  1  0.92658461  0.08758940  0.27706320  1
  Te  Te172  1  0.89961158  0.09215206  0.59541948  1
  Te  Te173  1  0.93611147  0.10644916  0.89565371  1
  Te  Te174  1  0.92001898  0.41018648  0.27004245  1
  Te  Te175  1  0.95318786  0.40496882  0.58313042  1
  Te  Te176  1  0.90594060  0.45260322  0.93324769  1
  Te  Te177  1  0.91297549  0.74661669  0.22067772  1
  Te  Te178  1  0.93477551  0.73702715  0.56250667  1
  Te  Te179  1  0.91926241  0.72247180  0.93512952  1
