# generated using pymatgen
data_In2Te3
_symmetry_space_group_name_H-M   'P 1'
_cell_length_a   19.04946405
_cell_length_b   18.98045299
_cell_length_c   19.03236809
_cell_angle_alpha   90.11396071
_cell_angle_beta   90.41634074
_cell_angle_gamma   90.16060445
_symmetry_Int_Tables_number   1
_chemical_formula_structural   In2Te3
_chemical_formula_sum   'In72 Te108'
_cell_volume   6881.26232461
_cell_formula_units_Z   36
loop_
 _symmetry_equiv_pos_site_id
 _symmetry_equiv_pos_as_xyz
  1  'x, y, z'
loop_
 _atom_site_type_symbol
 _atom_site_label
 _atom_site_symmetry_multiplicity
 _atom_site_fract_x
 _atom_site_fract_y
 _atom_site_fract_z
 _atom_site_occupancy
  In  In0  1  0.02909062  -0.01217819  0.63190480  1
  In  In1  1  0.51510175  0.83745762  -0.00245993  1
  In  In2  1  0.18621352  0.34342777  0.15877252  1
  In  In3  1  0.34283491  0.50785348  0.82384770  1
  In  In4  1  0.48664554  0.51619432  0.64284670  1
  In  In5  1  0.16541988  0.16896190  -0.01796549  1
  In  In6  1  0.13690508  0.67310492  0.18648846  1
  In  In7  1  0.68558355  0.81972945  0.18934242  1
  In  In8  1  0.15780046  0.69015469  0.51086256  1
  In  In9  1  0.67377536  0.48086123  0.83831047  1
  In  In10  1  0.00808835  0.36572047  0.33041563  1
  In  In11  1  0.16938369  0.47699702  0.63267073  1
  In  In12  1  0.68862123  -0.02146570  0.67144755  1
  In  In13  1  0.48416593  0.15859430  0.33430355  1
  In  In14  1  0.68435598  0.67279279  0.66095380  1
  In  In15  1  0.66669080  0.50775455  0.49528414  1
  In  In16  1  0.83230657  0.34516140  0.49293382  1
  In  In17  1  0.50836884  0.65703818  0.85314396  1
  In  In18  1  0.68268190  0.50860307  0.18652892  1
  In  In19  1  0.80788687  0.15873492  0.32798569  1
  In  In20  1  0.16965217  0.14614244  0.33517891  1
  In  In21  1  0.84203157  -0.00002860  0.83838452  1
  In  In22  1  0.66745693  0.32922091  0.36293455  1
  In  In23  1  0.00707635  0.55698725  0.72913015  1
  In  In24  1  0.84226745  0.18635605  0.64305922  1
  In  In25  1  0.00173926  0.51446469  0.17719742  1
  In  In26  1  0.33988177  0.33785316  -0.00119135  1
  In  In27  1  0.19404419  0.68227402  0.80914235  1
  In  In28  1  0.47876482  0.31175337  0.50494779  1
  In  In29  1  0.81702497  0.48432676  0.00454194  1
  In  In30  1  0.49617157  -0.05605891  0.50850719  1
  In  In31  1  0.53162871  0.29643245  0.89127474  1
  In  In32  1  -0.00629343  0.19402693  0.14925953  1
  In  In33  1  0.87544617  0.76278447  0.38490346  1
  In  In34  1  0.82060682  0.15320637  -0.00845022  1
  In  In35  1  0.35421407  -0.01640109  -0.00256741  1
  In  In36  1  0.33679926  0.72459723  0.36723604  1
  In  In37  1  0.18548918  0.14116505  0.65132132  1
  In  In38  1  0.68722980  0.67270567  0.32886784  1
  In  In39  1  -0.01077243  -0.00974631  0.01900760  1
  In  In40  1  0.33698610  0.84094734  0.15122165  1
  In  In41  1  0.65973772  0.13431573  0.85560980  1
  In  In42  1  0.15110412  0.82162013  -0.00799382  1
  In  In43  1  0.34019105  0.49902927  0.19186791  1
  In  In44  1  0.33110039  0.13349463  0.80157146  1
  In  In45  1  -0.00811642  0.16257572  0.49879177  1
  In  In46  1  -0.01501329  0.80151975  0.80989823  1
  In  In47  1  0.31724129  0.67741792  -0.01524145  1
  In  In48  1  0.81164819  0.01383215  0.16715614  1
  In  In49  1  0.83604991  0.34405385  0.82391763  1
  In  In50  1  0.52722342  0.83166667  0.70406372  1
  In  In51  1  0.30959473  0.50983725  0.48022584  1
  In  In52  1  0.16429883  -0.02674120  0.79815654  1
  In  In53  1  -0.02110826  0.33026242  -0.02049234  1
  In  In54  1  -0.01388132  0.35632914  0.65733556  1
  In  In55  1  0.51750303  0.30725973  0.14970862  1
  In  In56  1  0.14849349  0.85160593  0.35405253  1
  In  In57  1  0.34698244  0.69337032  0.64088469  1
  In  In58  1  0.51926075  0.01069537  0.14703191  1
  In  In59  1  0.65154331  -0.00379497  0.34986612  1
  In  In60  1  0.16852081  0.51250687  -0.00057512  1
  In  In61  1  0.34475946  -0.03359080  0.33362859  1
  In  In62  1  -0.03178147  -0.02131036  0.34577313  1
  In  In63  1  0.15894861  0.32002135  0.47132110  1
  In  In64  1  0.50275891  0.51771956  0.32717875  1
  In  In65  1  0.52547203  0.14015851  0.68200153  1
  In  In66  1  0.82738417  0.82842616  0.64935288  1
  In  In67  1  0.35576592  0.30645185  0.68417386  1
  In  In68  1  0.15113586  -0.00963848  0.20620711  1
  In  In69  1  -0.01903426  0.67440175  -0.03598872  1
  In  In70  1  0.30958332  0.32540249  0.32645793  1
  In  In71  1  0.67993009  0.65366672  0.03400294  1
  Te  Te72  1  0.08990976  0.08687824  0.09503591  1
  Te  Te73  1  0.07317434  0.06496353  0.41802750  1
  Te  Te74  1  0.07753431  0.08320980  0.74014376  1
  Te  Te75  1  0.08223450  0.41183327  0.07327107  1
  Te  Te76  1  0.08404772  0.43859969  0.43261835  1
  Te  Te77  1  0.08668694  0.42541312  0.74746251  1
  Te  Te78  1  0.05720640  0.74650390  0.08106575  1
  Te  Te79  1  0.05582638  0.76433764  0.42969689  1
  Te  Te80  1  0.10383986  0.76902303  0.72595504  1
  Te  Te81  1  0.42245582  0.09173384  0.06919666  1
  Te  Te82  1  0.42492554  0.05665704  0.42530407  1
  Te  Te83  1  0.45482990  0.05864763  0.78228354  1
  Te  Te84  1  0.42323111  0.41884672  0.09649041  1
  Te  Te85  1  0.41168912  0.41378882  0.40595174  1
  Te  Te86  1  0.43651686  0.41537634  0.75027351  1
  Te  Te87  1  0.42044964  0.74364920  0.07430844  1
  Te  Te88  1  0.42521511  0.82131379  0.43593887  1
  Te  Te89  1  0.41679484  0.74134398  0.76681936  1
  Te  Te90  1  0.72336989  0.10625969  0.09223369  1
  Te  Te91  1  0.75903313  0.06502258  0.42564255  1
  Te  Te92  1  0.76266205  0.09859063  0.74321215  1
  Te  Te93  1  0.71044831  0.41446786  0.07744457  1
  Te  Te94  1  0.76174569  0.44330396  0.39819709  1
  Te  Te95  1  0.76077017  0.42934331  0.72996432  1
  Te  Te96  1  0.77227751  0.75485626  0.08947141  1
  Te  Te97  1  0.73827878  0.75150228  0.44979808  1
  Te  Te98  1  0.75756784  0.75692350  0.75864276  1
  Te  Te99  1  0.09881692  0.25272682  0.25204445  1
  Te  Te100  1  0.08440520  0.25094970  0.58269402  1
  Te  Te101  1  0.08376022  0.26151178  0.90625092  1
  Te  Te102  1  0.03463699  0.61831890  0.27909788  1
  Te  Te103  1  0.07860307  0.59133665  0.59532433  1
  Te  Te104  1  0.10069872  0.60257908  0.89743450  1
  Te  Te105  1  0.04342268  0.89468027  0.24449955  1
  Te  Te106  1  0.10938270  0.86734196  0.60609058  1
  Te  Te107  1  0.06847608  0.91502963  0.90597460  1
  Te  Te108  1  0.40748152  0.24991828  0.24122484  1
  Te  Te109  1  0.41687680  0.20466537  0.59269507  1
  Te  Te110  1  0.39436814  0.23859048  0.89997686  1
  Te  Te111  1  0.39735046  0.61262444  0.27454511  1
  Te  Te112  1  0.41482208  0.60267724  0.54049463  1
  Te  Te113  1  0.41716675  0.57243533  0.93935408  1
  Te  Te114  1  0.44200796  0.91022210  0.23315662  1
  Te  Te115  1  0.42496812  0.91981103  0.63745417  1
  Te  Te116  1  0.43894151  0.91792979  0.90012978  1
  Te  Te117  1  0.73867648  0.26235633  0.25508646  1
  Te  Te118  1  0.74193198  0.26202571  0.57019878  1
  Te  Te119  1  0.74817616  0.25296422  0.90422410  1
  Te  Te120  1  0.78742471  0.60337010  0.24040481  1
  Te  Te121  1  0.75141051  0.54896366  0.61123197  1
  Te  Te122  1  0.75209675  0.58591969  0.91390703  1
  Te  Te123  1  0.76121067  0.92041540  0.27440131  1
  Te  Te124  1  0.72573938  0.88769662  0.56021461  1
  Te  Te125  1  0.71538703  0.96977897  0.90159161  1
  Te  Te126  1  0.25886083  0.23853486  0.08092477  1
  Te  Te127  1  0.26388153  0.22127449  0.42936626  1
  Te  Te128  1  0.23666336  0.24370175  0.75188353  1
  Te  Te129  1  0.24587607  0.59677052  0.10044763  1
  Te  Te130  1  0.23405255  0.61554885  0.40520867  1
  Te  Te131  1  0.26361015  0.57850885  0.71490164  1
  Te  Te132  1  0.22602730  0.91998585  0.08421386  1
  Te  Te133  1  0.23408461  0.94624189  0.43050653  1
  Te  Te134  1  0.27677255  0.94286693  0.70751245  1
  Te  Te135  1  0.59661648  0.21727042  0.06287414  1
  Te  Te136  1  0.57929400  0.22703738  0.43231367  1
  Te  Te137  1  0.59441252  0.24888398  0.76455620  1
  Te  Te138  1  0.57953384  0.59434332  0.12500939  1
  Te  Te139  1  0.58123258  0.60640371  0.41942678  1
  Te  Te140  1  0.57990752  0.57507720  0.74880625  1
  Te  Te141  1  0.61302502  0.91036574  0.08663768  1
  Te  Te142  1  0.57181354  0.87943322  0.39639513  1
  Te  Te143  1  0.62015083  0.91809422  0.78811093  1
  Te  Te144  1  0.88481094  0.26712515  0.07823635  1
  Te  Te145  1  0.92346699  0.25346547  0.40056759  1
  Te  Te146  1  0.92876889  0.25139328  0.74895583  1
  Te  Te147  1  0.92175564  0.57808583  0.06608453  1
  Te  Te148  1  0.84920489  0.64669086  0.47819663  1
  Te  Te149  1  0.90349499  0.66053347  0.74955955  1
  Te  Te150  1  0.87527057  0.91932635  0.07393877  1
  Te  Te151  1  0.93282130  0.88412224  0.45229487  1
  Te  Te152  1  0.92502552  0.92661042  0.73377905  1
  Te  Te153  1  0.26875228  0.07394079  0.24763520  1
  Te  Te154  1  0.24393166  0.02651968  0.58337056  1
  Te  Te155  1  0.24257937  0.05838618  0.90744266  1
  Te  Te156  1  0.22542533  0.43985892  0.26876726  1
  Te  Te157  1  0.28126213  0.39330257  0.57690315  1
  Te  Te158  1  0.25037896  0.42304952  0.91037088  1
  Te  Te159  1  0.23986116  0.77380817  0.25149303  1
  Te  Te160  1  0.25117393  0.78587525  0.57691279  1
  Te  Te161  1  0.26262981  0.78740688  0.89697527  1
  Te  Te162  1  0.59148891  0.09498614  0.25108653  1
  Te  Te163  1  0.59155144  0.05100862  0.58152925  1
  Te  Te164  1  0.55649912  0.11219441  0.95895552  1
  Te  Te165  1  0.57472715  0.40233153  0.26186931  1
  Te  Te166  1  0.57019032  0.41268481  0.57109099  1
  Te  Te167  1  0.58874824  0.42110540  0.94338970  1
  Te  Te168  1  0.58244207  0.72255056  0.23622302  1
  Te  Te169  1  0.56892928  0.73787503  0.60008246  1
  Te  Te170  1  0.60786893  0.74185071  0.92662917  1
  Te  Te171  1  0.92901094  0.09218526  0.24125984  1
  Te  Te172  1  0.90760610  0.06683340  0.57648568  1
  Te  Te173  1  0.93668101  0.09107745  0.91928875  1
  Te  Te174  1  0.91222914  0.41414304  0.23355356  1
  Te  Te175  1  0.92753145  0.43947333  0.55388973  1
  Te  Te176  1  0.92183399  0.44385848  0.89794016  1
  Te  Te177  1  0.89932117  0.70964281  0.24854128  1
  Te  Te178  1  0.91099829  0.71444346  0.60545955  1
  Te  Te179  1  0.89162210  0.78160932  0.91985656  1
