# generated using pymatgen
data_In2Te3
_symmetry_space_group_name_H-M   'P 1'
_cell_length_a   18.95995118
_cell_length_b   18.96265146
_cell_length_c   18.96493161
_cell_angle_alpha   89.80743013
_cell_angle_beta   89.88516909
_cell_angle_gamma   89.93841940
_symmetry_Int_Tables_number   1
_chemical_formula_structural   In2Te3
_chemical_formula_sum   'In72 Te108'
_cell_volume   6818.42370472
_cell_formula_units_Z   36
loop_
 _symmetry_equiv_pos_site_id
 _symmetry_equiv_pos_as_xyz
  1  'x, y, z'
loop_
 _atom_site_type_symbol
 _atom_site_label
 _atom_site_symmetry_multiplicity
 _atom_site_fract_x
 _atom_site_fract_y
 _atom_site_fract_z
 _atom_site_occupancy
  In  In0  1  0.68980819  0.47126670  0.82614983  1
  In  In1  1  0.14546839  0.02941689  0.81003273  1
  In  In2  1  0.14009551  0.66427005  0.84121273  1
  In  In3  1  -0.01010239  0.85440518  0.84959310  1
  In  In4  1  0.34508415  0.65127700  0.33794134  1
  In  In5  1  0.85781303  0.18515098  0.35585592  1
  In  In6  1  0.49516228  0.84891091  0.69220884  1
  In  In7  1  0.31571245  0.66186705  -0.00863799  1
  In  In8  1  0.00860994  0.35450764  0.00200770  1
  In  In9  1  0.67243270  0.66840558  0.31618502  1
  In  In10  1  0.85743677  0.63180110  0.48035234  1
  In  In11  1  0.14885367  0.50027894  0.67435493  1
  In  In12  1  0.18095373  0.50298358  0.01259481  1
  In  In13  1  0.48595702  0.17794967  0.32288508  1
  In  In14  1  0.00332506  0.84439418  0.17640900  1
  In  In15  1  0.49867015  0.86303872  0.01865085  1
  In  In16  1  0.67781133  0.02029583  0.68547064  1
  In  In17  1  0.16092023  0.67439945  0.50124254  1
  In  In18  1  0.15483574  0.83767279  0.32682069  1
  In  In19  1  0.14869326  0.67170677  0.16269719  1
  In  In20  1  0.01374485  0.15785818  0.16659218  1
  In  In21  1  0.34606299  0.31359878  0.65745906  1
  In  In22  1  0.52490742  0.18502386  0.64560962  1
  In  In23  1  0.18048214  0.84979792  0.64222813  1
  In  In24  1  0.65511599  0.34257781  0.34885319  1
  In  In25  1  0.18602146  0.18013062  0.32582354  1
  In  In26  1  0.35015204  0.02139642  0.66640963  1
  In  In27  1  0.57431362  0.05586339  0.01103025  1
  In  In28  1  0.20265782  0.46188906  0.32181646  1
  In  In29  1  -0.00713364  0.31407488  0.36421067  1
  In  In30  1  0.66979992  0.68145917  0.67892313  1
  In  In31  1  0.48930358  0.32535871  0.81912310  1
  In  In32  1  0.84190021  0.16863260  -0.00951272  1
  In  In33  1  0.31594664  -0.00354522  0.30913550  1
  In  In34  1  0.81951716  0.00439809  0.17030900  1
  In  In35  1  0.00735905  0.48355060  0.17502322  1
  In  In36  1  0.83451568  0.83087331  -0.00152059  1
  In  In37  1  0.82485063  0.35396057  0.17553340  1
  In  In38  1  0.01865656  0.48741078  0.83819388  1
  In  In39  1  0.68120890  0.85014601  0.81860710  1
  In  In40  1  0.61021601  0.26701601  -0.01320450  1
  In  In41  1  0.50973730  0.46322340  0.66094098  1
  In  In42  1  0.16304865  0.15945081  -0.00184930  1
  In  In43  1  0.65370680  0.84896613  0.48887269  1
  In  In44  1  0.47866151  0.47780355  0.01704207  1
  In  In45  1  0.48031614  -0.00012360  0.49385378  1
  In  In46  1  0.18554089  0.02357068  0.49006410  1
  In  In47  1  0.35481606  0.45726193  0.48190883  1
  In  In48  1  0.85198548  0.82089753  0.34494331  1
  In  In49  1  0.87440514  0.47976212  0.64258632  1
  In  In50  1  -0.00222516  0.66543836  0.67439056  1
  In  In51  1  0.67467284  0.68063776  0.00862474  1
  In  In52  1  0.84874948  0.82585128  0.68400170  1
  In  In53  1  0.66211181  0.50045329  0.18422801  1
  In  In54  1  0.49129154  0.66113854  0.18850354  1
  In  In55  1  0.03106959  0.84352257  0.49786893  1
  In  In56  1  0.66291371  0.49266389  0.52271308  1
  In  In57  1  0.33967953  0.02705191  0.00536325  1
  In  In58  1  0.84951175  -0.01074837  0.50937645  1
  In  In59  1  0.15743601  0.31273699  0.50094069  1
  In  In60  1  0.32034687  0.84492273  0.14611797  1
  In  In61  1  0.50495862  0.65213571  0.85432559  1
  In  In62  1  0.67359646  0.01727805  0.34235497  1
  In  In63  1  0.49933688  0.64731915  0.48462113  1
  In  In64  1  -0.00107562  0.16487218  0.51325432  1
  In  In65  1  0.33605381  0.82347363  0.84056549  1
  In  In66  1  0.84743972  0.29746095  0.80493425  1
  In  In67  1  0.16821436  0.30171246  0.81417959  1
  In  In68  1  0.30755178  0.31740229  -0.00389629  1
  In  In69  1  0.82856297  0.49635986  0.02086781  1
  In  In70  1  0.64262942  0.18853442  0.16304984  1
  In  In71  1  0.84568354  0.02698634  0.82806276  1
  Te  Te72  1  0.08866501  0.06364301  0.08406773  1
  Te  Te73  1  0.08273823  0.09750282  0.40712048  1
  Te  Te74  1  0.06596623  0.13141797  0.73789975  1
  Te  Te75  1  0.11151415  0.40041923  0.10089789  1
  Te  Te76  1  0.09085249  0.41885737  0.41670917  1
  Te  Te77  1  0.06764830  0.38743764  0.73662790  1
  Te  Te78  1  0.08214161  0.76793191  0.07736927  1
  Te  Te79  1  0.06790067  0.73438370  0.39852929  1
  Te  Te80  1  0.08551471  0.76994291  0.73755877  1
  Te  Te81  1  0.44836368  0.09742040  0.07875189  1
  Te  Te82  1  0.39501733  0.08585811  0.40583218  1
  Te  Te83  1  0.44568798  0.10123345  0.74115282  1
  Te  Te84  1  0.37524157  0.40796442  0.09661198  1
  Te  Te85  1  0.44211590  0.42134021  0.36811225  1
  Te  Te86  1  0.39649559  0.42435198  0.75252355  1
  Te  Te87  1  0.42273019  0.74015943  0.06719428  1
  Te  Te88  1  0.42614726  0.74884073  0.41050543  1
  Te  Te89  1  0.41982862  0.73033941  0.75460328  1
  Te  Te90  1  0.74097238  0.09987350  0.08108074  1
  Te  Te91  1  0.76424610  0.09244472  0.43596291  1
  Te  Te92  1  0.74421403  0.11853881  0.76974522  1
  Te  Te93  1  0.72267634  0.40340093  0.07682544  1
  Te  Te94  1  0.75074148  0.42349347  0.42658228  1
  Te  Te95  1  0.76916768  0.39862326  0.71885796  1
  Te  Te96  1  0.75447784  0.75924322  0.09933731  1
  Te  Te97  1  0.74768397  0.74218763  0.43626638  1
  Te  Te98  1  0.77160968  0.73463391  0.77723778  1
  Te  Te99  1  0.08124744  0.26293904  0.25179096  1
  Te  Te100  1  0.10943590  0.21358234  0.60304532  1
  Te  Te101  1  0.06729905  0.24674894  0.91566952  1
  Te  Te102  1  0.10289900  0.56483702  0.25985683  1
  Te  Te103  1  0.06647887  0.57812693  0.57216094  1
  Te  Te104  1  0.06835220  0.58023893  0.94670142  1
  Te  Te105  1  0.09402808  0.93969512  0.24298888  1
  Te  Te106  1  0.08521381  0.95331530  0.58546104  1
  Te  Te107  1  0.08962383  0.94001738  0.91218653  1
  Te  Te108  1  0.38490613  0.29065415  0.30216861  1
  Te  Te109  1  0.43366136  0.26062221  0.55216565  1
  Te  Te110  1  0.40990448  0.24413483  0.91501844  1
  Te  Te111  1  0.42603464  0.55063580  0.26323446  1
  Te  Te112  1  0.42051845  0.55777208  0.57726559  1
  Te  Te113  1  0.39977403  0.56169859  0.91513754  1
  Te  Te114  1  0.41249598  0.91876882  0.23001231  1
  Te  Te115  1  0.40435369  0.90480936  0.58421724  1
  Te  Te116  1  0.41691354  0.92934167  0.91119470  1
  Te  Te117  1  0.75651204  0.24328923  0.25566735  1
  Te  Te118  1  0.65027898  0.26278656  0.59308026  1
  Te  Te119  1  0.74807551  0.25822565  0.91384778  1
  Te  Te120  1  0.76625802  0.58491780  0.23973681  1
  Te  Te121  1  0.76151513  0.58985571  0.59966342  1
  Te  Te122  1  0.74569155  0.57560066  0.91977756  1
  Te  Te123  1  0.75272763  0.91040724  0.26942894  1
  Te  Te124  1  0.74578339  0.90464689  0.59950218  1
  Te  Te125  1  0.75839796  0.93422814  0.91404284  1
  Te  Te126  1  0.25621364  0.21956618  0.09775702  1
  Te  Te127  1  0.26963993  0.25695674  0.42168973  1
  Te  Te128  1  0.27602821  0.22404434  0.75141359  1
  Te  Te129  1  0.26304139  0.58435412  0.10976696  1
  Te  Te130  1  0.25400590  0.56793213  0.42922857  1
  Te  Te131  1  0.23105562  0.58877885  0.75606914  1
  Te  Te132  1  0.24034412  0.93972600  0.07008534  1
  Te  Te133  1  0.25171372  0.90767118  0.41951712  1
  Te  Te134  1  0.25752554  0.92178042  0.75283019  1
  Te  Te135  1  0.52148799  0.25248162  0.10490783  1
  Te  Te136  1  0.59626666  0.22224890  0.40983195  1
  Te  Te137  1  0.60704033  0.27465628  0.74077582  1
  Te  Te138  1  0.57532628  0.58283216  0.07568911  1
  Te  Te139  1  0.59800996  0.56875953  0.40538515  1
  Te  Te140  1  0.58844227  0.57048902  0.74719696  1
  Te  Te141  1  0.61217784  0.93089849  0.07728145  1
  Te  Te142  1  0.56346752  0.92060568  0.39387544  1
  Te  Te143  1  0.57445449  0.94841799  0.77307890  1
  Te  Te144  1  0.91739135  0.26495206  0.09369318  1
  Te  Te145  1  0.88892160  0.27817840  0.47791087  1
  Te  Te146  1  0.93015265  0.20820464  0.72296424  1
  Te  Te147  1  0.92090335  0.57597681  0.10019589  1
  Te  Te148  1  0.91071518  0.54045846  0.38481714  1
  Te  Te149  1  0.91846338  0.57016890  0.75989105  1
  Te  Te150  1  0.91364660  0.93056975  0.08056213  1
  Te  Te151  1  0.94088721  0.92696093  0.40739135  1
  Te  Te152  1  0.93146506  0.93804738  0.73599983  1
  Te  Te153  1  0.26658691  0.10854284  0.22325030  1
  Te  Te154  1  0.25788137  0.10633930  0.58759526  1
  Te  Te155  1  0.25449596  0.09368844  0.89553358  1
  Te  Te156  1  0.27655791  0.37579264  0.22854224  1
  Te  Te157  1  0.24391385  0.41425740  0.58739056  1
  Te  Te158  1  0.23055696  0.41167980  0.90341705  1
  Te  Te159  1  0.25639874  0.74667406  0.25374703  1
  Te  Te160  1  0.25869374  0.74037382  0.58567798  1
  Te  Te161  1  0.22594157  0.76240677  0.92482342  1
  Te  Te162  1  0.57611624  0.07872178  0.24530369  1
  Te  Te163  1  0.59299319  0.06500465  0.56829088  1
  Te  Te164  1  0.55249298  0.15600841  0.90282793  1
  Te  Te165  1  0.57010077  0.40096765  0.24212319  1
  Te  Te166  1  0.56088001  0.38019927  0.54605969  1
  Te  Te167  1  0.57781158  0.41575474  0.91438709  1
  Te  Te168  1  0.58061572  0.75887728  0.24716783  1
  Te  Te169  1  0.57446608  0.75853667  0.59052371  1
  Te  Te170  1  0.58610598  0.76697312  0.90992915  1
  Te  Te171  1  0.91550797  0.08462800  0.25688197  1
  Te  Te172  1  0.89485739  0.09855340  0.59957236  1
  Te  Te173  1  0.94062145  0.08542081  0.92359908  1
  Te  Te174  1  0.90715412  0.41930399  0.28454710  1
  Te  Te175  1  0.95446149  0.38832103  0.56409022  1
  Te  Te176  1  0.90137384  0.40793369  0.90829578  1
  Te  Te177  1  0.92851504  0.74111091  0.25104202  1
  Te  Te178  1  0.92263725  0.75659063  0.57094177  1
  Te  Te179  1  0.92019968  0.74475429  0.91483113  1
