# generated using pymatgen
data_In2Te3
_symmetry_space_group_name_H-M   'P 1'
_cell_length_a   18.75235017
_cell_length_b   18.74554139
_cell_length_c   18.74461800
_cell_angle_alpha   89.95404888
_cell_angle_beta   89.99219622
_cell_angle_gamma   89.95562000
_symmetry_Int_Tables_number   1
_chemical_formula_structural   In2Te3
_chemical_formula_sum   'In72 Te108'
_cell_volume   6589.15937917
_cell_formula_units_Z   36
loop_
 _symmetry_equiv_pos_site_id
 _symmetry_equiv_pos_as_xyz
  1  'x, y, z'
loop_
 _atom_site_type_symbol
 _atom_site_label
 _atom_site_symmetry_multiplicity
 _atom_site_fract_x
 _atom_site_fract_y
 _atom_site_fract_z
 _atom_site_occupancy
  In  In0  1  0.84667864  0.66306833  0.18764538  1
  In  In1  1  0.33245593  0.00279850  0.69010868  1
  In  In2  1  0.31791312  0.70767602  0.32758221  1
  In  In3  1  0.65421244  0.50003833  0.82700573  1
  In  In4  1  0.29821196  0.86081283  0.14664924  1
  In  In5  1  0.49029989  0.46611695  0.69133973  1
  In  In6  1  0.30866188  0.64689414  0.70199124  1
  In  In7  1  0.67328050  0.34137656  0.34746909  1
  In  In8  1  0.48932578  0.33271633  0.16658097  1
  In  In9  1  0.15408446  0.69262547  0.50111615  1
  In  In10  1  0.84155944  0.49288555  0.01078559  1
  In  In11  1  0.52505477  -0.00828733  0.47609931  1
  In  In12  1  0.47583239  0.32137248  0.85213849  1
  In  In13  1  0.67857354  0.31114883  0.66344614  1
  In  In14  1  0.15040960  0.82903132  0.32120956  1
  In  In15  1  -0.00635225  0.32259289  0.66988988  1
  In  In16  1  0.86859084  0.86848926  0.67461559  1
  In  In17  1  0.14682881  0.14957399  0.68244793  1
  In  In18  1  -0.02700454  0.52904064  0.46924858  1
  In  In19  1  0.12228448  0.85712343  0.65634602  1
  In  In20  1  0.17005276  0.31199640  0.47956665  1
  In  In21  1  0.33025540  0.50496734  0.14667132  1
  In  In22  1  0.17615817  0.52119970  0.68644319  1
  In  In23  1  0.65001115  0.67832007  0.00168073  1
  In  In24  1  0.50455175  0.84840039  -0.00105009  1
  In  In25  1  0.03323479  0.15175328  0.15800177  1
  In  In26  1  0.49863398  0.50258889  0.02127749  1
  In  In27  1  0.84950812  0.82450381  0.30770795  1
  In  In28  1  0.17403316  0.34287817  0.86200087  1
  In  In29  1  0.32235793  0.85054969  0.49973036  1
  In  In30  1  0.67615395  0.15403676  0.51386728  1
  In  In31  1  0.85399311  0.67945877  0.83884760  1
  In  In32  1  0.15619708  0.50902674  0.30997391  1
  In  In33  1  0.32774495  0.31926530  0.69816104  1
  In  In34  1  0.30443305  0.67334348  0.01137041  1
  In  In35  1  0.67734367  0.15586250  0.83543857  1
  In  In36  1  0.83976660  0.34945479  0.16600901  1
  In  In37  1  0.84449667  0.14673481  -0.02320370  1
  In  In38  1  0.66989329  0.84234177  0.14506971  1
  In  In39  1  0.70478202  0.51538735  0.47602859  1
  In  In40  1  -0.00866999  0.14872657  0.83590970  1
  In  In41  1  0.84378116  0.85882595  -0.02882312  1
  In  In42  1  0.33774755  0.84932203  0.84390778  1
  In  In43  1  0.01573938  0.50754715  0.14931882  1
  In  In44  1  0.51693118  0.67628203  0.17282831  1
  In  In45  1  0.33158389  0.30789495  0.33501527  1
  In  In46  1  -0.01052036  0.31783409  0.31564896  1
  In  In47  1  0.01982535  0.52123004  0.86976567  1
  In  In48  1  0.52755133  0.84427938  0.68237064  1
  In  In49  1  0.83971950  -0.00906316  0.15281939  1
  In  In50  1  0.65599687  0.14635714  0.16567703  1
  In  In51  1  0.50457083  0.68901015  0.86833772  1
  In  In52  1  0.68989664  0.67187494  0.31863323  1
  In  In53  1  0.83786519  0.00339442  0.50100107  1
  In  In54  1  0.18746721  0.13326919  0.00046891  1
  In  In55  1  0.32183153  0.01424173  0.29996319  1
  In  In56  1  0.49429815  -0.01286612  0.83109662  1
  In  In57  1  0.30843126  0.16962542  0.50902351  1
  In  In58  1  0.83734659  0.14334798  0.66208069  1
  In  In59  1  0.51313168  0.50291472  0.32558980  1
  In  In60  1  0.49866167  0.13252343  0.65664465  1
  In  In61  1  0.32135445  0.50307870  0.51420732  1
  In  In62  1  0.49086350  0.15606654  0.31102640  1
  In  In63  1  0.52335178  0.34797695  0.50981886  1
  In  In64  1  0.83267972  0.16458320  0.35586940  1
  In  In65  1  0.67683347  0.67316337  0.65949907  1
  In  In66  1  0.82035344  0.49348220  0.66439153  1
  In  In67  1  0.46678957  0.14826815  0.01638517  1
  In  In68  1  -0.00196501  0.69071823  0.67241894  1
  In  In69  1  0.02247768  -0.00175484  0.32632052  1
  In  In70  1  0.48343000  0.69648579  0.51035954  1
  In  In71  1  0.00187056  0.34600037  0.01007619  1
  Te  Te72  1  0.06387970  0.05957305  0.04703235  1
  Te  Te73  1  0.08545881  0.05945836  0.44494592  1
  Te  Te74  1  0.07146863  0.04364603  0.76255296  1
  Te  Te75  1  0.11070318  0.41322475  0.08331659  1
  Te  Te76  1  0.08451228  0.42465742  0.41848580  1
  Te  Te77  1  0.08261458  0.41284856  0.75701363  1
  Te  Te78  1  0.09185594  0.75325157  0.02795961  1
  Te  Te79  1  0.05666739  0.75427512  0.41091097  1
  Te  Te80  1  0.09722305  0.75388575  0.76041842  1
  Te  Te81  1  0.38686169  0.07251157  0.11853244  1
  Te  Te82  1  0.41004915  0.07990026  0.42624268  1
  Te  Te83  1  0.40743518  0.10401776  0.77461081  1
  Te  Te84  1  0.39381850  0.39400846  0.06107826  1
  Te  Te85  1  0.41463985  0.41587863  0.41012893  1
  Te  Te86  1  0.37474820  0.43410136  0.79093675  1
  Te  Te87  1  0.41806298  0.75325296  0.08520633  1
  Te  Te88  1  0.42558406  0.78954298  0.40224909  1
  Te  Te89  1  0.41957935  0.75596991  0.74866315  1
  Te  Te90  1  0.74366077  0.07009342  0.06437297  1
  Te  Te91  1  0.72962392  0.06394967  0.40348155  1
  Te  Te92  1  0.76371629  0.06129538  0.76115247  1
  Te  Te93  1  0.74140609  0.40209627  0.06888464  1
  Te  Te94  1  0.78448180  0.40570233  0.41891505  1
  Te  Te95  1  0.75197246  0.40006807  0.76484829  1
  Te  Te96  1  0.76635036  0.74618721  0.07558709  1
  Te  Te97  1  0.77593431  0.74575910  0.41668724  1
  Te  Te98  1  0.76960218  0.76073646  0.74238911  1
  Te  Te99  1  0.09998460  0.25763464  0.23755034  1
  Te  Te100  1  0.07649755  0.23429153  0.57602056  1
  Te  Te101  1  0.07811963  0.23735315  0.92789205  1
  Te  Te102  1  0.06182678  0.60761454  0.25256939  1
  Te  Te103  1  0.08293585  0.57860566  0.57735645  1
  Te  Te104  1  0.08805051  0.60500971  0.96972304  1
  Te  Te105  1  0.09184595  0.92167730  0.22059124  1
  Te  Te106  1  0.06552820  0.94916488  0.55232941  1
  Te  Te107  1  0.10428656  0.88139779  0.95715881  1
  Te  Te108  1  0.39026694  0.22562892  0.21815235  1
  Te  Te109  1  0.41592882  0.25094912  0.58346914  1
  Te  Te110  1  0.38343263  0.23748453  0.93153586  1
  Te  Te111  1  0.40999803  0.59232536  0.25258334  1
  Te  Te112  1  0.42190251  0.58361784  0.59804538  1
  Te  Te113  1  0.40980909  0.58992722  0.93191932  1
  Te  Te114  1  0.40830578  0.91526727  0.23029633  1
  Te  Te115  1  0.42191344  0.92260928  0.59270227  1
  Te  Te116  1  0.39363832  0.94857895  0.94825719  1
  Te  Te117  1  0.74860403  0.24246575  0.24745080  1
  Te  Te118  1  0.77699112  0.25516499  0.56357524  1
  Te  Te119  1  0.75297124  0.24948350  0.92145661  1
  Te  Te120  1  0.75456302  0.56171851  0.24494252  1
  Te  Te121  1  0.78549502  0.60997898  0.57109572  1
  Te  Te122  1  0.74581407  0.58931108  0.91129003  1
  Te  Te123  1  0.74591875  0.92192776  0.25199299  1
  Te  Te124  1  0.75603308  0.91462248  0.58729379  1
  Te  Te125  1  0.72757619  0.91254937  0.89752173  1
  Te  Te126  1  0.23547490  0.21931492  0.11181335  1
  Te  Te127  1  0.22720982  0.20559785  0.38371833  1
  Te  Te128  1  0.23831015  0.22604103  0.77801542  1
  Te  Te129  1  0.21414272  0.57547146  0.08231591  1
  Te  Te130  1  0.24952431  0.59486918  0.41358966  1
  Te  Te131  1  0.22253315  0.59051837  0.80913870  1
  Te  Te132  1  0.21585977  0.94215295  0.04866822  1
  Te  Te133  1  0.23893237  0.92889814  0.39975872  1
  Te  Te134  1  0.22895084  0.91538660  0.75681143  1
  Te  Te135  1  0.57666745  0.24353536  0.07798462  1
  Te  Te136  1  0.58154853  0.23419906  0.41272475  1
  Te  Te137  1  0.56596266  0.24841075  0.74313483  1
  Te  Te138  1  0.60647011  0.57380643  0.10434326  1
  Te  Te139  1  0.57709084  0.59807803  0.42653904  1
  Te  Te140  1  0.57225953  0.60379585  0.75009986  1
  Te  Te141  1  0.57818433  0.94297121  0.08568638  1
  Te  Te142  1  0.58198343  0.88227375  0.40024885  1
  Te  Te143  1  0.61835226  0.92951608  0.76623365  1
  Te  Te144  1  0.91600554  0.24048397  0.08767257  1
  Te  Te145  1  0.93609503  0.23985986  0.42873593  1
  Te  Te146  1  0.89972952  0.24505183  0.76137974  1
  Te  Te147  1  0.92524805  0.60399935  0.06695524  1
  Te  Te148  1  0.87110391  0.61605947  0.40672787  1
  Te  Te149  1  0.92564256  0.57115330  0.74946204  1
  Te  Te150  1  0.93228554  0.89921695  0.08474818  1
  Te  Te151  1  0.92218449  0.91422698  0.40752603  1
  Te  Te152  1  0.95187198  0.93728934  0.77828128  1
  Te  Te153  1  0.24514138  0.08345675  0.18718012  1
  Te  Te154  1  0.23397302  0.06444231  0.58859760  1
  Te  Te155  1  0.25897855  0.03190387  0.91777461  1
  Te  Te156  1  0.25838243  0.41340385  0.24841653  1
  Te  Te157  1  0.24101134  0.39611614  0.59489935  1
  Te  Te158  1  0.27696516  0.42497026  0.92477032  1
  Te  Te159  1  0.22639544  0.74202198  0.21267717  1
  Te  Te160  1  0.25419709  0.75476610  0.59827979  1
  Te  Te161  1  0.23348462  0.76957888  0.91997738  1
  Te  Te162  1  0.57219799  0.05255233  0.24510374  1
  Te  Te163  1  0.60858354  0.04675522  0.59833389  1
  Te  Te164  1  0.57397261  0.08368445  0.92115852  1
  Te  Te165  1  0.59906879  0.41501414  0.23548050  1
  Te  Te166  1  0.61408170  0.44111813  0.59093691  1
  Te  Te167  1  0.57770880  0.41134758  0.92469021  1
  Te  Te168  1  0.58571620  0.77368593  0.26555756  1
  Te  Te169  1  0.60311583  0.77391345  0.56833824  1
  Te  Te170  1  0.61880487  0.79193915  0.90147177  1
  Te  Te171  1  0.91392995  0.09113579  0.24739537  1
  Te  Te172  1  0.94389187  0.06502773  0.58898749  1
  Te  Te173  1  0.91813894  0.03379753  0.90615459  1
  Te  Te174  1  0.92290239  0.44034218  0.25472347  1
  Te  Te175  1  0.92615875  0.42476119  0.57783182  1
  Te  Te176  1  0.91636422  0.41337489  0.90284889  1
  Te  Te177  1  0.95673571  0.75528475  0.22925450  1
  Te  Te178  1  0.93605949  0.77991468  0.57357235  1
  Te  Te179  1  0.94853807  0.77345494  0.90360614  1
