# generated using pymatgen
data_In2Te3
_symmetry_space_group_name_H-M   'P 1'
_cell_length_a   18.99234770
_cell_length_b   18.99319200
_cell_length_c   19.00743700
_cell_angle_alpha   90.04521106
_cell_angle_beta   90.04393676
_cell_angle_gamma   90.07511565
_symmetry_Int_Tables_number   1
_chemical_formula_structural   In2Te3
_chemical_formula_sum   'In72 Te108'
_cell_volume   6856.45348857
_cell_formula_units_Z   36
loop_
 _symmetry_equiv_pos_site_id
 _symmetry_equiv_pos_as_xyz
  1  'x, y, z'
loop_
 _atom_site_type_symbol
 _atom_site_label
 _atom_site_symmetry_multiplicity
 _atom_site_fract_x
 _atom_site_fract_y
 _atom_site_fract_z
 _atom_site_occupancy
  In  In0  1  0.16115678  0.63873260  0.11672842  1
  In  In1  1  0.01875858  0.15215630  0.82512920  1
  In  In2  1  0.32301598  0.68500486  -0.01758899  1
  In  In3  1  0.80548463  0.34307605  0.49841916  1
  In  In4  1  0.50187668  0.80356537  -0.01767556  1
  In  In5  1  0.49699042  0.33188947  0.84084787  1
  In  In6  1  0.53110770  0.01649987  0.16543842  1
  In  In7  1  0.24836122  0.55214985  0.87778277  1
  In  In8  1  0.02839197  0.00371306  0.67501816  1
  In  In9  1  0.01509689  0.35254532  0.70426545  1
  In  In10  1  0.86447731  -0.01304249  0.18112993  1
  In  In11  1  0.33130115  0.17807757  0.17656559  1
  In  In12  1  0.47898708  0.01203033  0.80976235  1
  In  In13  1  0.66440242  0.82281947  0.47298037  1
  In  In14  1  0.65158838  0.66361996  0.00728998  1
  In  In15  1  0.85239390  0.67965981  0.84815933  1
  In  In16  1  0.33401070  0.81491803  0.50086923  1
  In  In17  1  0.48811727  0.83176419  0.66862678  1
  In  In18  1  0.02007277  -0.01398290  -0.00392308  1
  In  In19  1  0.32870287  0.81770510  0.16753183  1
  In  In20  1  0.18405032  0.32305912  0.49740066  1
  In  In21  1  0.14371408  0.66675709  0.49648516  1
  In  In22  1  0.83686451  0.83029174  0.31581507  1
  In  In23  1  0.48267752  0.49909647  0.64582206  1
  In  In24  1  0.84724596  0.53146300  0.67753091  1
  In  In25  1  0.17285330  0.01060268  0.52790781  1
  In  In26  1  0.31209997  0.33340057  0.32884791  1
  In  In27  1  0.69854815  0.35109469  0.00774677  1
  In  In28  1  0.88564957  0.38003073  0.11031627  1
  In  In29  1  0.65482827  0.14692937  0.82329956  1
  In  In30  1  0.32386017  0.18704747  0.82453707  1
  In  In31  1  0.33946378  -0.02668757  -0.00430909  1
  In  In32  1  0.48863780  0.33070421  0.52182597  1
  In  In33  1  0.84248062  0.18474424  0.01517603  1
  In  In34  1  0.51262899  0.38707206  0.16911895  1
  In  In35  1  0.48149425  0.17594421  0.35750694  1
  In  In36  1  0.83857519  0.68258460  0.49192565  1
  In  In37  1  0.81095816  0.16200146  0.34441991  1
  In  In38  1  0.13908631  0.49424449  0.31178760  1
  In  In39  1  0.19481747  -0.00512915  0.15635890  1
  In  In40  1  0.48441186  0.50338786  -0.02045309  1
  In  In41  1  0.32466369  0.64957655  0.67793104  1
  In  In42  1  0.02159269  0.82533221  0.14858452  1
  In  In43  1  0.85071106  0.82227176  0.68165927  1
  In  In44  1  -0.01022842  0.00001361  0.36328549  1
  In  In45  1  0.34868607  -0.03128166  0.34364167  1
  In  In46  1  0.66645309  0.15113463  0.49959011  1
  In  In47  1  0.81160391  -0.00341771  0.84529930  1
  In  In48  1  0.85755522  0.53675199  0.04008438  1
  In  In49  1  0.14234645  0.35678523  0.16006466  1
  In  In50  1  0.31280666  0.32766705  0.67408640  1
  In  In51  1  0.66979905  -0.01198085  0.64306425  1
  In  In52  1  0.85763217  0.34268752  0.84834358  1
  In  In53  1  0.33471692  0.50583373  0.47710394  1
  In  In54  1  0.49947524  -0.03087913  0.50905821  1
  In  In55  1  0.67688057  0.81408438  0.17217601  1
  In  In56  1  0.00555269  0.64352601  0.69403507  1
  In  In57  1  0.01416375  0.15789654  0.53375114  1
  In  In58  1  0.03179247  0.82549257  0.83737337  1
  In  In59  1  0.65774963  0.36169251  0.31804344  1
  In  In60  1  0.64380929  0.33025238  0.67327234  1
  In  In61  1  0.83304009  0.51932108  0.29763773  1
  In  In62  1  0.16219247  0.17326413  -0.00820079  1
  In  In63  1  0.70399266  -0.01971470  0.01284712  1
  In  In64  1  0.15052486  0.81475384  0.31846634  1
  In  In65  1  -0.00484186  0.30189596  0.32604520  1
  In  In66  1  0.65310940  0.19656551  0.17690373  1
  In  In67  1  -0.02894618  0.49871353  0.48644464  1
  In  In68  1  0.49266633  0.16935325  -0.02553955  1
  In  In69  1  0.67553384  0.52248534  0.80809345  1
  In  In70  1  0.65469833  0.67445380  0.63969103  1
  In  In71  1  0.50801120  0.77488623  0.34765561  1
  Te  Te72  1  0.08946642  0.08174480  0.09034241  1
  Te  Te73  1  0.09384306  0.09187001  0.42412720  1
  Te  Te74  1  0.12982888  0.09421500  0.73960657  1
  Te  Te75  1  0.09205161  0.46325042  0.06721372  1
  Te  Te76  1  0.07534112  0.40294762  0.42182322  1
  Te  Te77  1  0.06412545  0.46050361  0.79013635  1
  Te  Te78  1  0.08912031  0.74697397  0.04286235  1
  Te  Te79  1  0.05839716  0.75308015  0.41307462  1
  Te  Te80  1  0.11019008  0.72107375  0.76639340  1
  Te  Te81  1  0.42004231  0.08636680  0.08636444  1
  Te  Te82  1  0.40794662  0.07153942  0.43780855  1
  Te  Te83  1  0.37159733  0.07786905  0.73427179  1
  Te  Te84  1  0.40584581  0.42731312  0.07905298  1
  Te  Te85  1  0.42217278  0.40501818  0.40763897  1
  Te  Te86  1  0.41221035  0.41731491  0.75049383  1
  Te  Te87  1  0.42573608  0.73112853  0.09047796  1
  Te  Te88  1  0.36800533  0.73146947  0.38064812  1
  Te  Te89  1  0.40608281  0.74594318  0.75387291  1
  Te  Te90  1  0.74687933  0.09940383  0.09857096  1
  Te  Te91  1  0.75906676  0.06016010  0.43398013  1
  Te  Te92  1  0.75417603  0.07891850  0.73250137  1
  Te  Te93  1  0.74003105  0.44699025  0.11385489  1
  Te  Te94  1  0.75031742  0.44779477  0.40529119  1
  Te  Te95  1  0.75780614  0.41060234  0.74609215  1
  Te  Te96  1  0.75893164  0.73804838  0.07748062  1
  Te  Te97  1  0.74339143  0.72998369  0.38397284  1
  Te  Te98  1  0.75056737  0.73022634  0.74631900  1
  Te  Te99  1  0.11358473  0.25157666  0.25853081  1
  Te  Te100  1  0.09260176  0.26566382  0.60401621  1
  Te  Te101  1  0.08428922  0.25998003  0.90137111  1
  Te  Te102  1  0.06773768  0.59527728  0.22903910  1
  Te  Te103  1  0.06986506  0.56322923  0.58084201  1
  Te  Te104  1  0.10532712  0.55146329  0.93245781  1
  Te  Te105  1  0.08126681  0.93292360  0.24553796  1
  Te  Te106  1  0.09894160  0.90462157  0.59503799  1
  Te  Te107  1  0.11527693  0.94133094  0.89096890  1
  Te  Te108  1  0.43924896  0.26522706  0.24092163  1
  Te  Te109  1  0.39391249  0.24210820  0.58637550  1
  Te  Te110  1  0.39354719  0.27424832  0.93370060  1
  Te  Te111  1  0.43176213  0.60882773  0.30837327  1
  Te  Te112  1  0.41600475  0.60194678  0.55952046  1
  Te  Te113  1  0.40016283  0.58812001  0.89100177  1
  Te  Te114  1  0.42630704  0.91893197  0.22457549  1
  Te  Te115  1  0.38589514  0.91912539  0.59770670  1
  Te  Te116  1  0.42038887  0.89870207  0.89355028  1
  Te  Te117  1  0.76094904  0.27161676  0.25086538  1
  Te  Te118  1  0.74174496  0.24464228  0.59443511  1
  Te  Te119  1  0.74421731  0.24073900  0.90360185  1
  Te  Te120  1  0.77312174  0.58921093  0.18043812  1
  Te  Te121  1  0.75354938  0.58379711  0.56980003  1
  Te  Te122  1  0.76285591  0.57226845  0.92097444  1
  Te  Te123  1  0.74367161  0.93087333  0.24809603  1
  Te  Te124  1  0.75730909  0.88440732  0.57734273  1
  Te  Te125  1  0.74932208  0.88411019  0.91369648  1
  Te  Te126  1  0.24245613  0.26008899  0.08927739  1
  Te  Te127  1  0.27415162  0.23228696  0.42679408  1
  Te  Te128  1  0.22297828  0.28637133  0.78378906  1
  Te  Te129  1  0.29450297  0.58322847  0.08669724  1
  Te  Te130  1  0.22589456  0.58004251  0.40270695  1
  Te  Te131  1  0.23561755  0.54501512  0.73097686  1
  Te  Te132  1  0.23845398  0.88405631  0.06351534  1
  Te  Te133  1  0.23357467  0.90180596  0.41594551  1
  Te  Te134  1  0.24388652  0.88871188  0.82021170  1
  Te  Te135  1  0.57961777  0.26430381  0.06336775  1
  Te  Te136  1  0.59722182  0.26380223  0.41950843  1
  Te  Te137  1  0.55485242  0.22966965  0.74537913  1
  Te  Te138  1  0.55834510  0.57875326  0.08133692  1
  Te  Te139  1  0.55542058  0.63338068  0.38248063  1
  Te  Te140  1  0.56662265  0.59322304  0.73310840  1
  Te  Te141  1  0.58202386  0.90244895  0.07737296  1
  Te  Te142  1  0.57361142  0.91220182  0.39234508  1
  Te  Te143  1  0.58426720  0.92029448  0.74758794  1
  Te  Te144  1  0.94495596  0.24610842  0.09774137  1
  Te  Te145  1  0.90848347  0.24633940  0.43973558  1
  Te  Te146  1  0.91877890  0.24382606  0.75188482  1
  Te  Te147  1  0.94123129  0.61281500  0.13727723  1
  Te  Te148  1  0.92072330  0.60261977  0.39103513  1
  Te  Te149  1  0.93694735  0.55400402  0.80011002  1
  Te  Te150  1  0.91330406  0.90578527  0.06698982  1
  Te  Te151  1  0.91786814  0.88910406  0.42369644  1
  Te  Te152  1  0.92252628  0.91902407  0.77294966  1
  Te  Te153  1  0.26614330  0.07374422  0.26374355  1
  Te  Te154  1  0.23426308  0.09870331  0.62731996  1
  Te  Te155  1  0.26678267  0.08491719  0.92605278  1
  Te  Te156  1  0.25612049  0.43584344  0.23600184  1
  Te  Te157  1  0.25055101  0.43168057  0.57892745  1
  Te  Te158  1  0.20786084  0.43869926  0.96844030  1
  Te  Te159  1  0.23048976  0.72361565  0.23055669  1
  Te  Te160  1  0.23711603  0.74154540  0.58925627  1
  Te  Te161  1  0.23909464  0.75167967  0.87030498  1
  Te  Te162  1  0.58849903  0.10127155  0.27635772  1
  Te  Te163  1  0.56483013  0.08178867  0.58796045  1
  Te  Te164  1  0.58973832  0.06069467  0.92948103  1
  Te  Te165  1  0.57383439  0.47348327  0.27067093  1
  Te  Te166  1  0.59449153  0.43045681  0.57037198  1
  Te  Te167  1  0.60411609  0.41911379  0.90230677  1
  Te  Te168  1  0.58761204  0.71421331  0.23624276  1
  Te  Te169  1  0.55735795  0.75431255  0.55752233  1
  Te  Te170  1  0.59500404  0.73612626  0.89360593  1
  Te  Te171  1  0.92403190  0.09628539  0.26352078  1
  Te  Te172  1  0.92241117  0.06316510  0.59390701  1
  Te  Te173  1  0.91531224  0.08461356  0.92551958  1
  Te  Te174  1  0.93510146  0.41809883  0.24936956  1
  Te  Te175  1  0.90958522  0.41063523  0.59553280  1
  Te  Te176  1  0.91853201  0.41451651  0.96236992  1
  Te  Te177  1  0.92078370  0.74615511  0.22522772  1
  Te  Te178  1  0.93736689  0.73689291  0.59395845  1
  Te  Te179  1  0.95496918  0.74075826  0.93434844  1
