# generated using pymatgen
data_In2Te3
_symmetry_space_group_name_H-M   'P 1'
_cell_length_a   18.84999442
_cell_length_b   18.84449166
_cell_length_c   18.85000052
_cell_angle_alpha   89.96299546
_cell_angle_beta   89.92261260
_cell_angle_gamma   89.94164122
_symmetry_Int_Tables_number   1
_chemical_formula_structural   In2Te3
_chemical_formula_sum   'In72 Te108'
_cell_volume   6695.85911790
_cell_formula_units_Z   36
loop_
 _symmetry_equiv_pos_site_id
 _symmetry_equiv_pos_as_xyz
  1  'x, y, z'
loop_
 _atom_site_type_symbol
 _atom_site_label
 _atom_site_symmetry_multiplicity
 _atom_site_fract_x
 _atom_site_fract_y
 _atom_site_fract_z
 _atom_site_occupancy
  In  In0  1  0.66708113  0.48058517  0.82720275  1
  In  In1  1  0.16071149  0.48648117  -0.02629260  1
  In  In2  1  0.17581076  0.51590501  0.32204103  1
  In  In3  1  0.85956368  -0.00892006  0.81881675  1
  In  In4  1  0.15929927  -0.00140561  0.51755670  1
  In  In5  1  0.34557318  0.50068786  0.16985175  1
  In  In6  1  0.49878673  0.66098130  0.84091098  1
  In  In7  1  0.64267384  0.83423036  0.82619879  1
  In  In8  1  0.17390450  0.17646224  0.35927162  1
  In  In9  1  0.44574268  0.81576006  0.03509796  1
  In  In10  1  0.03038448  0.15954142  0.82631203  1
  In  In11  1  0.87248566  0.21920138  0.35210914  1
  In  In12  1  0.00445835  0.67256612  0.66072005  1
  In  In13  1  0.82102398  0.32941545  0.82867344  1
  In  In14  1  0.86618807  0.00737992  0.52553526  1
  In  In15  1  0.84882659  0.16843002  0.67892590  1
  In  In16  1  0.03588949  -0.00532853  -0.00154636  1
  In  In17  1  0.31533806  0.16880090  0.15477065  1
  In  In18  1  0.67798414  0.18543518  0.52135897  1
  In  In19  1  0.65783369  0.83617364  0.16790884  1
  In  In20  1  0.83006190  0.51155843  0.00929802  1
  In  In21  1  0.30910102  0.47728631  0.52352752  1
  In  In22  1  0.47224199  0.00652734  0.17093614  1
  In  In23  1  0.83097509  0.17893124  0.00264273  1
  In  In24  1  0.01541565  0.48691318  0.80477712  1
  In  In25  1  0.02804741  0.48378159  0.51591027  1
  In  In26  1  0.49042370  -0.00595695  0.51479045  1
  In  In27  1  0.48928321  0.34135178  0.49783798  1
  In  In28  1  0.82481518  0.51014472  0.35319460  1
  In  In29  1  0.47896682  0.83323532  0.32038283  1
  In  In30  1  0.67364937  0.63768111  0.66488519  1
  In  In31  1  0.83884980  0.67443110  0.16360940  1
  In  In32  1  0.02711705  0.31849130  -0.03760284  1
  In  In33  1  0.33861911  0.64173541  0.67541859  1
  In  In34  1  0.47153861  0.22077457  -0.00526233  1
  In  In35  1  0.68048167  0.82871077  0.51359512  1
  In  In36  1  0.48735104  0.84739220  0.66419785  1
  In  In37  1  0.66165404  0.35307770  0.31967089  1
  In  In38  1  0.45666303  0.49017796  -0.02289586  1
  In  In39  1  -0.01007285  0.49698860  0.13149723  1
  In  In40  1  0.82606374  0.34132458  0.17751482  1
  In  In41  1  0.68842892  0.01179567  0.35811625  1
  In  In42  1  0.81875122  0.84299741  0.35005462  1
  In  In43  1  0.16718639  0.18857027  0.64966250  1
  In  In44  1  0.18147842  0.65312424  0.82465138  1
  In  In45  1  0.19139362  0.68550069  0.16548485  1
  In  In46  1  0.16155050  0.67437329  0.49362987  1
  In  In47  1  0.19089506  0.84810788  -0.02727625  1
  In  In48  1  0.33837516  -0.01116362  0.36204795  1
  In  In49  1  0.02426839  -0.00625001  0.32196827  1
  In  In50  1  0.66441146  0.49556358  0.49864056  1
  In  In51  1  0.01528521  0.68239185  0.34147698  1
  In  In52  1  -0.00743621  0.31623007  0.36232618  1
  In  In53  1  0.02921064  0.84960740  0.15620360  1
  In  In54  1  0.48659124  0.66217651  0.47839438  1
  In  In55  1  0.66358845  0.64545343  0.00921002  1
  In  In56  1  0.32870827  0.32518414  0.33587330  1
  In  In57  1  0.63675280  0.50610434  0.17022203  1
  In  In58  1  0.87545991  0.68227760  0.82486334  1
  In  In59  1  0.64890841  0.18718441  0.81993157  1
  In  In60  1  0.46651248  0.01663618  0.83390753  1
  In  In61  1  0.47078124  0.17135404  0.66227390  1
  In  In62  1  0.89187237  -0.01304528  0.15106289  1
  In  In63  1  0.18558455  0.84718048  0.68469096  1
  In  In64  1  0.02273043  0.15633474  0.15833122  1
  In  In65  1  0.66911434  0.00246256  -0.01683910  1
  In  In66  1  0.48201271  0.15567665  0.33542712  1
  In  In67  1  0.85054841  0.82391975  0.65572882  1
  In  In68  1  0.45649425  0.34523630  0.81849652  1
  In  In69  1  0.16941209  0.32660711  0.83951403  1
  In  In70  1  0.64116943  0.17269586  0.13752715  1
  In  In71  1  0.64873501  0.70088598  0.35262372  1
  Te  Te72  1  0.11898603  0.04962380  0.11138216  1
  Te  Te73  1  0.06944082  0.09145932  0.42869697  1
  Te  Te74  1  0.09487429  0.07675527  0.72309698  1
  Te  Te75  1  0.09036331  0.39645102  0.07854802  1
  Te  Te76  1  0.10637054  0.41016262  0.40858563  1
  Te  Te77  1  0.11471870  0.40847872  0.72261358  1
  Te  Te78  1  0.10329693  0.75459200  0.06471200  1
  Te  Te79  1  0.11330062  0.77817165  0.39727949  1
  Te  Te80  1  0.08690964  0.75171283  0.75964180  1
  Te  Te81  1  0.41295563  0.09158123  0.06313546  1
  Te  Te82  1  0.39967904  0.09855760  0.44809475  1
  Te  Te83  1  0.38310406  0.06063845  0.71725564  1
  Te  Te84  1  0.37502420  0.39927871  0.06333026  1
  Te  Te85  1  0.40699133  0.43321590  0.40821950  1
  Te  Te86  1  0.38444247  0.44436862  0.73904003  1
  Te  Te87  1  0.36450362  0.72664892  0.12504036  1
  Te  Te88  1  0.40793165  0.77976669  0.43840643  1
  Te  Te89  1  0.41087344  0.75244830  0.75454555  1
  Te  Te90  1  0.75945977  0.07253748  0.08579656  1
  Te  Te91  1  0.77983127  0.10521281  0.43648843  1
  Te  Te92  1  0.74952947  0.08769306  0.76443034  1
  Te  Te93  1  0.73447934  0.42057139  0.08486122  1
  Te  Te94  1  0.76343721  0.39267135  0.42522490  1
  Te  Te95  1  0.75256518  0.41178337  0.72731070  1
  Te  Te96  1  0.74770847  0.75685529  0.07282273  1
  Te  Te97  1  0.76999306  0.72816909  0.43791977  1
  Te  Te98  1  0.74308921  0.74893171  0.74646255  1
  Te  Te99  1  0.08785692  0.25132542  0.25592383  1
  Te  Te100  1  0.06538386  0.27617729  0.57996374  1
  Te  Te101  1  0.12492993  0.19902860  0.94141153  1
  Te  Te102  1  0.06857317  0.58855087  0.23338716  1
  Te  Te103  1  0.10945419  0.57964723  0.60126845  1
  Te  Te104  1  0.06782141  0.58652088  0.90618822  1
  Te  Te105  1  0.12542456  0.91791575  0.24449707  1
  Te  Te106  1  0.07848992  0.90140747  0.59697369  1
  Te  Te107  1  0.10077133  0.93027998  0.88006741  1
  Te  Te108  1  0.41854357  0.24939789  0.23648669  1
  Te  Te109  1  0.39038956  0.26511545  0.57836189  1
  Te  Te110  1  0.38429632  0.22489275  0.87474592  1
  Te  Te111  1  0.39443788  0.62274402  0.24435237  1
  Te  Te112  1  0.42818121  0.56504791  0.57904255  1
  Te  Te113  1  0.38424223  0.60957353  0.92339331  1
  Te  Te114  1  0.37753412  0.90787337  0.23393381  1
  Te  Te115  1  0.38523392  0.91501122  0.58215075  1
  Te  Te116  1  0.41374647  0.90165390  0.91733710  1
  Te  Te117  1  0.73972750  0.23605600  0.24592566  1
  Te  Te118  1  0.75250344  0.26662826  0.61920083  1
  Te  Te119  1  0.72858617  0.26246979  0.92990453  1
  Te  Te120  1  0.74481743  0.58879636  0.24764223  1
  Te  Te121  1  0.76686378  0.57453869  0.57085448  1
  Te  Te122  1  0.75329195  0.59072277  0.89732423  1
  Te  Te123  1  0.75744775  0.92732715  0.23862194  1
  Te  Te124  1  0.75158282  0.93251814  0.59590411  1
  Te  Te125  1  0.75464374  0.90969510  0.89965393  1
  Te  Te126  1  0.21596781  0.22656750  0.06561614  1
  Te  Te127  1  0.26371043  0.25374957  0.44906520  1
  Te  Te128  1  0.25729544  0.23376037  0.76208643  1
  Te  Te129  1  0.23232037  0.56365267  0.08671739  1
  Te  Te130  1  0.26426506  0.58563261  0.42304768  1
  Te  Te131  1  0.26318376  0.54155985  0.76009973  1
  Te  Te132  1  0.24610836  0.95158136  0.06423665  1
  Te  Te133  1  0.23014008  0.90698458  0.42101348  1
  Te  Te134  1  0.25847488  0.93107588  0.78489250  1
  Te  Te135  1  0.56496673  0.28647816  0.08740081  1
  Te  Te136  1  0.58500787  0.24109752  0.40947830  1
  Te  Te137  1  0.56349626  0.27255289  0.73118516  1
  Te  Te138  1  0.54458583  0.57803367  0.07291098  1
  Te  Te139  1  0.57990673  0.57392095  0.39595653  1
  Te  Te140  1  0.56771350  0.56379210  0.74605910  1
  Te  Te141  1  0.57136634  0.92570958  0.07706599  1
  Te  Te142  1  0.58664409  0.91040883  0.41518996  1
  Te  Te143  1  0.57438385  0.94204018  0.74581815  1
  Te  Te144  1  0.92477645  0.26302508  0.08847671  1
  Te  Te145  1  0.93782327  0.24559933  0.49131935  1
  Te  Te146  1  0.94004414  0.26308611  0.76043602  1
  Te  Te147  1  0.92989778  0.61688860  0.05628447  1
  Te  Te148  1  0.94251886  0.57660179  0.42397989  1
  Te  Te149  1  0.91129110  0.56862750  0.72965960  1
  Te  Te150  1  0.92574077  0.88573057  0.03778950  1
  Te  Te151  1  0.92955343  0.91637623  0.42037048  1
  Te  Te152  1  0.94550354  0.90891512  0.73144599  1
  Te  Te153  1  0.26092495  0.08743535  0.27208438  1
  Te  Te154  1  0.25632082  0.07766532  0.59865950  1
  Te  Te155  1  0.24671132  0.00489767  0.92183482  1
  Te  Te156  1  0.24330935  0.40619041  0.23920957  1
  Te  Te157  1  0.20857325  0.39668050  0.59755461  1
  Te  Te158  1  0.27006350  0.39947185  0.92335886  1
  Te  Te159  1  0.28553815  0.72899216  0.27088541  1
  Te  Te160  1  0.25564567  0.74106459  0.59456219  1
  Te  Te161  1  0.26959404  0.73102737  0.91610908  1
  Te  Te162  1  0.58743580  0.07341117  0.25064229  1
  Te  Te163  1  0.58327580  0.08875660  0.59050770  1
  Te  Te164  1  0.57087975  0.10228368  0.92227538  1
  Te  Te165  1  0.54984462  0.41863500  0.25060267  1
  Te  Te166  1  0.57976189  0.41511943  0.58695629  1
  Te  Te167  1  0.56614816  0.40584954  0.91129262  1
  Te  Te168  1  0.56362288  0.73642308  0.23265672  1
  Te  Te169  1  0.57959705  0.74135601  0.58764499  1
  Te  Te170  1  0.57460017  0.75490437  0.93808361  1
  Te  Te171  1  0.91599018  0.09450512  0.25972347  1
  Te  Te172  1  0.95343610  0.07311740  0.62698970  1
  Te  Te173  1  0.92556130  0.08770245  0.92643750  1
  Te  Te174  1  0.92175653  0.42914957  0.25643290  1
  Te  Te175  1  0.94663714  0.38024593  0.58476811  1
  Te  Te176  1  0.91538446  0.42083949  0.92011307  1
  Te  Te177  1  0.92032040  0.77166183  0.24874925  1
  Te  Te178  1  0.93391897  0.75150460  0.55791069  1
  Te  Te179  1  0.92024504  0.78295978  0.91731762  1
