# generated using pymatgen
data_In2Te3
_symmetry_space_group_name_H-M   'P 1'
_cell_length_a   19.02146985
_cell_length_b   19.04114261
_cell_length_c   18.99557815
_cell_angle_alpha   90.13290782
_cell_angle_beta   90.00133876
_cell_angle_gamma   90.10985276
_symmetry_Int_Tables_number   1
_chemical_formula_structural   In2Te3
_chemical_formula_sum   'In72 Te108'
_cell_volume   6879.98717018
_cell_formula_units_Z   36
loop_
 _symmetry_equiv_pos_site_id
 _symmetry_equiv_pos_as_xyz
  1  'x, y, z'
loop_
 _atom_site_type_symbol
 _atom_site_label
 _atom_site_symmetry_multiplicity
 _atom_site_fract_x
 _atom_site_fract_y
 _atom_site_fract_z
 _atom_site_occupancy
  In  In0  1  0.13813467  -0.00214917  0.49953940  1
  In  In1  1  0.16387343  0.51152731  0.00833826  1
  In  In2  1  0.65919469  0.68010772  0.68204490  1
  In  In3  1  0.48943487  0.82223123  0.02791631  1
  In  In4  1  0.49125246  0.82284768  0.30821774  1
  In  In5  1  -0.02651384  0.14218232  0.48587159  1
  In  In6  1  0.16726584  0.84037223  0.65732887  1
  In  In7  1  0.34744438  0.02799980  -0.02037340  1
  In  In8  1  0.18047642  0.00689088  0.17355839  1
  In  In9  1  0.32258759  0.82580913  0.83438999  1
  In  In10  1  0.01673535  0.17198077  0.84475048  1
  In  In11  1  -0.01911424  0.68331072  0.33391232  1
  In  In12  1  0.65099109  0.84287252  0.17512311  1
  In  In13  1  0.65377839  0.34509557  0.29099065  1
  In  In14  1  0.19608120  0.30200282  0.12312851  1
  In  In15  1  0.80732825  0.66687067  0.49357607  1
  In  In16  1  -0.00846996  0.66988567  0.67535636  1
  In  In17  1  0.03037415  0.01474120  -0.00289820  1
  In  In18  1  0.49346390  0.63490921  0.48093669  1
  In  In19  1  0.65079209  0.51047502  0.87627645  1
  In  In20  1  0.82319968  0.32196032  0.82022616  1
  In  In21  1  0.82328381  0.14559816  0.32267856  1
  In  In22  1  -0.03252398  0.56685817  0.15355619  1
  In  In23  1  -0.00610028  0.34170276  0.02416492  1
  In  In24  1  0.51296618  0.19170174  -0.00843980  1
  In  In25  1  0.32264140  0.64215133  0.30767721  1
  In  In26  1  0.83071122  0.18079852  0.01579356  1
  In  In27  1  0.36233646  0.50272305  0.86018767  1
  In  In28  1  0.64476989  0.48290381  0.46740383  1
  In  In29  1  0.84842230  0.83059382  -0.00412716  1
  In  In30  1  0.48209872  0.84033398  0.66724163  1
  In  In31  1  0.34899117  0.33471346  0.67083700  1
  In  In32  1  -0.01439991  0.51734690  0.87103325  1
  In  In33  1  0.65964219  0.31830395  0.64189702  1
  In  In34  1  0.67782475  0.16404027  0.81522586  1
  In  In35  1  0.82645400  0.53423007  0.30878172  1
  In  In36  1  0.35775629  -0.00255195  0.34280018  1
  In  In37  1  0.37478151  0.46987323  0.13840087  1
  In  In38  1  0.82713204  -0.00779867  0.16440333  1
  In  In39  1  0.15578323  0.30414806  0.49218253  1
  In  In40  1  0.34259977  0.83638735  0.51009798  1
  In  In41  1  0.69046364  0.64021519  0.05954110  1
  In  In42  1  0.65684936  0.82265563  0.84858034  1
  In  In43  1  0.66327777  0.16287439  0.17976887  1
  In  In44  1  0.32897439  0.17490956  0.49575783  1
  In  In45  1  0.00539546  0.34415202  0.32393555  1
  In  In46  1  0.16301888  0.50043532  0.66892449  1
  In  In47  1  0.50760118  0.19040674  0.33869299  1
  In  In48  1  0.17871230  0.46952415  0.30569952  1
  In  In49  1  0.64616754  0.00411152  0.36259886  1
  In  In50  1  -0.01624598  0.48616457  0.54506932  1
  In  In51  1  0.16433696  0.83050782  0.01720026  1
  In  In52  1  0.40576456  0.48313407  0.46569518  1
  In  In53  1  0.18606725  -0.00696381  0.84482884  1
  In  In54  1  -0.04235435  0.35258752  0.67613477  1
  In  In55  1  0.81636811  0.83362465  0.68346871  1
  In  In56  1  0.16815246  0.81829690  0.32344693  1
  In  In57  1  0.81838377  0.00271810  0.82113315  1
  In  In58  1  0.18782688  0.67370242  0.82974998  1
  In  In59  1  0.49853500  0.01551177  0.81920326  1
  In  In60  1  0.19300671  0.19453001  0.32458191  1
  In  In61  1  0.66137638  0.80898388  0.47118576  1
  In  In62  1  -0.00895539  -0.02266245  0.35336852  1
  In  In63  1  0.18747002  0.66731829  0.46454416  1
  In  In64  1  0.50411825  0.68487163  0.85690964  1
  In  In65  1  0.62560816  0.41694996  0.07386555  1
  In  In66  1  0.82569477  0.48863104  0.67057042  1
  In  In67  1  0.82265728  -0.01808021  0.49363320  1
  In  In68  1  0.14113285  0.17049161  0.66786321  1
  In  In69  1  0.17855396  0.33405017  0.82024462  1
  In  In70  1  0.50355427  0.16778768  0.66143851  1
  In  In71  1  0.16141796  0.66421796  0.16236225  1
  Te  Te72  1  0.09824420  0.09833159  0.09434985  1
  Te  Te73  1  0.09480045  0.10235998  0.39429734  1
  Te  Te74  1  0.07977961  0.06659658  0.75695139  1
  Te  Te75  1  0.06237081  0.45301479  0.10109419  1
  Te  Te76  1  0.08128194  0.42212774  0.43055338  1
  Te  Te77  1  0.06709768  0.42998739  0.76301520  1
  Te  Te78  1  0.06739173  0.75670881  0.09947315  1
  Te  Te79  1  0.07354151  0.76013781  0.42616090  1
  Te  Te80  1  0.08574842  0.75657533  0.75573099  1
  Te  Te81  1  0.42691861  0.10485341  0.07876248  1
  Te  Te82  1  0.43559312  0.08885746  0.43361731  1
  Te  Te83  1  0.40532002  0.09607469  0.74343311  1
  Te  Te84  1  0.41814933  0.38197600  0.02453298  1
  Te  Te85  1  0.46536453  0.39963447  0.35659208  1
  Te  Te86  1  0.42755435  0.40729772  0.76984743  1
  Te  Te87  1  0.44302011  0.74496110  0.14339137  1
  Te  Te88  1  0.39761535  0.73691682  0.40439629  1
  Te  Te89  1  0.40958481  0.73686874  0.74845879  1
  Te  Te90  1  0.73832008  0.07821088  0.07885250  1
  Te  Te91  1  0.73990511  0.09677379  0.43769895  1
  Te  Te92  1  0.73207484  0.06712569  0.71454502  1
  Te  Te93  1  0.76244139  0.43178866  0.12355394  1
  Te  Te94  1  0.75316029  0.42493848  0.38070797  1
  Te  Te95  1  0.72666009  0.42436849  0.76485310  1
  Te  Te96  1  0.76392224  0.76836760  0.10527526  1
  Te  Te97  1  0.73571978  0.72292263  0.37678280  1
  Te  Te98  1  0.75860521  0.73216610  0.78287283  1
  Te  Te99  1  0.09448470  0.26179034  0.23306457  1
  Te  Te100  1  0.04556347  0.25578132  0.58437932  1
  Te  Te101  1  0.09164686  0.27120757  0.92946510  1
  Te  Te102  1  0.09326399  0.58912158  0.27683804  1
  Te  Te103  1  0.08769225  0.59713654  0.57863376  1
  Te  Te104  1  0.08803320  0.61370290  0.92800790  1
  Te  Te105  1  0.08143135  0.91425280  0.24813367  1
  Te  Te106  1  0.06194917  0.90493850  0.57991629  1
  Te  Te107  1  0.08508294  0.90275820  0.91093168  1
  Te  Te108  1  0.46267208  0.29307062  0.24311505  1
  Te  Te109  1  0.42996352  0.26355855  0.56487319  1
  Te  Te110  1  0.38747111  0.25622694  0.93836336  1
  Te  Te111  1  0.42962301  0.55549516  0.25335266  1
  Te  Te112  1  0.41346083  0.56695014  0.58395541  1
  Te  Te113  1  0.41671489  0.60887559  0.94482160  1
  Te  Te114  1  0.42387863  0.92782533  0.23326641  1
  Te  Te115  1  0.41462729  0.93897891  0.58397127  1
  Te  Te116  1  0.42784102  0.90543758  0.90793146  1
  Te  Te117  1  0.76824294  0.25526593  0.23601741  1
  Te  Te118  1  0.78881234  0.26596332  0.60267046  1
  Te  Te119  1  0.73706033  0.25577074  0.92518576  1
  Te  Te120  1  0.73683256  0.56206062  0.19056858  1
  Te  Te121  1  0.73003625  0.57963031  0.59023444  1
  Te  Te122  1  0.76542529  0.57566744  0.94362408  1
  Te  Te123  1  0.73741942  0.92753932  0.26838918  1
  Te  Te124  1  0.72830054  0.89474565  0.57631481  1
  Te  Te125  1  0.74625913  0.91806014  0.92376666  1
  Te  Te126  1  0.30403174  0.22072613  0.06579136  1
  Te  Te127  1  0.28000651  0.28707050  0.40572738  1
  Te  Te128  1  0.25690994  0.23274317  0.74303511  1
  Te  Te129  1  0.26578959  0.57475397  0.09807553  1
  Te  Te130  1  0.26763908  0.53954066  0.41572487  1
  Te  Te131  1  0.26376223  0.56807452  0.75576568  1
  Te  Te132  1  0.26168142  0.93357444  0.06872521  1
  Te  Te133  1  0.24348734  0.91544162  0.41516560  1
  Te  Te134  1  0.26577947  0.92456972  0.73562658  1
  Te  Te135  1  0.58833523  0.26600217  0.10028675  1
  Te  Te136  1  0.61786906  0.26033483  0.40516470  1
  Te  Te137  1  0.57952621  0.26114210  0.75731804  1
  Te  Te138  1  0.57387296  0.55536085  0.09486219  1
  Te  Te139  1  0.61002591  0.60656395  0.39460155  1
  Te  Te140  1  0.57564685  0.58688908  0.76597374  1
  Te  Te141  1  0.57456735  0.92618873  0.08373384  1
  Te  Te142  1  0.55396046  0.90322900  0.42619855  1
  Te  Te143  1  0.58643509  0.91206837  0.74972757  1
  Te  Te144  1  0.92462080  0.24421061  0.10741592  1
  Te  Te145  1  0.91397015  0.24742708  0.39661373  1
  Te  Te146  1  0.91243719  0.22459297  0.74720622  1
  Te  Te147  1  0.90347700  0.59717943  0.01944341  1
  Te  Te148  1  0.91919555  0.57741896  0.43075389  1
  Te  Te149  1  0.90315643  0.58322152  0.76169702  1
  Te  Te150  1  0.93323127  0.92868192  0.07780741  1
  Te  Te151  1  0.88983069  0.88697820  0.40336335  1
  Te  Te152  1  0.91210716  0.90728528  0.76501345  1
  Te  Te153  1  0.27891974  0.09436186  0.25411082  1
  Te  Te154  1  0.23159397  0.08979705  0.57507559  1
  Te  Te155  1  0.24204989  0.10698229  0.91605470  1
  Te  Te156  1  0.27400171  0.38917437  0.22092047  1
  Te  Te157  1  0.23284243  0.39393014  0.59069889  1
  Te  Te158  1  0.24675167  0.42045191  0.92360798  1
  Te  Te159  1  0.26419609  0.75844729  0.22545685  1
  Te  Te160  1  0.25313794  0.73781150  0.58169732  1
  Te  Te161  1  0.26332194  0.74048344  0.94383108  1
  Te  Te162  1  0.56766014  0.07574075  0.25574247  1
  Te  Te163  1  0.62920963  0.11488445  0.61028203  1
  Te  Te164  1  0.59189036  0.08663428  0.91328302  1
  Te  Te165  1  0.55881711  0.45440496  0.24736400  1
  Te  Te166  1  0.57373419  0.41931331  0.57770855  1
  Te  Te167  1  0.55815949  0.41319226  0.93803291  1
  Te  Te168  1  0.56992898  0.72561150  0.22689789  1
  Te  Te169  1  0.56555516  0.74090159  0.57828164  1
  Te  Te170  1  0.60673479  0.73601745  0.96252489  1
  Te  Te171  1  0.92878423  0.06890747  0.24893574  1
  Te  Te172  1  0.91240332  0.05640226  0.58407840  1
  Te  Te173  1  0.91035573  0.09025927  0.91980204  1
  Te  Te174  1  0.92654087  0.44236020  0.24108336  1
  Te  Te175  1  0.86224962  0.39026167  0.55253713  1
  Te  Te176  1  0.90058423  0.40486166  0.92335190  1
  Te  Te177  1  0.91513029  0.69674574  0.20431592  1
  Te  Te178  1  0.89792256  0.74619984  0.58525911  1
  Te  Te179  1  0.93578492  0.72453055  0.94531597  1
