# generated using pymatgen
data_In2Te3
_symmetry_space_group_name_H-M   'P 1'
_cell_length_a   19.03386998
_cell_length_b   19.02747846
_cell_length_c   19.01656727
_cell_angle_alpha   89.99816752
_cell_angle_beta   90.00496314
_cell_angle_gamma   90.02194263
_symmetry_Int_Tables_number   1
_chemical_formula_structural   In2Te3
_chemical_formula_sum   'In72 Te108'
_cell_volume   6887.16404665
_cell_formula_units_Z   36
loop_
 _symmetry_equiv_pos_site_id
 _symmetry_equiv_pos_as_xyz
  1  'x, y, z'
loop_
 _atom_site_type_symbol
 _atom_site_label
 _atom_site_symmetry_multiplicity
 _atom_site_fract_x
 _atom_site_fract_y
 _atom_site_fract_z
 _atom_site_occupancy
  In  In0  1  0.32759322  0.16305573  0.17030671  1
  In  In1  1  0.84633261  -0.00561832  0.47737149  1
  In  In2  1  0.30144485  0.01627033  0.01065513  1
  In  In3  1  0.50334919  0.16864234  0.68627382  1
  In  In4  1  0.29673722  0.17247304  0.49329090  1
  In  In5  1  0.31514550  0.31718493  0.69275177  1
  In  In6  1  0.84096226  0.17339240  0.64790268  1
  In  In7  1  0.64265712  0.48602085  0.82977912  1
  In  In8  1  0.49463712  0.48397555  0.33469094  1
  In  In9  1  0.50358763  0.17640477  0.31140518  1
  In  In10  1  0.51224155  -0.02207447  0.85147165  1
  In  In11  1  0.64805740  0.66581874  -0.00648626  1
  In  In12  1  0.68434104  0.50438508  0.48858444  1
  In  In13  1  0.33535252  0.83911486  0.16683888  1
  In  In14  1  0.84693053  0.31517679  0.48127919  1
  In  In15  1  0.67613116  0.81362905  0.50212278  1
  In  In16  1  -0.00230817  0.84628932  0.47748563  1
  In  In17  1  0.84689838  0.51498117  0.01931157  1
  In  In18  1  0.35153395  0.02625292  0.65592781  1
  In  In19  1  0.86520957  0.70023763  0.17586884  1
  In  In20  1  0.03375382  0.16914248  0.48101197  1
  In  In21  1  0.14795409  0.67567141  0.14267620  1
  In  In22  1  0.19422754  0.50712490  -0.00038432  1
  In  In23  1  0.82341410  0.32785555  0.17676484  1
  In  In24  1  0.15981579  0.34365813  0.49740976  1
  In  In25  1  0.18855051  0.82233941  0.66460328  1
  In  In26  1  0.84271534  0.49793257  0.32694583  1
  In  In27  1  0.44002345  0.46387231  0.01744100  1
  In  In28  1  0.67810503  -0.01203397  0.31981842  1
  In  In29  1  -0.00155629  -0.00075964  0.33514400  1
  In  In30  1  0.49640659  0.83705086  0.67729640  1
  In  In31  1  0.31098408  0.83448755  0.84671001  1
  In  In32  1  0.50570108  0.52774148  0.66826849  1
  In  In33  1  0.68352086  0.16645183  0.84414046  1
  In  In34  1  0.17075361  0.32552844  0.16558101  1
  In  In35  1  0.32796320  0.49133365  0.82221522  1
  In  In36  1  0.64810076  0.51377364  0.18473357  1
  In  In37  1  0.46303293  0.18816389  -0.00974709  1
  In  In38  1  0.02256346  -0.01990066  0.01254221  1
  In  In39  1  0.66927919  0.81652055  0.84600937  1
  In  In40  1  0.16212480  0.48089621  0.31973035  1
  In  In41  1  0.01427902  0.17943656  0.19117074  1
  In  In42  1  0.47569776  0.34123287  0.49322029  1
  In  In43  1  0.00179750  0.16578974  0.82923397  1
  In  In44  1  0.84925793  0.02182043  0.83701668  1
  In  In45  1  0.14297172  0.15877362  -0.00617886  1
  In  In46  1  0.33818312  0.66603700  0.33671894  1
  In  In47  1  0.49653241  0.68418038  0.15790821  1
  In  In48  1  0.34900980  0.67168964  0.65618537  1
  In  In49  1  0.49914282  0.67685687  0.47839759  1
  In  In50  1  0.01274340  -0.01403735  0.67827802  1
  In  In51  1  0.16420662  0.68037050  0.86252178  1
  In  In52  1  0.63906247  0.14450895  0.48917076  1
  In  In53  1  0.49052906  -0.00177078  0.48202505  1
  In  In54  1  0.66086799  0.33185642  -0.00681602  1
  In  In55  1  -0.00254840  0.34220059  0.67024878  1
  In  In56  1  0.66046463  0.16355777  0.15319885  1
  In  In57  1  0.83265267  0.86130134  0.67702429  1
  In  In58  1  0.85753723  0.83917980  0.00373028  1
  In  In59  1  0.16593464  0.84654645  0.34721286  1
  In  In60  1  0.84406540  0.68347762  0.84548188  1
  In  In61  1  0.83386872  0.66502913  0.48580238  1
  In  In62  1  0.00396939  0.67412980  0.66420385  1
  In  In63  1  0.82200589  0.50460052  0.68038655  1
  In  In64  1  0.66341638  -0.01180110  0.02469387  1
  In  In65  1  0.32468640  -0.01151807  0.30827732  1
  In  In66  1  0.17450817  0.64410967  0.51482801  1
  In  In67  1  0.64759885  0.32673540  0.67665771  1
  In  In68  1  -0.01446050  0.51087817  0.16823811  1
  In  In69  1  0.65995760  0.83426999  0.16866416  1
  In  In70  1  0.16935631  0.49555575  0.66100713  1
  In  In71  1  -0.01479159  0.34041741  -0.00184874  1
  Te  Te72  1  0.09153574  0.07716234  0.11061813  1
  Te  Te73  1  0.10402480  0.05364214  0.42481916  1
  Te  Te74  1  0.09281848  0.07364847  0.76209626  1
  Te  Te75  1  0.08068581  0.42205168  0.08717129  1
  Te  Te76  1  0.06843180  0.42138225  0.41496268  1
  Te  Te77  1  0.09572060  0.41077987  0.75282949  1
  Te  Te78  1  0.11259940  0.78919188  0.05422016  1
  Te  Te79  1  0.09146316  0.73883306  0.42868525  1
  Te  Te80  1  0.08632365  0.76049396  0.75624018  1
  Te  Te81  1  0.42036343  0.07726651  0.08338598  1
  Te  Te82  1  0.41212070  0.10618775  0.41139175  1
  Te  Te83  1  0.42541791  0.07891942  0.77887867  1
  Te  Te84  1  0.38906898  0.38513013  0.12959117  1
  Te  Te85  1  0.38888136  0.39942955  0.39356071  1
  Te  Te86  1  0.42538108  0.41728014  0.73257801  1
  Te  Te87  1  0.39201084  0.74212917  0.07103204  1
  Te  Te88  1  0.41732846  0.76977733  0.40221647  1
  Te  Te89  1  0.41487864  0.74834858  0.76695126  1
  Te  Te90  1  0.75834227  0.08202686  0.08047207  1
  Te  Te91  1  0.75118045  0.09111893  0.40686164  1
  Te  Te92  1  0.75523167  0.08520566  0.73684373  1
  Te  Te93  1  0.74220946  0.42504115  0.08576331  1
  Te  Te94  1  0.75172041  0.40208642  0.40185539  1
  Te  Te95  1  0.74810822  0.40070507  0.76212236  1
  Te  Te96  1  0.75420953  0.74367856  0.06899809  1
  Te  Te97  1  0.74992603  0.74410103  0.39776077  1
  Te  Te98  1  0.75498880  0.74914672  0.74067204  1
  Te  Te99  1  0.11516407  0.24568720  0.27736947  1
  Te  Te100  1  0.09128445  0.24728405  0.59488173  1
  Te  Te101  1  0.08233467  0.26771596  0.90698249  1
  Te  Te102  1  0.08000955  0.59067670  0.25265300  1
  Te  Te103  1  0.06258137  0.56482498  0.57845170  1
  Te  Te104  1  0.08832947  0.57498549  0.92610967  1
  Te  Te105  1  0.06725364  0.89831460  0.24680768  1
  Te  Te106  1  0.09294142  0.90561870  0.57887529  1
  Te  Te107  1  0.13226409  0.90246733  0.94955555  1
  Te  Te108  1  0.41124552  0.26753208  0.23735599  1
  Te  Te109  1  0.41116253  0.23933063  0.58898424  1
  Te  Te110  1  0.37308380  0.27971010  0.91258584  1
  Te  Te111  1  0.42189706  0.58314163  0.24376410  1
  Te  Te112  1  0.41593113  0.57740272  0.55891586  1
  Te  Te113  1  0.41822301  0.56300917  0.91275029  1
  Te  Te114  1  0.43225551  0.91327433  0.24706095  1
  Te  Te115  1  0.41088012  0.91115697  0.57740855  1
  Te  Te116  1  0.39747648  0.92444247  0.93222391  1
  Te  Te117  1  0.72509826  0.25122089  0.25176788  1
  Te  Te118  1  0.73135273  0.24927360  0.57527734  1
  Te  Te119  1  0.76393485  0.24929330  0.93175709  1
  Te  Te120  1  0.77159553  0.58856196  0.22910505  1
  Te  Te121  1  0.74545612  0.59751676  0.58952255  1
  Te  Te122  1  0.74429175  0.57884526  0.91335572  1
  Te  Te123  1  0.76437271  0.92218329  0.22195308  1
  Te  Te124  1  0.74807047  0.92955695  0.57189638  1
  Te  Te125  1  0.75523241  0.92224268  0.91227327  1
  Te  Te126  1  0.24776580  0.24088383  0.06752701  1
  Te  Te127  1  0.23511760  0.26362766  0.39569801  1
  Te  Te128  1  0.28318946  0.22514792  0.80236313  1
  Te  Te129  1  0.25694112  0.58640961  0.10418793  1
  Te  Te130  1  0.25319201  0.56679177  0.41340469  1
  Te  Te131  1  0.24296318  0.60190281  0.73950866  1
  Te  Te132  1  0.22633437  0.90374633  0.07906909  1
  Te  Te133  1  0.24325441  0.94698148  0.42353134  1
  Te  Te134  1  0.26097019  0.92879270  0.74080372  1
  Te  Te135  1  0.56207331  0.25602586  0.08080132  1
  Te  Te136  1  0.57750175  0.25996791  0.41487705  1
  Te  Te137  1  0.57323738  0.25547140  0.78729221  1
  Te  Te138  1  0.56412317  0.56340505  0.07008699  1
  Te  Te139  1  0.59199487  0.58414829  0.40168127  1
  Te  Te140  1  0.58325643  0.60190273  0.76528124  1
  Te  Te141  1  0.56839351  0.88337259  0.06256229  1
  Te  Te142  1  0.59049993  0.90840752  0.41506356  1
  Te  Te143  1  0.60303275  0.91606685  0.74884035  1
  Te  Te144  1  0.91713127  0.24462841  0.09228744  1
  Te  Te145  1  0.92478477  0.22356491  0.39674703  1
  Te  Te146  1  0.90429460  0.25514610  0.75565124  1
  Te  Te147  1  0.94145636  0.61980680  0.07214497  1
  Te  Te148  1  0.92608547  0.58854861  0.40473244  1
  Te  Te149  1  0.92398029  0.58456661  0.75693349  1
  Te  Te150  1  0.91865210  0.92773662  0.10218248  1
  Te  Te151  1  0.89322477  0.89036321  0.37912483  1
  Te  Te152  1  0.93229408  0.90828182  0.78039505  1
  Te  Te153  1  0.23215500  0.07371936  0.23543267  1
  Te  Te154  1  0.23726516  0.10007529  0.60447141  1
  Te  Te155  1  0.23702925  0.09124682  0.90013010  1
  Te  Te156  1  0.26408208  0.43077236  0.21806555  1
  Te  Te157  1  0.26628105  0.41100105  0.58434656  1
  Te  Te158  1  0.26014245  0.40053213  0.91948864  1
  Te  Te159  1  0.23652203  0.74872020  0.25438904  1
  Te  Te160  1  0.26945710  0.75418402  0.55755910  1
  Te  Te161  1  0.28296197  0.72210820  0.93847015  1
  Te  Te162  1  0.57749855  0.06801317  0.23879387  1
  Te  Te163  1  0.56963839  0.06613312  0.59646648  1
  Te  Te164  1  0.58172068  0.08895397  0.93100004  1
  Te  Te165  1  0.58442290  0.40266577  0.25121944  1
  Te  Te166  1  0.58839050  0.42502023  0.57644686  1
  Te  Te167  1  0.55275259  0.40879790  0.92216133  1
  Te  Te168  1  0.59198385  0.73707597  0.25330090  1
  Te  Te169  1  0.57750074  0.74181388  0.59180628  1
  Te  Te170  1  0.56068167  0.76888216  0.93328763  1
  Te  Te171  1  0.91554678  0.10761549  0.27569905  1
  Te  Te172  1  0.93172721  0.07711580  0.57523569  1
  Te  Te173  1  0.93544981  0.08612964  0.93922930  1
  Te  Te174  1  0.93259408  0.39868836  0.25552176  1
  Te  Te175  1  0.89843894  0.41547061  0.58068205  1
  Te  Te176  1  0.90785085  0.43319739  0.91618141  1
  Te  Te177  1  0.97494286  0.77498613  0.23453692  1
  Te  Te178  1  0.91347152  0.77041706  0.58460727  1
  Te  Te179  1  0.94494729  0.75972238  0.91739921  1
