# generated using pymatgen
data_In2Te3
_symmetry_space_group_name_H-M   'P 1'
_cell_length_a   18.94747219
_cell_length_b   18.94537947
_cell_length_c   18.94671255
_cell_angle_alpha   90.04066534
_cell_angle_beta   89.99663799
_cell_angle_gamma   90.07276659
_symmetry_Int_Tables_number   1
_chemical_formula_structural   In2Te3
_chemical_formula_sum   'In72 Te108'
_cell_volume   6801.23831400
_cell_formula_units_Z   36
loop_
 _symmetry_equiv_pos_site_id
 _symmetry_equiv_pos_as_xyz
  1  'x, y, z'
loop_
 _atom_site_type_symbol
 _atom_site_label
 _atom_site_symmetry_multiplicity
 _atom_site_fract_x
 _atom_site_fract_y
 _atom_site_fract_z
 _atom_site_occupancy
  In  In0  1  0.16885107  0.16648213  0.67268609  1
  In  In1  1  0.00298561  0.84914128  0.84267725  1
  In  In2  1  0.49687833  -0.00370862  0.16449893  1
  In  In3  1  0.14288464  0.51423627  0.33795763  1
  In  In4  1  0.17098081  0.52357899  0.01563126  1
  In  In5  1  0.51182778  0.50446377  0.33211362  1
  In  In6  1  0.17005411  -0.01984912  0.47413436  1
  In  In7  1  -0.03817610  -0.00255597  0.68233473  1
  In  In8  1  0.79628481  0.83255036  0.66118964  1
  In  In9  1  0.15745575  0.63377453  0.83191963  1
  In  In10  1  0.00303895  0.50657578  0.17302112  1
  In  In11  1  0.15252621  0.48431670  0.67615009  1
  In  In12  1  0.00342069  -0.00355049  0.02581668  1
  In  In13  1  0.32658612  0.32841686  0.32123977  1
  In  In14  1  0.66930921  0.68721762  0.35837232  1
  In  In15  1  0.63607429  0.52058946  0.19406131  1
  In  In16  1  0.67010825  0.49853283  0.83487562  1
  In  In17  1  0.34580787  -0.00295661  0.64573332  1
  In  In18  1  0.84874346  0.49622844  0.02041510  1
  In  In19  1  0.15969335  0.84086359  0.64422940  1
  In  In20  1  0.69551405  0.31851789  0.00657678  1
  In  In21  1  0.49229342  0.49471424  0.66583792  1
  In  In22  1  0.31162500  -0.01900037  0.02211483  1
  In  In23  1  0.14352843  0.16088858  0.01192658  1
  In  In24  1  0.34046182  0.84030294  0.83321739  1
  In  In25  1  0.82524480  0.15488085  -0.03359259  1
  In  In26  1  0.86402316  0.13245014  0.30830265  1
  In  In27  1  0.01009237  0.49809745  0.49311631  1
  In  In28  1  0.35582313  0.16321476  0.47379156  1
  In  In29  1  0.32392115  0.49537182  0.82836247  1
  In  In30  1  0.50407539  0.48793830  0.00734905  1
  In  In31  1  0.01361711  0.82869039  0.15573000  1
  In  In32  1  0.17218263  0.14029699  0.32365763  1
  In  In33  1  0.32666646  0.35437036  0.66368925  1
  In  In34  1  -0.00349542  0.68827939  0.32843084  1
  In  In35  1  -0.00883883  0.32410608  0.31713916  1
  In  In36  1  0.83744651  0.51931956  0.66132779  1
  In  In37  1  0.49109603  0.84496569  0.32777173  1
  In  In38  1  0.80667184  0.67404364  0.16428433  1
  In  In39  1  0.00241039  0.16483369  0.51597211  1
  In  In40  1  0.34357411  0.33990565  -0.01159903  1
  In  In41  1  0.84503177  -0.00304000  0.49319275  1
  In  In42  1  0.69099303  0.00287724  -0.03762152  1
  In  In43  1  0.53579892  0.86493313  0.68223356  1
  In  In44  1  0.68119344  0.14638781  0.16260418  1
  In  In45  1  0.65163193  0.69563287  -0.02056830  1
  In  In46  1  0.84634485  0.68767154  0.50363412  1
  In  In47  1  0.68010924  -0.00499993  0.33091653  1
  In  In48  1  0.52042830  0.01173129  0.49594730  1
  In  In49  1  0.51075610  0.31884110  0.52385971  1
  In  In50  1  -0.02568440  0.30611781  -0.02289008  1
  In  In51  1  0.46294316  0.69432007  0.16918342  1
  In  In52  1  0.16056100  0.34265003  0.17287847  1
  In  In53  1  0.33344507  0.51644119  0.47926945  1
  In  In54  1  0.51067374  0.13103555  0.67296148  1
  In  In55  1  0.67168377  0.86327093  0.16990863  1
  In  In56  1  0.32560617  0.69427727  0.01007989  1
  In  In57  1  0.49323268  0.68726003  0.84123809  1
  In  In58  1  0.16134270  0.83209514  0.31021929  1
  In  In59  1  0.66670232  0.31648434  0.36517035  1
  In  In60  1  0.15437316  0.01975859  0.83608613  1
  In  In61  1  -0.03102276  0.67444345  0.68225279  1
  In  In62  1  0.51092961  0.69572515  0.50564543  1
  In  In63  1  0.81179142  0.32378866  0.52248890  1
  In  In64  1  0.15981103  0.69191664  0.50017204  1
  In  In65  1  0.83388381  0.69196161  0.83851724  1
  In  In66  1  0.50239868  0.29981787  0.14037287  1
  In  In67  1  0.84767429  0.32871964  0.15322952  1
  In  In68  1  0.34515532  0.17354904  0.81699840  1
  In  In69  1  -0.01091832  0.31416183  0.70291249  1
  In  In70  1  0.32251278  0.14361400  0.17289562  1
  In  In71  1  0.64930375  0.31314706  0.68263900  1
  Te  Te72  1  0.10179526  0.06501558  0.11296484  1
  Te  Te73  1  0.06618934  0.07401062  0.41275354  1
  Te  Te74  1  0.05801968  0.09708908  0.74987406  1
  Te  Te75  1  0.06295915  0.40669207  0.07652341  1
  Te  Te76  1  0.08660333  0.39494908  0.41208453  1
  Te  Te77  1  0.06828854  0.41576392  0.77333073  1
  Te  Te78  1  0.13077502  0.75864634  0.09354315  1
  Te  Te79  1  0.06566669  0.78134630  0.42433965  1
  Te  Te80  1  0.08822103  0.75328230  0.74859797  1
  Te  Te81  1  0.41568908  0.08452953  0.06937644  1
  Te  Te82  1  0.41318911  0.05117518  0.40257500  1
  Te  Te83  1  0.42067906  0.05074105  0.76588472  1
  Te  Te84  1  0.41157445  0.41621282  0.10352478  1
  Te  Te85  1  0.42257532  0.40255256  0.42168215  1
  Te  Te86  1  0.42773564  0.40227642  0.76687794  1
  Te  Te87  1  0.43456083  0.78382999  0.05583393  1
  Te  Te88  1  0.42368318  0.73048811  0.39197583  1
  Te  Te89  1  0.42271570  0.76537029  0.73262382  1
  Te  Te90  1  0.77130854  0.06158966  0.07807153  1
  Te  Te91  1  0.76013071  0.09596365  0.41104697  1
  Te  Te92  1  0.81418088  0.10681022  0.81694507  1
  Te  Te93  1  0.73475093  0.43427724  0.10319670  1
  Te  Te94  1  0.75104082  0.41705655  0.42750558  1
  Te  Te95  1  0.75009734  0.41935699  0.73458869  1
  Te  Te96  1  0.74615686  0.77409526  0.06796992  1
  Te  Te97  1  0.77123061  0.78665530  0.41694335  1
  Te  Te98  1  0.73760568  0.71334930  0.72885757  1
  Te  Te99  1  0.08042803  0.23194201  0.23832774  1
  Te  Te100  1  0.08638509  0.26459582  0.59134445  1
  Te  Te101  1  0.08051119  0.23634784  0.90459033  1
  Te  Te102  1  0.09077836  0.61242450  0.23578382  1
  Te  Te103  1  0.07272437  0.59694994  0.59108205  1
  Te  Te104  1  0.06613268  0.58438890  0.93427228  1
  Te  Te105  1  0.05955526  0.93141654  0.25690773  1
  Te  Te106  1  0.06856649  0.94641284  0.58629139  1
  Te  Te107  1  0.10315895  0.91750693  0.93259021  1
  Te  Te108  1  0.41986731  0.23275397  0.25054731  1
  Te  Te109  1  0.40661014  0.23504220  0.60556362  1
  Te  Te110  1  0.42752270  0.24546652  0.91550825  1
  Te  Te111  1  0.41570983  0.59282604  0.26419143  1
  Te  Te112  1  0.41782552  0.59221745  0.57875337  1
  Te  Te113  1  0.41302274  0.57859502  0.92086350  1
  Te  Te114  1  0.39904724  0.91121768  0.23435943  1
  Te  Te115  1  0.43644749  0.90690884  0.56969654  1
  Te  Te116  1  0.41428769  0.91170195  0.93907647  1
  Te  Te117  1  0.76049861  0.24601999  0.24748819  1
  Te  Te118  1  0.72534557  0.22752006  0.58977827  1
  Te  Te119  1  0.76138490  0.26567826  0.88316017  1
  Te  Te120  1  0.74757686  0.58604353  0.27346150  1
  Te  Te121  1  0.74938100  0.61154149  0.58715527  1
  Te  Te122  1  0.74868899  0.58587185  0.93308804  1
  Te  Te123  1  0.78047828  0.93349272  0.24173036  1
  Te  Te124  1  0.73860616  0.94789510  0.58707308  1
  Te  Te125  1  0.73177215  0.88690422  0.87649949  1
  Te  Te126  1  0.25281132  0.25565392  0.08815628  1
  Te  Te127  1  0.24191653  0.24320296  0.41423652  1
  Te  Te128  1  0.24218567  0.26898644  0.75773891  1
  Te  Te129  1  0.27380275  0.58759840  0.09613847  1
  Te  Te130  1  0.24161374  0.61011387  0.40183047  1
  Te  Te131  1  0.25696318  0.58475412  0.72682931  1
  Te  Te132  1  0.23193865  0.87990337  0.09837332  1
  Te  Te133  1  0.25552406  0.87727112  0.41629260  1
  Te  Te134  1  0.24113027  0.93140639  0.74609468  1
  Te  Te135  1  0.59639036  0.21425394  0.05558716  1
  Te  Te136  1  0.57365836  0.22552193  0.43097969  1
  Te  Te137  1  0.58069208  0.21681398  0.77432387  1
  Te  Te138  1  0.57496024  0.60285600  0.08000943  1
  Te  Te139  1  0.59083638  0.58112504  0.43384286  1
  Te  Te140  1  0.57283264  0.58531566  0.75753769  1
  Te  Te141  1  0.59313223  0.93686690  0.06451756  1
  Te  Te142  1  0.59715851  0.90411157  0.41813600  1
  Te  Te143  1  0.63090358  0.94551867  0.77408940  1
  Te  Te144  1  0.91681474  0.21721017  0.08368147  1
  Te  Te145  1  0.91066548  0.24408340  0.41749603  1
  Te  Te146  1  0.87860141  0.24140042  0.76768935  1
  Te  Te147  1  0.92325485  0.60695555  0.09082445  1
  Te  Te148  1  0.91854043  0.58725862  0.41278972  1
  Te  Te149  1  0.91698272  0.57253020  0.77885641  1
  Te  Te150  1  0.91706154  0.87890311  0.05372302  1
  Te  Te151  1  0.88183711  0.88928366  0.40176505  1
  Te  Te152  1  0.88123230  0.90558646  0.77067564  1
  Te  Te153  1  0.26527127  0.04321841  0.26378822  1
  Te  Te154  1  0.24571155  0.08384568  0.56974181  1
  Te  Te155  1  0.25771995  0.09285926  0.92159241  1
  Te  Te156  1  0.24633691  0.43734992  0.25350975  1
  Te  Te157  1  0.24146638  0.42830982  0.56297616  1
  Te  Te158  1  0.23286668  0.41851096  0.92131345  1
  Te  Te159  1  0.24343795  0.76476907  0.20412066  1
  Te  Te160  1  0.26349562  0.76627077  0.57382893  1
  Te  Te161  1  0.24022154  0.74656570  0.89799639  1
  Te  Te162  1  0.58091297  0.08421611  0.25653851  1
  Te  Te163  1  0.61843391  0.06195848  0.59742919  1
  Te  Te164  1  0.61191918  0.07523884  0.85831598  1
  Te  Te165  1  0.57993342  0.38733959  0.24662687  1
  Te  Te166  1  0.59832174  0.42439895  0.58420293  1
  Te  Te167  1  0.59305179  0.40145839  0.92273416  1
  Te  Te168  1  0.59335240  0.74971017  0.24160516  1
  Te  Te169  1  0.60453192  0.76573418  0.59644493  1
  Te  Te170  1  0.59178381  0.79216917  0.88376722  1
  Te  Te171  1  0.94508927  0.03615592  0.23657225  1
  Te  Te172  1  0.89321103  0.10265427  0.59845894  1
  Te  Te173  1  0.93113184  0.06144732  0.91072238  1
  Te  Te174  1  0.90229622  0.42981357  0.25601433  1
  Te  Te175  1  0.92626867  0.41493041  0.58838840  1
  Te  Te176  1  0.88751449  0.40516855  0.91322766  1
  Te  Te177  1  0.89931956  0.76516870  0.24317774  1
  Te  Te178  1  0.92456270  0.78422285  0.59085998  1
  Te  Te179  1  0.93337114  0.75076134  0.92959507  1
