# generated using pymatgen
data_In2Te3
_symmetry_space_group_name_H-M   'P 1'
_cell_length_a   18.77825755
_cell_length_b   18.78175999
_cell_length_c   18.78235011
_cell_angle_alpha   90.03339364
_cell_angle_beta   89.97796252
_cell_angle_gamma   90.03079537
_symmetry_Int_Tables_number   1
_chemical_formula_structural   In2Te3
_chemical_formula_sum   'In72 Te108'
_cell_volume   6624.32056670
_cell_formula_units_Z   36
loop_
 _symmetry_equiv_pos_site_id
 _symmetry_equiv_pos_as_xyz
  1  'x, y, z'
loop_
 _atom_site_type_symbol
 _atom_site_label
 _atom_site_symmetry_multiplicity
 _atom_site_fract_x
 _atom_site_fract_y
 _atom_site_fract_z
 _atom_site_occupancy
  In  In0  1  0.37087839  0.69197269  -0.00767123  1
  In  In1  1  0.17964350  0.65222074  0.80327743  1
  In  In2  1  0.00053473  0.65236493  0.00583338  1
  In  In3  1  -0.02116180  0.83187183  0.82426915  1
  In  In4  1  0.50163611  0.50367395  0.01374725  1
  In  In5  1  0.17340955  0.53396195  0.36170898  1
  In  In6  1  0.50315053  0.83576345  0.66486131  1
  In  In7  1  -0.00199776  0.50365184  0.51179476  1
  In  In8  1  -0.00622263  0.51469667  0.14191763  1
  In  In9  1  0.34461436  -0.01695881  0.33355473  1
  In  In10  1  0.83932945  0.13983223  0.00550371  1
  In  In11  1  0.17688678  0.15410028  0.33361961  1
  In  In12  1  0.32310361  0.16704098  0.83684332  1
  In  In13  1  -0.00814274  0.17459175  0.51045018  1
  In  In14  1  0.84148783  0.51194146  -0.01814388  1
  In  In15  1  0.18443721  0.67353019  0.16478957  1
  In  In16  1  0.67586639  0.16595509  0.51541012  1
  In  In17  1  0.50417704  0.36226309  0.50468766  1
  In  In18  1  0.64222212  0.52236287  0.19461941  1
  In  In19  1  0.66568714  -0.00367896  0.67736871  1
  In  In20  1  0.20080585  0.32040284  0.16619901  1
  In  In21  1  0.82717450  0.83488239  0.34269133  1
  In  In22  1  0.66466561  0.13783711  0.84922253  1
  In  In23  1  0.32927210  0.82989390  0.19094515  1
  In  In24  1  0.66078480  0.33867756  0.64618550  1
  In  In25  1  0.14092224  0.32990116  0.81369313  1
  In  In26  1  0.52470153  0.15988608  0.66249385  1
  In  In27  1  0.65982490  0.52019471  0.82955636  1
  In  In28  1  0.00813954  0.34441104  0.66422806  1
  In  In29  1  0.15940993  -0.00483446  0.18334942  1
  In  In30  1  0.49360261  0.65076211  0.49364016  1
  In  In31  1  0.15129691  0.84070595  -0.00673332  1
  In  In32  1  0.65692680  0.83977860  0.49375526  1
  In  In33  1  0.66045722  0.35440802  0.33309275  1
  In  In34  1  0.84220945  0.00240935  0.52155575  1
  In  In35  1  0.46887613  0.34195070  0.82010048  1
  In  In36  1  0.52993561  0.83006449  0.04008884  1
  In  In37  1  0.32887212  0.16691019  0.50240069  1
  In  In38  1  0.84127580  -0.01788311  0.82368641  1
  In  In39  1  0.01258986  0.71310897  0.35542316  1
  In  In40  1  0.34281948  0.65824031  0.33396645  1
  In  In41  1  -0.00122706  0.13997982  0.16208120  1
  In  In42  1  0.80986952  0.68986839  0.79847177  1
  In  In43  1  0.31435903  -0.01913627  0.65152548  1
  In  In44  1  0.32320521  0.84737290  0.82028021  1
  In  In45  1  0.81164635  0.84178887  0.01665479  1
  In  In46  1  0.17114075  0.50231156  -0.01034124  1
  In  In47  1  0.35290022  0.33571710  0.35000104  1
  In  In48  1  0.80765476  0.34389602  0.17732673  1
  In  In49  1  0.84971771  0.31853125  0.82101484  1
  In  In50  1  0.81960439  0.00420928  0.18381499  1
  In  In51  1  0.65692536  -0.00975638  0.34817225  1
  In  In52  1  0.82742068  0.67918166  0.50500730  1
  In  In53  1  0.00152511  0.67442001  0.65682668  1
  In  In54  1  0.34391286  0.31054105  0.00652411  1
  In  In55  1  0.31563996  0.82554199  0.49286174  1
  In  In56  1  0.49445446  0.17109337  0.31922978  1
  In  In57  1  -0.02834649  -0.00499020  -0.00473488  1
  In  In58  1  0.31888966  0.37409236  0.63883776  1
  In  In59  1  -0.00179732  -0.01983101  0.33570008  1
  In  In60  1  -0.01088442  0.32382816  0.35013443  1
  In  In61  1  0.67540368  0.16206277  0.16263575  1
  In  In62  1  0.80915687  0.50089524  0.35049879  1
  In  In63  1  0.13899383  0.15144573  0.68779860  1
  In  In64  1  0.35843740  0.02190404  0.01404021  1
  In  In65  1  0.32302967  0.49149435  0.80051259  1
  In  In66  1  0.83765366  0.51248375  0.65261610  1
  In  In67  1  0.64894873  0.31813888  0.02313568  1
  In  In68  1  0.00422151  0.30944022  -0.01975169  1
  In  In69  1  0.49609132  -0.01299353  0.83511577  1
  In  In70  1  0.50334838  0.68677036  0.83336767  1
  In  In71  1  0.35931306  0.52003612  0.19456275  1
  Te  Te72  1  0.09154805  0.06924113  0.06771813  1
  Te  Te73  1  0.07798026  0.07985770  0.42038792  1
  Te  Te74  1  0.06211717  0.05894702  0.77050895  1
  Te  Te75  1  0.08822275  0.40894759  0.07920972  1
  Te  Te76  1  0.08656789  0.41716034  0.41939359  1
  Te  Te77  1  0.09838968  0.44218591  0.72991703  1
  Te  Te78  1  0.07491569  0.75410031  0.09298786  1
  Te  Te79  1  0.10892457  0.73280345  0.46909541  1
  Te  Te80  1  0.09258437  0.76374187  0.74591398  1
  Te  Te81  1  0.45466158  0.10858784  0.08078973  1
  Te  Te82  1  0.42505234  0.08038954  0.42240043  1
  Te  Te83  1  0.41861708  0.07609647  0.73660849  1
  Te  Te84  1  0.41473685  0.41142727  0.09766358  1
  Te  Te85  1  0.43065535  0.44938580  0.40812621  1
  Te  Te86  1  0.43928881  0.44138925  0.71159260  1
  Te  Te87  1  0.42932059  0.73275009  0.12573287  1
  Te  Te88  1  0.42858745  0.76249166  0.40693636  1
  Te  Te89  1  0.39963545  0.74732447  0.73598883  1
  Te  Te90  1  0.72842737  0.05161374  0.06493446  1
  Te  Te91  1  0.75847174  0.07859895  0.41946401  1
  Te  Te92  1  0.76203552  0.09443876  0.74214124  1
  Te  Te93  1  0.74201567  0.43392090  0.07251361  1
  Te  Te94  1  0.73919672  0.41209479  0.44395953  1
  Te  Te95  1  0.75385728  0.41982617  0.75565788  1
  Te  Te96  1  0.70959731  0.76805643  0.10794291  1
  Te  Te97  1  0.72652660  0.73624930  0.40384800  1
  Te  Te98  1  0.73054987  0.78666082  0.72599196  1
  Te  Te99  1  0.08185388  0.24735036  0.24426396  1
  Te  Te100  1  0.10130350  0.25510848  0.58107626  1
  Te  Te101  1  0.10968442  0.22941127  0.91702584  1
  Te  Te102  1  0.08320360  0.58746363  0.24488838  1
  Te  Te103  1  0.09803213  0.59077588  0.57896492  1
  Te  Te104  1  0.07884719  0.57876939  0.89712602  1
  Te  Te105  1  0.08672525  0.89071595  0.25769001  1
  Te  Te106  1  0.13040938  0.87330274  0.53751820  1
  Te  Te107  1  0.07386836  0.93074866  0.89833928  1
  Te  Te108  1  0.39108346  0.24354289  0.24146933  1
  Te  Te109  1  0.42481601  0.25332475  0.58951912  1
  Te  Te110  1  0.43835639  0.22942554  0.91661684  1
  Te  Te111  1  0.46803204  0.58923103  0.27477452  1
  Te  Te112  1  0.38414561  0.59472109  0.57684814  1
  Te  Te113  1  0.41057239  0.56814383  0.90725014  1
  Te  Te114  1  0.43894016  0.91701271  0.23901312  1
  Te  Te115  1  0.42178708  0.91695341  0.56604496  1
  Te  Te116  1  0.42048488  0.89171397  0.93014527  1
  Te  Te117  1  0.74819342  0.24142367  0.27124209  1
  Te  Te118  1  0.76308480  0.23876343  0.60946475  1
  Te  Te119  1  0.75169220  0.25012362  0.93015549  1
  Te  Te120  1  0.75049924  0.59915245  0.25887623  1
  Te  Te121  1  0.73606373  0.58901080  0.57855591  1
  Te  Te122  1  0.74510213  0.61163672  0.91659102  1
  Te  Te123  1  0.72544407  0.89830118  0.24364277  1
  Te  Te124  1  0.75506822  0.89813111  0.59870989  1
  Te  Te125  1  0.74158240  0.92101456  0.91373529  1
  Te  Te126  1  0.24254182  0.22070264  0.06713078  1
  Te  Te127  1  0.23997303  0.26210250  0.42218058  1
  Te  Te128  1  0.26165173  0.25937463  0.73257024  1
  Te  Te129  1  0.26886224  0.57969402  0.07793014  1
  Te  Te130  1  0.28007764  0.58737457  0.46123961  1
  Te  Te131  1  0.26647858  0.58775072  0.70016185  1
  Te  Te132  1  0.25689821  0.91030875  0.08043288  1
  Te  Te133  1  0.23305387  0.93145159  0.42017885  1
  Te  Te134  1  0.21970532  0.92857889  0.75236309  1
  Te  Te135  1  0.55433997  0.23223411  0.10189531  1
  Te  Te136  1  0.57731317  0.24771114  0.42754996  1
  Te  Te137  1  0.59207238  0.25330386  0.76390650  1
  Te  Te138  1  0.59147548  0.60545336  0.07718447  1
  Te  Te139  1  0.56094502  0.56213692  0.39566527  1
  Te  Te140  1  0.57650465  0.59967009  0.73886605  1
  Te  Te141  1  0.61985920  0.92864222  0.10103212  1
  Te  Te142  1  0.55665917  0.89116844  0.39594145  1
  Te  Te143  1  0.60046023  0.89205844  0.77222360  1
  Te  Te144  1  0.90756559  0.25346450  0.09381046  1
  Te  Te145  1  0.89201812  0.24538776  0.42590869  1
  Te  Te146  1  0.94633940  0.23683301  0.74690326  1
  Te  Te147  1  0.88330664  0.60825266  0.09617127  1
  Te  Te148  1  0.92598404  0.59146097  0.40916751  1
  Te  Te149  1  0.91635775  0.59109558  0.75704319  1
  Te  Te150  1  0.91547151  0.91129338  0.10854740  1
  Te  Te151  1  0.92529190  0.89908767  0.44283480  1
  Te  Te152  1  0.93065675  0.92503735  0.71767363  1
  Te  Te153  1  0.27149705  0.08254073  0.23854454  1
  Te  Te154  1  0.22729459  0.08187350  0.57804337  1
  Te  Te155  1  0.26328844  0.05152296  0.90556241  1
  Te  Te156  1  0.24408234  0.43620898  0.25885990  1
  Te  Te157  1  0.25394267  0.44596451  0.52886711  1
  Te  Te158  1  0.25696375  0.40230985  0.91116627  1
  Te  Te159  1  0.23423285  0.75506233  0.28401646  1
  Te  Te160  1  0.22120122  0.77023798  0.59718729  1
  Te  Te161  1  0.24162916  0.73833892  0.91996457  1
  Te  Te162  1  0.58008064  0.07060994  0.24349915  1
  Te  Te163  1  0.58088333  0.05576967  0.56541111  1
  Te  Te164  1  0.56397062  0.07411105  0.93673855  1
  Te  Te165  1  0.56764127  0.39960671  0.22890393  1
  Te  Te166  1  0.59949839  0.45334075  0.57515275  1
  Te  Te167  1  0.57933930  0.41164078  0.91447899  1
  Te  Te168  1  0.59196834  0.72585806  0.18788452  1
  Te  Te169  1  0.58573396  0.73738072  0.58319253  1
  Te  Te170  1  0.59304863  0.74840856  0.93310818  1
  Te  Te171  1  0.90949581  0.09027832  0.27341320  1
  Te  Te172  1  0.94870683  0.06564314  0.60486785  1
  Te  Te173  1  0.92821006  0.09947340  0.89082335  1
  Te  Te174  1  0.91746687  0.42560638  0.24747007  1
  Te  Te175  1  0.90131588  0.40108754  0.57062141  1
  Te  Te176  1  0.93379385  0.42002464  0.90114356  1
  Te  Te177  1  0.91605983  0.75544015  0.25341527  1
  Te  Te178  1  0.91662074  0.76889211  0.58109070  1
  Te  Te179  1  0.90683189  0.75104049  0.93118289  1
