# generated using pymatgen
data_In2Te3
_symmetry_space_group_name_H-M   'P 1'
_cell_length_a   18.96249878
_cell_length_b   18.96753215
_cell_length_c   18.96082698
_cell_angle_alpha   90.02469341
_cell_angle_beta   90.13197764
_cell_angle_gamma   89.94977448
_symmetry_Int_Tables_number   1
_chemical_formula_structural   In2Te3
_chemical_formula_sum   'In72 Te108'
_cell_volume   6819.65352516
_cell_formula_units_Z   36
loop_
 _symmetry_equiv_pos_site_id
 _symmetry_equiv_pos_as_xyz
  1  'x, y, z'
loop_
 _atom_site_type_symbol
 _atom_site_label
 _atom_site_symmetry_multiplicity
 _atom_site_fract_x
 _atom_site_fract_y
 _atom_site_fract_z
 _atom_site_occupancy
  In  In0  1  0.71178591  0.67988932  0.03093744  1
  In  In1  1  0.51262538  0.65057005  0.19136372  1
  In  In2  1  0.83496718  0.16240881  0.66811116  1
  In  In3  1  0.83960453  0.50263018  0.66352486  1
  In  In4  1  0.65244698  -0.01985886  -0.01990890  1
  In  In5  1  0.17475690  0.83101523  0.33132423  1
  In  In6  1  0.81805556  0.00732761  0.49960488  1
  In  In7  1  0.49293370  0.18864376  0.31275422  1
  In  In8  1  0.29002389  0.68590248  0.64944291  1
  In  In9  1  -0.01130982  0.65431214  0.31721296  1
  In  In10  1  0.02964495  0.37499182  0.01306517  1
  In  In11  1  0.82755741  0.48917687  0.31960642  1
  In  In12  1  0.16027121  0.17191379  0.34035103  1
  In  In13  1  0.67315475  0.16571377  0.14773696  1
  In  In14  1  0.49259434  0.67399208  0.48811955  1
  In  In15  1  -0.00628289  0.49411382  0.82942472  1
  In  In16  1  0.84806159  -0.00271934  0.86684187  1
  In  In17  1  0.01349296  0.81430437  0.86696765  1
  In  In18  1  0.02158896  -0.01111136  0.67113179  1
  In  In19  1  0.49841734  0.17838879  0.01674779  1
  In  In20  1  0.48156495  0.83096454  -0.01344684  1
  In  In21  1  0.35305640  0.82412001  0.84595041  1
  In  In22  1  -0.01190072  0.33252490  0.32580792  1
  In  In23  1  0.85482515  0.16113059  0.01482443  1
  In  In24  1  0.31969013  -0.01496719  0.33544335  1
  In  In25  1  -0.01246612  0.63988460  0.01776315  1
  In  In26  1  0.14323096  0.33110397  0.49895217  1
  In  In27  1  0.33166835  0.33588996  0.30055476  1
  In  In28  1  0.33982770  0.49772032  0.45711086  1
  In  In29  1  0.82079852  0.17397468  0.34082467  1
  In  In30  1  0.68341510  0.83267754  0.80843729  1
  In  In31  1  0.64366124  0.48718702  0.17506640  1
  In  In32  1  0.68367837  0.51561551  0.85733987  1
  In  In33  1  0.46601306  0.00531010  0.17146928  1
  In  In34  1  0.18415054  0.18712166  0.01912174  1
  In  In35  1  0.32517713  0.35412971  0.66445602  1
  In  In36  1  0.47878305  0.49024942  0.03018491  1
  In  In37  1  0.32896620  -0.00801471  0.68645056  1
  In  In38  1  0.83824423  0.35534579  0.15995329  1
  In  In39  1  0.68389266  0.49513679  0.48623891  1
  In  In40  1  0.00007744  0.50765172  0.52438626  1
  In  In41  1  0.15160974  0.52128109  0.67075555  1
  In  In42  1  0.51391392  -0.01279998  0.50114765  1
  In  In43  1  0.67958978  0.16637526  0.50320718  1
  In  In44  1  0.47488266  0.33757224  0.47420757  1
  In  In45  1  0.02982752  -0.00169664  0.00420850  1
  In  In46  1  0.14972649  0.17352576  0.66521215  1
  In  In47  1  0.18447853  -0.00841213  0.14423957  1
  In  In48  1  0.86979836  0.79307694  0.68036299  1
  In  In49  1  0.17118851  0.53171669  0.31928230  1
  In  In50  1  0.83556419  0.82245300  0.31550192  1
  In  In51  1  0.32075742  0.14387924  0.84460595  1
  In  In52  1  0.85569400  -0.01980590  0.18391869  1
  In  In53  1  0.84290272  0.33459634  0.81353126  1
  In  In54  1  0.16567908  0.66275126  0.83808073  1
  In  In55  1  0.66649332  0.67858377  0.34399175  1
  In  In56  1  -0.00081537  0.84717541  0.50969725  1
  In  In57  1  0.18914282  0.36240704  0.86098097  1
  In  In58  1  0.66980713  0.00459430  0.64584329  1
  In  In59  1  0.67445296  0.34776991  0.01159905  1
  In  In60  1  0.33364552  0.15756925  0.50826110  1
  In  In61  1  0.48886964  0.49577675  0.66323852  1
  In  In62  1  0.66765855  0.83294858  0.48498254  1
  In  In63  1  0.34247158  0.67014668  0.31395980  1
  In  In64  1  0.00693406  0.82769265  0.17039377  1
  In  In65  1  0.32900913  0.64582980  0.03561856  1
  In  In66  1  0.66368353  0.18095617  0.81844089  1
  In  In67  1  0.50411252  0.32006960  0.81913001  1
  In  In68  1  0.50389517  0.83020734  0.65593699  1
  In  In69  1  0.00249271  0.03931044  0.33667018  1
  In  In70  1  0.46396001  -0.01409623  0.85377844  1
  In  In71  1  0.51648665  0.65343821  0.83634404  1
  Te  Te72  1  0.08651991  0.09966988  0.10082495  1
  Te  Te73  1  0.09122332  0.09060434  0.44029223  1
  Te  Te74  1  0.10098002  0.07353618  0.76229236  1
  Te  Te75  1  0.12337839  0.43316221  0.11179303  1
  Te  Te76  1  0.08005565  0.43773937  0.40953906  1
  Te  Te77  1  0.09254965  0.40906331  0.75083286  1
  Te  Te78  1  0.08154201  0.73547348  0.08348878  1
  Te  Te79  1  0.06198861  0.75728518  0.40165359  1
  Te  Te80  1  0.08004261  0.74767863  0.75548175  1
  Te  Te81  1  0.39791598  0.08012873  0.06200140  1
  Te  Te82  1  0.42406061  0.08369407  0.41099167  1
  Te  Te83  1  0.42615190  0.09114502  0.74829280  1
  Te  Te84  1  0.37929099  0.39361337  0.08121982  1
  Te  Te85  1  0.44199370  0.42997167  0.35328637  1
  Te  Te86  1  0.40663407  0.42674840  0.77008720  1
  Te  Te87  1  0.42848750  0.74257487  0.09596688  1
  Te  Te88  1  0.40846713  0.76177195  0.40870241  1
  Te  Te89  1  0.42346368  0.73230553  0.74028462  1
  Te  Te90  1  0.75231030  0.06088054  0.06980713  1
  Te  Te91  1  0.72588573  0.06754951  0.39704778  1
  Te  Te92  1  0.74729532  0.06223618  0.76786754  1
  Te  Te93  1  0.76065929  0.45460671  0.07359456  1
  Te  Te94  1  0.75272365  0.39578580  0.40263133  1
  Te  Te95  1  0.73638474  0.41805289  0.75366257  1
  Te  Te96  1  0.75841042  0.76676767  0.13767659  1
  Te  Te97  1  0.77605271  0.74233315  0.42841396  1
  Te  Te98  1  0.75233280  0.72690938  0.73576853  1
  Te  Te99  1  0.08222838  0.25328220  0.24632144  1
  Te  Te100  1  0.05569372  0.26152222  0.59224011  1
  Te  Te101  1  0.09050723  0.26679659  0.92447592  1
  Te  Te102  1  0.10711905  0.63089218  0.22676624  1
  Te  Te103  1  0.08706112  0.61522463  0.57799004  1
  Te  Te104  1  0.08840877  0.56561338  0.92302799  1
  Te  Te105  1  0.07941118  0.93472112  0.25449408  1
  Te  Te106  1  0.10963948  0.88487202  0.60620331  1
  Te  Te107  1  0.11425692  0.89696572  0.93825922  1
  Te  Te108  1  0.38605938  0.22575560  0.21607586  1
  Te  Te109  1  0.41463679  0.25737226  0.58944985  1
  Te  Te110  1  0.41031998  0.24745968  0.91283269  1
  Te  Te111  1  0.39359808  0.56963341  0.21900573  1
  Te  Te112  1  0.40144204  0.58591616  0.57594987  1
  Te  Te113  1  0.41778631  0.58334155  0.92477284  1
  Te  Te114  1  0.38369954  0.90218853  0.23367523  1
  Te  Te115  1  0.40674996  0.91373069  0.57792643  1
  Te  Te116  1  0.36779417  0.93979438  0.96733246  1
  Te  Te117  1  0.74776470  0.26209631  0.23833581  1
  Te  Te118  1  0.75981781  0.25577318  0.58542597  1
  Te  Te119  1  0.74538965  0.23783538  0.93403058  1
  Te  Te120  1  0.73509912  0.58304234  0.24640592  1
  Te  Te121  1  0.75294751  0.58491152  0.57739839  1
  Te  Te122  1  0.77684646  0.61418578  0.91564973  1
  Te  Te123  1  0.74020671  0.90575011  0.23662297  1
  Te  Te124  1  0.76368672  0.89840612  0.59259491  1
  Te  Te125  1  0.76174607  0.88882359  0.92789932  1
  Te  Te126  1  0.28378339  0.26923664  0.09111629  1
  Te  Te127  1  0.26440279  0.26593647  0.42450712  1
  Te  Te128  1  0.25176456  0.25707351  0.75530600  1
  Te  Te129  1  0.22730840  0.54099996  0.06633880  1
  Te  Te130  1  0.24691284  0.61121446  0.42338920  1
  Te  Te131  1  0.26317378  0.57933665  0.75489874  1
  Te  Te132  1  0.24995718  0.89383541  0.05858429  1
  Te  Te133  1  0.23219964  0.92002044  0.43467157  1
  Te  Te134  1  0.25410437  0.90398296  0.77463454  1
  Te  Te135  1  0.57561093  0.27725672  0.10301595  1
  Te  Te136  1  0.58482199  0.25116984  0.41449563  1
  Te  Te137  1  0.59351278  0.26167526  0.72001460  1
  Te  Te138  1  0.59039088  0.59328519  0.06373855  1
  Te  Te139  1  0.57718368  0.57603696  0.40967732  1
  Te  Te140  1  0.59632889  0.57121447  0.73991961  1
  Te  Te141  1  0.56362660  0.91857980  0.08199377  1
  Te  Te142  1  0.57172127  0.90121285  0.39826992  1
  Te  Te143  1  0.57287564  0.92853836  0.75327962  1
  Te  Te144  1  0.93464713  0.27050186  0.08069663  1
  Te  Te145  1  0.92150977  0.24336770  0.42043108  1
  Te  Te146  1  0.92637542  0.22845568  0.76198227  1
  Te  Te147  1  0.91506369  0.53905888  0.09702383  1
  Te  Te148  1  0.90887448  0.57203793  0.41638281  1
  Te  Te149  1  0.92815713  0.59012130  0.74171381  1
  Te  Te150  1  0.92530674  0.90994103  0.07156468  1
  Te  Te151  1  0.91147389  0.92814934  0.40453164  1
  Te  Te152  1  0.91824425  0.91572825  0.75808104  1
  Te  Te153  1  0.24542315  0.08432387  0.24865102  1
  Te  Te154  1  0.24107348  0.07465156  0.59135154  1
  Te  Te155  1  0.20642638  0.08461343  0.91295397  1
  Te  Te156  1  0.21084184  0.40612548  0.24632610  1
  Te  Te157  1  0.24225469  0.43401034  0.56560147  1
  Te  Te158  1  0.26959370  0.42390177  0.97045377  1
  Te  Te159  1  0.23664198  0.73950927  0.23257977  1
  Te  Te160  1  0.23246619  0.79400528  0.57194003  1
  Te  Te161  1  0.26306925  0.73523810  0.92981263  1
  Te  Te162  1  0.57952809  0.08814961  0.23720860  1
  Te  Te163  1  0.57022158  0.09886421  0.58633822  1
  Te  Te164  1  0.57187204  0.09057783  0.91080536  1
  Te  Te165  1  0.55433458  0.39767878  0.24345048  1
  Te  Te166  1  0.56867655  0.41865801  0.56231868  1
  Te  Te167  1  0.57471741  0.41911905  0.92038387  1
  Te  Te168  1  0.57884880  0.76154291  0.26001647  1
  Te  Te169  1  0.59602143  0.73833395  0.58102823  1
  Te  Te170  1  0.59360272  0.75915396  0.91139238  1
  Te  Te171  1  0.91168004  0.10883559  0.23559201  1
  Te  Te172  1  0.92358032  0.07174012  0.58432325  1
  Te  Te173  1  0.94991391  0.09623428  0.91673315  1
  Te  Te174  1  0.94584951  0.45163277  0.22391286  1
  Te  Te175  1  0.93169050  0.40451274  0.60225197  1
  Te  Te176  1  0.90730535  0.41243521  0.92357387  1
  Te  Te177  1  0.89382662  0.72255563  0.21476889  1
  Te  Te178  1  0.94678497  0.72499441  0.57543720  1
  Te  Te179  1  0.90904729  0.73551744  0.93415792  1
