# generated using pymatgen
data_In2Te3
_symmetry_space_group_name_H-M   'P 1'
_cell_length_a   18.91231992
_cell_length_b   18.90056842
_cell_length_c   18.90101805
_cell_angle_alpha   89.93320050
_cell_angle_beta   89.88925243
_cell_angle_gamma   89.96725312
_symmetry_Int_Tables_number   1
_chemical_formula_structural   In2Te3
_chemical_formula_sum   'In72 Te108'
_cell_volume   6756.21857532
_cell_formula_units_Z   36
loop_
 _symmetry_equiv_pos_site_id
 _symmetry_equiv_pos_as_xyz
  1  'x, y, z'
loop_
 _atom_site_type_symbol
 _atom_site_label
 _atom_site_symmetry_multiplicity
 _atom_site_fract_x
 _atom_site_fract_y
 _atom_site_fract_z
 _atom_site_occupancy
  In  In0  1  0.32212727  0.31232784  0.32860028  1
  In  In1  1  0.34203928  0.66866753  -0.02382451  1
  In  In2  1  0.48746381  0.66639966  0.15468618  1
  In  In3  1  -0.00463901  0.83871018  0.18899705  1
  In  In4  1  0.50808962  0.83889733  0.35494693  1
  In  In5  1  0.82791113  0.53201780  -0.01203444  1
  In  In6  1  0.14857275  -0.00405093  0.14984397  1
  In  In7  1  0.50409186  0.88345493  -0.03522219  1
  In  In8  1  -0.00283369  0.81695101  0.50631728  1
  In  In9  1  0.85872299  0.48704919  0.34263046  1
  In  In10  1  0.48103665  0.48912626  0.67658830  1
  In  In11  1  0.01859145  0.16136482  0.15223365  1
  In  In12  1  0.01408227  0.00111886  -0.01801759  1
  In  In13  1  0.46333769  0.31722735  0.50655013  1
  In  In14  1  0.47630209  0.00482685  0.82491529  1
  In  In15  1  0.84917641  0.01619178  0.51341346  1
  In  In16  1  0.68110646  0.18067302  0.51103440  1
  In  In17  1  0.48035026  0.32212791  0.15081415  1
  In  In18  1  0.64808015  0.16379035  0.17641464  1
  In  In19  1  0.00139206  0.65464601  -0.00931916  1
  In  In20  1  0.34536808  -0.01158610  0.35633472  1
  In  In21  1  0.17026334  0.64889480  0.18163472  1
  In  In22  1  0.67198521  0.67257010  0.36143970  1
  In  In23  1  0.32634012  0.00647792  0.67570791  1
  In  In24  1  0.65249060  0.85770446  0.82810757  1
  In  In25  1  0.50730783  0.01228889  0.16965402  1
  In  In26  1  0.17564044  0.82978613  0.00089394  1
  In  In27  1  0.14438449  0.31759489  0.52875415  1
  In  In28  1  0.64817988  0.66475872  0.66382037  1
  In  In29  1  0.01792878  -0.00427874  0.34557637  1
  In  In30  1  0.67008901  0.68372050  -0.02604010  1
  In  In31  1  0.69803305  0.82730144  0.17847496  1
  In  In32  1  0.68395758  0.30080064  -0.06983784  1
  In  In33  1  0.01311565  0.66890167  0.34132210  1
  In  In34  1  0.30591939  0.63553387  0.37800464  1
  In  In35  1  0.02021344  0.02890506  0.70112001  1
  In  In36  1  0.48553759  0.67216162  0.52443033  1
  In  In37  1  0.67940734  0.51627262  0.16662796  1
  In  In38  1  0.35140362  0.48370278  0.15779164  1
  In  In39  1  0.87062270  0.67043637  0.16384466  1
  In  In40  1  0.81832876  0.65632009  0.49270551  1
  In  In41  1  0.31603211  0.81538437  0.16045779  1
  In  In42  1  0.35157196  0.68978547  0.68686209  1
  In  In43  1  0.32565745  0.32159594  0.67884108  1
  In  In44  1  0.82718926  0.35016450  0.16697697  1
  In  In45  1  0.16537286  0.82409652  0.67919018  1
  In  In46  1  0.84911129  0.31906742  0.80012135  1
  In  In47  1  0.01771130  0.64657564  0.67026615  1
  In  In48  1  0.01149494  0.33557991  -0.00349005  1
  In  In49  1  0.50286706  0.19338509  -0.05055185  1
  In  In50  1  0.68294132  0.31972804  0.34996938  1
  In  In51  1  0.84111120  0.86445481  0.66667537  1
  In  In52  1  0.16078923  0.50941299  0.66571843  1
  In  In53  1  0.00329834  0.31771789  0.36891818  1
  In  In54  1  0.00971071  0.49987506  0.83326429  1
  In  In55  1  0.66414665  0.02330678  -0.00582444  1
  In  In56  1  0.48324750  0.00747702  0.51637045  1
  In  In57  1  0.33502887  0.15835740  0.14770657  1
  In  In58  1  0.16930702  0.14846583  0.35364704  1
  In  In59  1  0.83264037  0.00784320  0.82775413  1
  In  In60  1  0.85396584  0.67602455  0.82511780  1
  In  In61  1  0.31937167  0.48049796  0.81704725  1
  In  In62  1  0.32834801  0.02715946  -0.04921323  1
  In  In63  1  0.83684338  -0.00258686  0.17001905  1
  In  In64  1  0.66217480  0.00705461  0.68204765  1
  In  In65  1  0.15900330  0.32693209  0.80921568  1
  In  In66  1  0.63276191  0.50061561  0.51968180  1
  In  In67  1  0.49218805  0.46516311  -0.00661430  1
  In  In68  1  0.90196820  0.31069618  0.56677541  1
  In  In69  1  0.18264870  0.32081734  0.14424120  1
  In  In70  1  0.16826236  0.00822395  0.51156325  1
  In  In71  1  0.49065345  0.46220079  0.32456230  1
  Te  Te72  1  0.11128521  0.10185839  0.04757964  1
  Te  Te73  1  0.05861697  0.10086923  0.44573961  1
  Te  Te74  1  0.09203657  0.10269662  0.81002787  1
  Te  Te75  1  0.10514032  0.42073604  0.07022811  1
  Te  Te76  1  0.09564934  0.41669661  0.42817749  1
  Te  Te77  1  0.05439135  0.40650800  0.71458549  1
  Te  Te78  1  0.08516786  0.75162942  0.09909222  1
  Te  Te79  1  0.09927977  0.76012851  0.41808937  1
  Te  Te80  1  0.07050496  0.74682109  0.76201213  1
  Te  Te81  1  0.43889012  0.08600453  0.05401096  1
  Te  Te82  1  0.40264922  0.09831097  0.43095401  1
  Te  Te83  1  0.41878834  0.10948390  0.73677379  1
  Te  Te84  1  0.38098110  0.37904340  0.05085358  1
  Te  Te85  1  0.38616743  0.41948345  0.42261645  1
  Te  Te86  1  0.42946885  0.37442428  0.78017104  1
  Te  Te87  1  0.42791093  0.77142119  0.06249692  1
  Te  Te88  1  0.40637691  0.74830401  0.41967936  1
  Te  Te89  1  0.41994153  0.77934100  0.78003114  1
  Te  Te90  1  0.75481883  0.09762784  0.08819826  1
  Te  Te91  1  0.78097315  0.11283755  0.42323152  1
  Te  Te92  1  0.76258047  0.10227770  0.73557450  1
  Te  Te93  1  0.74390500  0.42404102  0.06373387  1
  Te  Te94  1  0.73847636  0.43849939  0.42201929  1
  Te  Te95  1  0.73856706  0.38034858  0.72131753  1
  Te  Te96  1  0.76932721  0.74230314  0.07404817  1
  Te  Te97  1  0.74135252  0.77155759  0.44205535  1
  Te  Te98  1  0.74809975  0.76773834  0.74890795  1
  Te  Te99  1  0.09830374  0.24340106  0.25575478  1
  Te  Te100  1  0.03687733  0.23179911  0.58791872  1
  Te  Te101  1  0.06061626  0.24475548  0.88922506  1
  Te  Te102  1  0.07261786  0.56728690  0.25339562  1
  Te  Te103  1  0.11764233  0.61249981  0.56271598  1
  Te  Te104  1  0.10225616  0.58028690  0.91422533  1
  Te  Te105  1  0.10921917  0.90466427  0.26423964  1
  Te  Te106  1  0.06434905  0.92547457  0.59130133  1
  Te  Te107  1  0.11136944  0.92134513  0.90347616  1
  Te  Te108  1  0.42323238  0.22633280  0.25312717  1
  Te  Te109  1  0.41622448  0.22293262  0.61199866  1
  Te  Te110  1  0.39556456  0.26599636  0.88522721  1
  Te  Te111  1  0.41182281  0.58472347  0.25838970  1
  Te  Te112  1  0.39256668  0.57265946  0.58660706  1
  Te  Te113  1  0.42017651  0.56363151  0.90116653  1
  Te  Te114  1  0.41826704  0.90512417  0.23848433  1
  Te  Te115  1  0.39491898  0.91124176  0.58574110  1
  Te  Te116  1  0.37533444  0.89194235  0.87901588  1
  Te  Te117  1  0.76111993  0.24029000  0.24879349  1
  Te  Te118  1  0.75187462  0.28792469  0.58784383  1
  Te  Te119  1  0.80730466  0.22149944  0.90845745  1
  Te  Te120  1  0.76976921  0.59309219  0.26093663  1
  Te  Te121  1  0.74491628  0.56927654  0.59478494  1
  Te  Te122  1  0.73782746  0.58631611  0.87939420  1
  Te  Te123  1  0.75080272  0.92896658  0.26763752  1
  Te  Te124  1  0.73912974  0.92946166  0.57628223  1
  Te  Te125  1  0.75120333  0.91926768  0.92511927  1
  Te  Te126  1  0.24804757  0.22628931  0.05047597  1
  Te  Te127  1  0.24961466  0.24099453  0.44150904  1
  Te  Te128  1  0.21796238  0.22215243  0.71716022  1
  Te  Te129  1  0.26744256  0.58559344  0.08241587  1
  Te  Te130  1  0.19118228  0.56310245  0.43224503  1
  Te  Te131  1  0.24752437  0.59752620  0.75360308  1
  Te  Te132  1  0.27063256  0.93565106  0.07407078  1
  Te  Te133  1  0.24178034  0.91346194  0.42660114  1
  Te  Te134  1  0.22325698  0.93563507  0.76100798  1
  Te  Te135  1  0.58934557  0.25457187  0.06681573  1
  Te  Te136  1  0.57120178  0.24973123  0.41782902  1
  Te  Te137  1  0.62688220  0.30028476  0.79243594  1
  Te  Te138  1  0.58290917  0.58509859  0.06750109  1
  Te  Te139  1  0.56236373  0.57670305  0.40665677  1
  Te  Te140  1  0.56609510  0.58135967  0.75221168  1
  Te  Te141  1  0.60026797  0.91164167  0.08736638  1
  Te  Te142  1  0.58009939  0.94841765  0.41773845  1
  Te  Te143  1  0.55282124  0.91136287  0.72758502  1
  Te  Te144  1  0.91874902  0.25443323  0.08711481  1
  Te  Te145  1  0.88650333  0.25118879  0.42746486  1
  Te  Te146  1  0.93696452  0.23338084  0.71267407  1
  Te  Te147  1  0.93735429  0.55711837  0.09039847  1
  Te  Te148  1  0.93416972  0.57451078  0.43909586  1
  Te  Te149  1  0.90602642  0.56209531  0.73744282  1
  Te  Te150  1  0.92695475  0.91585076  0.07891220  1
  Te  Te151  1  0.91510958  0.91374403  0.42128394  1
  Te  Te152  1  0.93959305  0.91611423  0.76831334  1
  Te  Te153  1  0.24845722  0.07510262  0.24392172  1
  Te  Te154  1  0.22909118  0.10216544  0.60810272  1
  Te  Te155  1  0.24264024  0.09306904  0.85113022  1
  Te  Te156  1  0.24918377  0.41746292  0.24804296  1
  Te  Te157  1  0.24898239  0.41349915  0.58712164  1
  Te  Te158  1  0.21550743  0.42370353  0.90572516  1
  Te  Te159  1  0.25257970  0.73804842  0.27297795  1
  Te  Te160  1  0.26657057  0.76386040  0.59086123  1
  Te  Te161  1  0.23390901  0.73523641  0.90404686  1
  Te  Te162  1  0.59050382  0.07045887  0.27561686  1
  Te  Te163  1  0.58291641  0.10171650  0.59477760  1
  Te  Te164  1  0.59349671  0.09221665  0.88056702  1
  Te  Te165  1  0.59277040  0.40374524  0.22842329  1
  Te  Te166  1  0.56392186  0.39029710  0.59578113  1
  Te  Te167  1  0.59719185  0.42253039  0.89754615  1
  Te  Te168  1  0.58364118  0.74075514  0.24628410  1
  Te  Te169  1  0.58991720  0.76237886  0.57082298  1
  Te  Te170  1  0.56178275  0.75382439  0.89645129  1
  Te  Te171  1  0.93470240  0.08252974  0.25129251  1
  Te  Te172  1  0.89780631  0.09360928  0.63321843  1
  Te  Te173  1  0.90908046  0.09061373  0.92631443  1
  Te  Te174  1  0.94213430  0.40155972  0.25101506  1
  Te  Te175  1  0.95072403  0.44433690  0.60949497  1
  Te  Te176  1  0.90233470  0.42164174  0.91128619  1
  Te  Te177  1  0.90158059  0.76202895  0.27870583  1
  Te  Te178  1  0.90337364  0.73948631  0.60049201  1
  Te  Te179  1  0.92208689  0.75806600  0.92466539  1
