# generated using pymatgen
data_In2Te3
_symmetry_space_group_name_H-M   'P 1'
_cell_length_a   19.02852570
_cell_length_b   19.00916947
_cell_length_c   19.02035624
_cell_angle_alpha   89.99887517
_cell_angle_beta   89.74381630
_cell_angle_gamma   90.07233608
_symmetry_Int_Tables_number   1
_chemical_formula_structural   In2Te3
_chemical_formula_sum   'In72 Te108'
_cell_volume   6879.90185540
_cell_formula_units_Z   36
loop_
 _symmetry_equiv_pos_site_id
 _symmetry_equiv_pos_as_xyz
  1  'x, y, z'
loop_
 _atom_site_type_symbol
 _atom_site_label
 _atom_site_symmetry_multiplicity
 _atom_site_fract_x
 _atom_site_fract_y
 _atom_site_fract_z
 _atom_site_occupancy
  In  In0  1  0.32232946  0.17225873  0.49039164  1
  In  In1  1  0.16814609  0.48648108  0.31376579  1
  In  In2  1  0.16686137  0.16541710  0.68234573  1
  In  In3  1  0.18676194  0.65854842  0.84274864  1
  In  In4  1  -0.00535246  0.66152088  -0.01868860  1
  In  In5  1  0.49856825  0.35374015  0.15486736  1
  In  In6  1  0.50708854  0.50941415  -0.00433336  1
  In  In7  1  0.66474007  -0.07821424  0.75379337  1
  In  In8  1  0.65945425  0.17704861  0.14048646  1
  In  In9  1  0.35345654  0.51002591  0.50579733  1
  In  In10  1  0.14050765  0.81903802  0.66319412  1
  In  In11  1  0.34660115  0.67207279  0.32858534  1
  In  In12  1  0.17508574  0.00437564  0.48035382  1
  In  In13  1  0.81438946  0.16328529  0.68382550  1
  In  In14  1  0.83331129  0.51049057  0.33139704  1
  In  In15  1  0.67842874  0.65743177  0.34041283  1
  In  In16  1  0.83313131  0.00349442  0.15746286  1
  In  In17  1  0.34111560  -0.02506933  0.68290036  1
  In  In18  1  0.35206280  0.64272463  0.67420664  1
  In  In19  1  0.34722002  0.82099587  0.15814521  1
  In  In20  1  0.17952973  0.15994143  0.32975678  1
  In  In21  1  0.64310157  0.04062455  0.30327268  1
  In  In22  1  0.68736120  0.70130055  0.68942309  1
  In  In23  1  0.48506859  0.83723905  0.34102997  1
  In  In24  1  0.86457860  0.18002535  0.32204694  1
  In  In25  1  0.80309314  -0.00124067  0.49815542  1
  In  In26  1  0.16940958  -0.00661829  0.81250972  1
  In  In27  1  -0.01871884  0.84699834  0.81597246  1
  In  In28  1  0.33645819  0.46810176  0.86908436  1
  In  In29  1  -0.01239541  0.83882664  0.50197331  1
  In  In30  1  0.63100509  0.83649198  0.51677351  1
  In  In31  1  0.84747729  0.83334613  0.32283895  1
  In  In32  1  0.65568761  0.47151698  0.49445909  1
  In  In33  1  0.18425250  0.19626411  -0.00723099  1
  In  In34  1  -0.00217350  0.00302983  0.01197557  1
  In  In35  1  0.66711309  0.36369586  -0.03000953  1
  In  In36  1  0.65898102  0.18717370  0.50343754  1
  In  In37  1  0.14217229  0.64984870  0.50087153  1
  In  In38  1  -0.00946416  0.51344424  0.81873489  1
  In  In39  1  0.65255316  0.32064341  0.67911286  1
  In  In40  1  0.03083605  0.75733325  0.28879658  1
  In  In41  1  0.64060863  0.13455569  0.86401569  1
  In  In42  1  0.50525407  0.16243030  0.67544543  1
  In  In43  1  0.83393942  0.68392667  0.51139760  1
  In  In44  1  0.49188409  0.50450613  0.32445084  1
  In  In45  1  0.01736378  0.50038841  0.16082848  1
  In  In46  1  0.81029123  0.85792250  0.00053800  1
  In  In47  1  0.00765922  0.15730965  0.52075339  1
  In  In48  1  0.31428267  0.83656179  0.50275280  1
  In  In49  1  0.15303486  0.49404582  0.65385491  1
  In  In50  1  0.34794536  0.01062396  0.01712819  1
  In  In51  1  0.35689029  0.17458675  0.84470154  1
  In  In52  1  0.34251604  0.34091585  0.68595041  1
  In  In53  1  0.51604080  0.18293802  0.31149605  1
  In  In54  1  0.51023549  0.66255159  0.81546304  1
  In  In55  1  0.00357871  0.35146948  0.34549775  1
  In  In56  1  0.19753588  -0.04508458  0.25162149  1
  In  In57  1  0.48328219  0.82131437  0.00703290  1
  In  In58  1  0.67287457  0.32210494  0.32788112  1
  In  In59  1  0.18523605  0.63508592  0.14884955  1
  In  In60  1  0.48631707  0.02702962  0.49742906  1
  In  In61  1  0.17827051  0.81915509  -0.00025630  1
  In  In62  1  0.84491096  0.33366144  0.82910691  1
  In  In63  1  0.20111115  0.33955948  0.16234297  1
  In  In64  1  0.01032479  0.14892447  0.85247198  1
  In  In65  1  0.66701997  0.66028056  -0.02307693  1
  In  In66  1  0.00425981  0.18128348  0.15459953  1
  In  In67  1  -0.02373182  0.50305930  0.51067508  1
  In  In68  1  0.64885207  0.83634336  0.15635094  1
  In  In69  1  0.83323591  0.50879405  0.67191212  1
  In  In70  1  0.84896799  0.15963124  -0.00491541  1
  In  In71  1  0.82286542  0.49907885  -0.00958518  1
  Te  Te72  1  0.09804534  0.09468802  0.07479519  1
  Te  Te73  1  0.07227896  0.08248206  0.40446688  1
  Te  Te74  1  0.06416188  0.06570623  0.73535914  1
  Te  Te75  1  0.10349272  0.41257371  0.07739334  1
  Te  Te76  1  0.09161470  0.43383156  0.43441807  1
  Te  Te77  1  0.07482060  0.41571729  0.74857078  1
  Te  Te78  1  0.08713555  0.73020461  0.08082267  1
  Te  Te79  1  0.09952851  0.77228811  0.42466901  1
  Te  Te80  1  0.07592458  0.73578646  0.77098401  1
  Te  Te81  1  0.44387408  0.12644252  -0.02473402  1
  Te  Te82  1  0.41104712  0.09883051  0.39175329  1
  Te  Te83  1  0.43021937  0.06405083  0.76309083  1
  Te  Te84  1  0.40409678  0.45033686  0.08907174  1
  Te  Te85  1  0.40631680  0.41714308  0.40536433  1
  Te  Te86  1  0.43683895  0.40915429  0.77685552  1
  Te  Te87  1  0.43570047  0.71658634  0.10189835  1
  Te  Te88  1  0.41830254  0.74428404  0.44053820  1
  Te  Te89  1  0.41722147  0.75816739  0.74374640  1
  Te  Te90  1  0.74178588  0.07511810  0.06297731  1
  Te  Te91  1  0.74616682  0.10942582  0.39980172  1
  Te  Te92  1  0.72138175  0.06866544  0.75455945  1
  Te  Te93  1  0.74837704  0.40996035  0.07977961  1
  Te  Te94  1  0.76580641  0.40348272  0.41551120  1
  Te  Te95  1  0.74417504  0.41479671  0.75427367  1
  Te  Te96  1  0.74428263  0.74890776  0.08083390  1
  Te  Te97  1  0.74585391  0.77387418  0.42616298  1
  Te  Te98  1  0.75783528  0.80115498  0.77682677  1
  Te  Te99  1  0.08685596  0.26758706  0.24954787  1
  Te  Te100  1  0.10483813  0.24751837  0.58014964  1
  Te  Te101  1  0.07987968  0.25976502  0.91490605  1
  Te  Te102  1  0.07800398  0.59593646  0.26240447  1
  Te  Te103  1  0.05108460  0.59672481  0.60694206  1
  Te  Te104  1  0.09432571  0.56741847  0.92016956  1
  Te  Te105  1  0.06524085  0.89447718  0.24901513  1
  Te  Te106  1  0.08455000  0.92916424  0.57847049  1
  Te  Te107  1  0.08502247  0.91416788  0.91683815  1
  Te  Te108  1  0.41976146  0.25396009  0.22915275  1
  Te  Te109  1  0.41252774  0.24415964  0.59056406  1
  Te  Te110  1  0.38776043  0.27348002  0.95089869  1
  Te  Te111  1  0.43377371  0.60439618  0.23096300  1
  Te  Te112  1  0.44987767  0.56176710  0.60300871  1
  Te  Te113  1  0.41320945  0.59336927  0.90930660  1
  Te  Te114  1  0.42409134  0.91732051  0.23707760  1
  Te  Te115  1  0.42608751  0.91110334  0.57514102  1
  Te  Te116  1  0.38438422  0.89940277  0.93064447  1
  Te  Te117  1  0.76152305  0.24461749  0.23253073  1
  Te  Te118  1  0.75863715  0.26308916  0.58522543  1
  Te  Te119  1  0.75155729  0.23917707  0.90663466  1
  Te  Te120  1  0.75105577  0.58538984  0.23737068  1
  Te  Te121  1  0.74511003  0.57677151  0.56757843  1
  Te  Te122  1  0.76558233  0.59103858  0.88895275  1
  Te  Te123  1  0.74016053  0.92852403  0.25301369  1
  Te  Te124  1  0.72757063  0.91671183  0.59634375  1
  Te  Te125  1  0.72648395  0.91592138  0.89593101  1
  Te  Te126  1  0.29407186  0.25662122  0.07441204  1
  Te  Te127  1  0.23984918  0.26242711  0.41326976  1
  Te  Te128  1  0.24909793  0.25612910  0.77032262  1
  Te  Te129  1  0.27175831  0.53710698  0.07861285  1
  Te  Te130  1  0.24849227  0.58702729  0.41276440  1
  Te  Te131  1  0.25792798  0.55299926  0.75488266  1
  Te  Te132  1  0.24383104  0.91972004  0.09130580  1
  Te  Te133  1  0.26453810  0.92370678  0.39103880  1
  Te  Te134  1  0.24790533  0.87886308  0.75383794  1
  Te  Te135  1  0.57929315  0.26998781  0.05592254  1
  Te  Te136  1  0.56500694  0.27209274  0.42365859  1
  Te  Te137  1  0.57100254  0.24186020  0.78462090  1
  Te  Te138  1  0.60159597  0.58198959  0.08061698  1
  Te  Te139  1  0.57860004  0.58119045  0.42326003  1
  Te  Te140  1  0.62345748  0.58842873  0.75842486  1
  Te  Te141  1  0.57602367  0.92506065  0.06450103  1
  Te  Te142  1  0.58454290  0.94518651  0.40715236  1
  Te  Te143  1  0.53098100  0.86095010  0.76838065  1
  Te  Te144  1  0.91497081  0.26158836  0.07404959  1
  Te  Te145  1  0.92579734  0.25717191  0.43435902  1
  Te  Te146  1  0.92805197  0.23386224  0.75257253  1
  Te  Te147  1  0.91620066  0.58011169  0.08087119  1
  Te  Te148  1  0.91927947  0.60538965  0.41510406  1
  Te  Te149  1  0.88413000  0.60546653  0.77193676  1
  Te  Te150  1  0.92441308  0.90041460  0.09530812  1
  Te  Te151  1  0.91193162  0.93584709  0.41343368  1
  Te  Te152  1  0.88520428  0.88715991  0.71483583  1
  Te  Te153  1  0.25555901  0.08649223  0.23023685  1
  Te  Te154  1  0.26066483  0.06865732  0.59373696  1
  Te  Te155  1  0.24487488  0.07457557  0.91212566  1
  Te  Te156  1  0.28281628  0.41911191  0.25492574  1
  Te  Te157  1  0.26118298  0.41538558  0.58298218  1
  Te  Te158  1  0.23202128  0.43504007  0.96840160  1
  Te  Te159  1  0.24659599  0.74007618  0.23959376  1
  Te  Te160  1  0.24575244  0.72674933  0.59059846  1
  Te  Te161  1  0.27240574  0.72424728  0.94159803  1
  Te  Te162  1  0.55098728  0.08547400  0.19474311  1
  Te  Te163  1  0.59573410  0.07906844  0.58765776  1
  Te  Te164  1  0.56188225  0.03550760  0.94088658  1
  Te  Te165  1  0.59772503  0.42304248  0.24741663  1
  Te  Te166  1  0.56943579  0.40536050  0.59304516  1
  Te  Te167  1  0.56935130  0.43194321  0.88472797  1
  Te  Te168  1  0.58522515  0.75303095  0.26516429  1
  Te  Te169  1  0.57509606  0.73277956  0.60088415  1
  Te  Te170  1  0.58264647  0.76362610  0.90515868  1
  Te  Te171  1  0.93616931  0.07522552  0.24062854  1
  Te  Te172  1  0.89568920  0.07663837  0.58813432  1
  Te  Te173  1  0.90482331  0.05123765  0.90394462  1
  Te  Te174  1  0.91742726  0.41843398  0.24302035  1
  Te  Te175  1  0.92117023  0.41023682  0.60790648  1
  Te  Te176  1  0.92901944  0.41606148  0.92061941  1
  Te  Te177  1  0.89710043  0.72586008  0.23954527  1
  Te  Te178  1  0.90894339  0.76880616  0.60799749  1
  Te  Te179  1  0.90714639  0.76766456  0.92160250  1
