# generated using pymatgen
data_In2Te3
_symmetry_space_group_name_H-M   'P 1'
_cell_length_a   18.93341825
_cell_length_b   18.94489841
_cell_length_c   18.91786864
_cell_angle_alpha   89.98039229
_cell_angle_beta   90.08686864
_cell_angle_gamma   90.00185314
_symmetry_Int_Tables_number   1
_chemical_formula_structural   In2Te3
_chemical_formula_sum   'In72 Te108'
_cell_volume   6785.67398346
_cell_formula_units_Z   36
loop_
 _symmetry_equiv_pos_site_id
 _symmetry_equiv_pos_as_xyz
  1  'x, y, z'
loop_
 _atom_site_type_symbol
 _atom_site_label
 _atom_site_symmetry_multiplicity
 _atom_site_fract_x
 _atom_site_fract_y
 _atom_site_fract_z
 _atom_site_occupancy
  In  In0  1  -0.01718166  0.15599911  0.52769610  1
  In  In1  1  0.16670545  0.68306915  0.80629537  1
  In  In2  1  0.00225155  -0.02884245  0.63193542  1
  In  In3  1  0.33179833  0.84075726  0.82146192  1
  In  In4  1  0.50207728  0.69201271  0.51457687  1
  In  In5  1  0.69152507  0.15584769  0.82689581  1
  In  In6  1  0.81570164  -0.00696498  0.18301048  1
  In  In7  1  -0.00433406  0.52563711  0.50887473  1
  In  In8  1  0.15291592  0.82929683  0.00695810  1
  In  In9  1  0.18661204  0.14821750  0.00680054  1
  In  In10  1  0.69826702  0.84607788  0.18612695  1
  In  In11  1  0.32547482  0.33598754  0.66212643  1
  In  In12  1  0.34309440  0.18721656  0.16891795  1
  In  In13  1  -0.01373349  0.32778261  0.68156149  1
  In  In14  1  0.49495965  0.16148171  -0.01120846  1
  In  In15  1  0.83906583  0.82856578  -0.01768743  1
  In  In16  1  0.83922724  0.83316007  0.36548719  1
  In  In17  1  -0.00624299  0.48818500  0.14790886  1
  In  In18  1  -0.02026237  0.51321079  0.86590477  1
  In  In19  1  0.00531101  0.32245712  0.32970865  1
  In  In20  1  0.18684996  0.14499681  0.63059671  1
  In  In21  1  0.16913417  0.81711953  0.34754920  1
  In  In22  1  0.16707413  0.01261653  0.82128493  1
  In  In23  1  0.50079962  0.18235726  0.32899459  1
  In  In24  1  0.66303122  -0.00881679  0.67074859  1
  In  In25  1  0.50641729  0.47925013  0.34629050  1
  In  In26  1  0.82323676  0.48146909  0.00330512  1
  In  In27  1  0.47156257  0.01900223  0.79795928  1
  In  In28  1  0.50656575  0.67203905  0.15943891  1
  In  In29  1  0.51874431  0.53350445  0.66194194  1
  In  In30  1  0.16532398  0.32241423  0.85602256  1
  In  In31  1  0.15444988  0.65352119  0.16474815  1
  In  In32  1  0.82948235  0.84686583  0.65757813  1
  In  In33  1  -0.04676944  0.19121722  0.13246072  1
  In  In34  1  0.48983111  0.52455400  0.00530116  1
  In  In35  1  -0.02359464  0.14702488  0.83317350  1
  In  In36  1  0.32451759  0.47040719  0.16009298  1
  In  In37  1  0.48745132  0.32637836  0.48787683  1
  In  In38  1  0.68917101  0.13317962  0.47317723  1
  In  In39  1  0.67744542  0.33114209  0.67104738  1
  In  In40  1  0.00367367  0.00306305  0.34154563  1
  In  In41  1  0.83214801  0.32890042  0.49002558  1
  In  In42  1  0.51998310  -0.02292678  0.48595273  1
  In  In43  1  -0.02621745  -0.00042251  0.00429200  1
  In  In44  1  0.31260250  -0.01392449  -0.00364181  1
  In  In45  1  0.00362212  0.68533163  0.35394078  1
  In  In46  1  -0.00733567  0.70064378  0.68291421  1
  In  In47  1  0.64554669  0.32784142  -0.00014065  1
  In  In48  1  0.15967584  0.49613750  -0.00099937  1
  In  In49  1  0.34747974  0.64850886  0.34644977  1
  In  In50  1  0.68447037  -0.01325093  -0.00334905  1
  In  In51  1  0.15286151  0.16968189  0.34363682  1
  In  In52  1  0.16605932  -0.01347709  0.18728796  1
  In  In53  1  0.69774581  0.68523830  0.33401862  1
  In  In54  1  0.35616338  0.50956368  0.83961887  1
  In  In55  1  0.18179447  0.33061266  0.47790041  1
  In  In56  1  0.33527740  0.67906427  0.66637257  1
  In  In57  1  0.85775192  0.48539152  0.34055983  1
  In  In58  1  0.14084911  0.48904294  0.65538783  1
  In  In59  1  0.67448933  0.52749493  0.50152832  1
  In  In60  1  0.67720202  0.51433713  0.79945874  1
  In  In61  1  0.62535585  0.49268058  0.17831746  1
  In  In62  1  0.84219658  0.67342712  0.83057395  1
  In  In63  1  0.50217170  -0.00800095  0.19368508  1
  In  In64  1  0.82267165  0.66465966  0.15945215  1
  In  In65  1  0.19036369  0.51453339  0.33120722  1
  In  In66  1  0.52641932  0.80674838  -0.02493872  1
  In  In67  1  0.69961500  0.18907456  0.19289639  1
  In  In68  1  0.36113749  -0.01140981  0.33240807  1
  In  In69  1  0.66388206  0.68259615  0.67003194  1
  In  In70  1  0.51095757  0.32239840  0.83630127  1
  In  In71  1  0.32566133  0.84370278  0.49935855  1
  Te  Te72  1  0.08591204  0.06702886  0.08572750  1
  Te  Te73  1  0.08578982  0.07793878  0.44557765  1
  Te  Te74  1  0.07796076  0.08972180  0.72227800  1
  Te  Te75  1  0.09365992  0.40027998  0.08806489  1
  Te  Te76  1  0.07205842  0.42592357  0.42005175  1
  Te  Te77  1  0.07694329  0.42012761  0.77651850  1
  Te  Te78  1  0.06826857  0.74840655  0.09492794  1
  Te  Te79  1  0.06374718  0.78338552  0.44887825  1
  Te  Te80  1  0.09328753  0.79578353  0.74048606  1
  Te  Te81  1  0.41041977  0.06986776  0.08756856  1
  Te  Te82  1  0.42928628  0.08839194  0.42206678  1
  Te  Te83  1  0.40235043  0.11632449  0.71179467  1
  Te  Te84  1  0.43309111  0.41289134  0.08031636  1
  Te  Te85  1  0.39678589  0.42285311  0.42409467  1
  Te  Te86  1  0.43415695  0.42379791  0.73786706  1
  Te  Te87  1  0.42633888  0.75527869  0.06897066  1
  Te  Te88  1  0.42191934  0.76463246  0.40835152  1
  Te  Te89  1  0.42741438  0.76437087  0.74008854  1
  Te  Te90  1  0.75194733  0.08898621  0.08530526  1
  Te  Te91  1  0.79235325  0.05602239  0.40317851  1
  Te  Te92  1  0.77025338  0.08021795  0.72570016  1
  Te  Te93  1  0.72688892  0.41171764  0.09714680  1
  Te  Te94  1  0.73984493  0.42203673  0.41242494  1
  Te  Te95  1  0.76531576  0.40292343  0.76486126  1
  Te  Te96  1  0.73924978  0.75475306  0.07068339  1
  Te  Te97  1  0.73853852  0.76507856  0.45087072  1
  Te  Te98  1  0.74087095  0.76786284  0.76968551  1
  Te  Te99  1  0.06956551  0.22914589  0.22990983  1
  Te  Te100  1  0.07930433  0.26903375  0.57676583  1
  Te  Te101  1  0.07742245  0.21970644  0.92345857  1
  Te  Te102  1  0.05626288  0.57226903  0.26065546  1
  Te  Te103  1  0.08658475  0.61327713  0.59144424  1
  Te  Te104  1  0.09084881  0.60202400  0.91444530  1
  Te  Te105  1  0.06914824  0.89480110  0.25754878  1
  Te  Te106  1  0.10221464  0.86924407  0.59080525  1
  Te  Te107  1  0.08290512  0.93219163  0.91943555  1
  Te  Te108  1  0.41925124  0.28022167  0.25390240  1
  Te  Te109  1  0.41823703  0.24528545  0.59166752  1
  Te  Te110  1  0.40833032  0.24666368  0.90731733  1
  Te  Te111  1  0.42440985  0.56986134  0.24032175  1
  Te  Te112  1  0.41043244  0.58518442  0.56900438  1
  Te  Te113  1  0.40501803  0.61608665  0.92708577  1
  Te  Te114  1  0.40900149  0.88822519  0.23746746  1
  Te  Te115  1  0.42922818  0.91003248  0.58146277  1
  Te  Te116  1  0.42587602  0.91953442  0.92109932  1
  Te  Te117  1  0.80310856  0.26481590  0.26100403  1
  Te  Te118  1  0.74822079  0.23661141  0.57545532  1
  Te  Te119  1  0.75206657  0.25063742  0.92837970  1
  Te  Te120  1  0.75091314  0.56431056  0.25099867  1
  Te  Te121  1  0.75047579  0.57739314  0.61565881  1
  Te  Te122  1  0.75275783  0.58197964  0.91390960  1
  Te  Te123  1  0.72480893  0.93957417  0.30892704  1
  Te  Te124  1  0.72387765  0.90189125  0.56690667  1
  Te  Te125  1  0.77048023  0.92684799  0.89359382  1
  Te  Te126  1  0.24991094  0.25728665  0.08003872  1
  Te  Te127  1  0.26161450  0.21764479  0.43128149  1
  Te  Te128  1  0.22648348  0.24846362  0.73659424  1
  Te  Te129  1  0.25722507  0.58180908  0.08010926  1
  Te  Te130  1  0.23080748  0.61319620  0.42913218  1
  Te  Te131  1  0.24818994  0.56674774  0.74506245  1
  Te  Te132  1  0.25313521  0.89574014  0.10284837  1
  Te  Te133  1  0.24141400  0.93538599  0.41072010  1
  Te  Te134  1  0.25822951  0.93482176  0.73164967  1
  Te  Te135  1  0.58319200  0.22609704  0.09299439  1
  Te  Te136  1  0.60066302  0.24974945  0.42155494  1
  Te  Te137  1  0.58840048  0.23165913  0.74394771  1
  Te  Te138  1  0.60568098  0.59780762  0.07109438  1
  Te  Te139  1  0.58089086  0.60234265  0.40863837  1
  Te  Te140  1  0.56098030  0.62129518  0.77957360  1
  Te  Te141  1  0.59222454  0.91362309  0.09181276  1
  Te  Te142  1  0.57999699  0.92252613  0.36467358  1
  Te  Te143  1  0.56554146  0.91721812  0.75374016  1
  Te  Te144  1  0.87787355  0.26454340  0.03097179  1
  Te  Te145  1  0.91581408  0.22900614  0.41145160  1
  Te  Te146  1  0.89451880  0.24893990  0.76303248  1
  Te  Te147  1  0.91621883  0.58983667  0.06717582  1
  Te  Te148  1  0.89471857  0.60349951  0.42633322  1
  Te  Te149  1  0.92079928  0.57635601  0.74349786  1
  Te  Te150  1  0.90629654  0.90410835  0.09996221  1
  Te  Te151  1  0.90665267  0.94434780  0.43942280  1
  Te  Te152  1  0.93304447  0.90673279  0.74454298  1
  Te  Te153  1  0.25792691  0.08673580  0.25492424  1
  Te  Te154  1  0.29921030  0.04674226  0.61874177  1
  Te  Te155  1  0.27409096  0.09203672  0.89490828  1
  Te  Te156  1  0.23055274  0.40156117  0.25051930  1
  Te  Te157  1  0.25094145  0.43124937  0.56877358  1
  Te  Te158  1  0.26576760  0.41621042  0.92027407  1
  Te  Te159  1  0.25088994  0.72854660  0.25529711  1
  Te  Te160  1  0.23850183  0.76227838  0.58932704  1
  Te  Te161  1  0.24820478  0.75437594  0.91347790  1
  Te  Te162  1  0.59689606  0.09205926  0.25660258  1
  Te  Te163  1  0.58768620  0.08292618  0.57296829  1
  Te  Te164  1  0.58672544  0.07244544  0.90748527  1
  Te  Te165  1  0.57169468  0.38056494  0.25747226  1
  Te  Te166  1  0.58730742  0.42256074  0.58119807  1
  Te  Te167  1  0.58671222  0.43514393  0.90420440  1
  Te  Te168  1  0.59251234  0.75760609  0.25316318  1
  Te  Te169  1  0.58533703  0.78305385  0.59453830  1
  Te  Te170  1  0.60804559  0.74026449  0.87645209  1
  Te  Te171  1  0.92409514  0.08406916  0.23747849  1
  Te  Te172  1  0.89246889  0.07173663  0.61043252  1
  Te  Te173  1  0.87952438  0.06400935  0.91103006  1
  Te  Te174  1  0.89968012  0.38651775  0.23133034  1
  Te  Te175  1  0.91281890  0.41939441  0.58201960  1
  Te  Te176  1  0.93282300  0.39667184  0.94584137  1
  Te  Te177  1  0.90358182  0.75023425  0.25579739  1
  Te  Te178  1  0.89452544  0.73907064  0.58156357  1
  Te  Te179  1  0.93865799  0.74436908  0.91521134  1
