# generated using pymatgen
data_In2Te3
_symmetry_space_group_name_H-M   'P 1'
_cell_length_a   19.00070120
_cell_length_b   19.00644506
_cell_length_c   19.02918112
_cell_angle_alpha   89.81267521
_cell_angle_beta   89.79639257
_cell_angle_gamma   89.73814581
_symmetry_Int_Tables_number   1
_chemical_formula_structural   In2Te3
_chemical_formula_sum   'In72 Te108'
_cell_volume   6871.96670888
_cell_formula_units_Z   36
loop_
 _symmetry_equiv_pos_site_id
 _symmetry_equiv_pos_as_xyz
  1  'x, y, z'
loop_
 _atom_site_type_symbol
 _atom_site_label
 _atom_site_symmetry_multiplicity
 _atom_site_fract_x
 _atom_site_fract_y
 _atom_site_fract_z
 _atom_site_occupancy
  In  In0  1  0.51452708  -0.01060296  0.18180417  1
  In  In1  1  0.67304350  -0.00061868  0.67565651  1
  In  In2  1  0.15510616  0.17313666  0.68561627  1
  In  In3  1  0.23636634  0.80195769  0.14355670  1
  In  In4  1  -0.00820206  0.52378073  0.81916160  1
  In  In5  1  0.30848564  0.33775828  0.00667561  1
  In  In6  1  0.33535256  0.16662962  0.82849683  1
  In  In7  1  0.03227333  -0.01392396  0.31588502  1
  In  In8  1  0.66175896  0.49686606  0.16181547  1
  In  In9  1  0.32689403  0.66942752  0.66338384  1
  In  In10  1  0.45846664  0.66387161  0.17740248  1
  In  In11  1  0.64822577  0.32794013  -0.03228139  1
  In  In12  1  0.64169801  0.33820071  0.32010087  1
  In  In13  1  0.84103190  0.51965280  0.34980720  1
  In  In14  1  0.64506143  0.50768686  0.51552998  1
  In  In15  1  0.72157788  0.70757263  0.67105734  1
  In  In16  1  0.00095354  0.34628477  0.65276628  1
  In  In17  1  0.83763656  0.32974817  0.83421763  1
  In  In18  1  0.51577857  0.17076726  0.67090093  1
  In  In19  1  0.01035095  0.37812931  0.35314206  1
  In  In20  1  0.14416937  0.17243642  0.34734382  1
  In  In21  1  0.68006264  0.66734864  -0.00924114  1
  In  In22  1  0.15473032  -0.01366002  0.84253032  1
  In  In23  1  0.29807220  0.52127764  0.17666388  1
  In  In24  1  0.03676505  0.80152157  0.48945261  1
  In  In25  1  0.50326327  0.50874021  0.68165345  1
  In  In26  1  0.16709265  0.34369327  0.16163172  1
  In  In27  1  0.31870779  0.14744826  0.46507301  1
  In  In28  1  0.33317699  -0.00702144  0.64427023  1
  In  In29  1  0.68413096  0.13821243  0.52248641  1
  In  In30  1  0.85990585  0.12310830  -0.00385930  1
  In  In31  1  0.16544532  0.66595613  0.83872501  1
  In  In32  1  0.67483815  0.15514123  0.81335719  1
  In  In33  1  0.83630165  0.50684583  0.68225320  1
  In  In34  1  0.48199884  0.17082743  0.02314459  1
  In  In35  1  0.66634135  0.16976346  0.13415441  1
  In  In36  1  0.03027298  0.14283314  0.15964140  1
  In  In37  1  0.68916995  0.84273152  0.15867275  1
  In  In38  1  0.81490786  0.32288231  0.50516451  1
  In  In39  1  0.14430136  0.50003276  0.00794168  1
  In  In40  1  0.35593487  0.14912831  0.19720045  1
  In  In41  1  0.65749768  0.67582250  0.33585905  1
  In  In42  1  0.86250288  -0.01447522  0.47395151  1
  In  In43  1  0.51670878  -0.01820988  0.84870752  1
  In  In44  1  0.49498245  0.65361276  0.83842409  1
  In  In45  1  0.01199437  0.14638738  0.84433854  1
  In  In46  1  0.50227651  0.68720089  0.50283485  1
  In  In47  1  0.69658028  -0.00271325  -0.02058593  1
  In  In48  1  0.86442082  0.18884830  0.32862126  1
  In  In49  1  0.28467182  0.83390178  0.50879584  1
  In  In50  1  0.48304963  0.33600546  0.49564052  1
  In  In51  1  0.02290805  0.53050431  0.19258451  1
  In  In52  1  0.35140846  0.33972799  0.67174305  1
  In  In53  1  0.32649409  0.81145019  0.83011465  1
  In  In54  1  0.66987639  0.51558222  0.84744586  1
  In  In55  1  0.50843022  0.14218764  0.36116278  1
  In  In56  1  0.49115030  0.82500624  0.34475144  1
  In  In57  1  0.29458656  0.52266112  0.48593849  1
  In  In58  1  0.86160863  0.82931899  -0.00007190  1
  In  In59  1  0.16582979  0.52251732  0.66683516  1
  In  In60  1  0.84026861  0.33151621  0.13770678  1
  In  In61  1  0.87740325  0.66851407  0.49552521  1
  In  In62  1  0.29401066  -0.04577440  0.31493906  1
  In  In63  1  0.32433634  0.32808888  0.32478066  1
  In  In64  1  0.16571167  0.15760366  -0.00853327  1
  In  In65  1  0.49230354  0.80587153  0.00732300  1
  In  In66  1  0.84832998  0.13350121  0.65736915  1
  In  In67  1  0.85611810  0.52486887  0.00393786  1
  In  In68  1  0.46082331  0.51495559  0.01860756  1
  In  In69  1  0.00664711  0.82828737  0.81275519  1
  In  In70  1  0.89541013  0.84809493  0.22014601  1
  In  In71  1  0.67650006  0.83595389  0.47644169  1
  Te  Te72  1  0.09278213  0.04935903  0.06359232  1
  Te  Te73  1  0.05816734  0.08257705  0.42591866  1
  Te  Te74  1  0.07271686  0.05694253  0.73665634  1
  Te  Te75  1  0.05260515  0.41730342  0.09608515  1
  Te  Te76  1  0.07529995  0.46842719  0.44810603  1
  Te  Te77  1  0.08342623  0.42458984  0.75116415  1
  Te  Te78  1  0.02936172  0.79332417  0.15928614  1
  Te  Te79  1  0.12958231  0.74893343  0.38361726  1
  Te  Te80  1  0.09559691  0.73873349  0.72971293  1
  Te  Te81  1  0.41032869  0.05649996  0.09060039  1
  Te  Te82  1  0.40006671  0.04410470  0.39287541  1
  Te  Te83  1  0.42737844  0.07095959  0.75324101  1
  Te  Te84  1  0.38804948  0.41708596  0.10761470  1
  Te  Te85  1  0.39707331  0.42705652  0.41450564  1
  Te  Te86  1  0.41990459  0.42536696  0.76687228  1
  Te  Te87  1  0.37607303  0.75246862  0.08779890  1
  Te  Te88  1  0.38936419  0.74944077  0.42624922  1
  Te  Te89  1  0.43081885  0.74876010  0.73808810  1
  Te  Te90  1  0.76478823  0.06083032  0.09778225  1
  Te  Te91  1  0.77307962  0.09643623  0.40906675  1
  Te  Te92  1  0.77918877  0.05703911  0.76886217  1
  Te  Te93  1  0.74411220  0.42200346  0.05305089  1
  Te  Te94  1  0.73413943  0.42173720  0.41512828  1
  Te  Te95  1  0.74020660  0.41525044  0.75597977  1
  Te  Te96  1  0.76876977  0.73661780  0.08820984  1
  Te  Te97  1  0.77169110  0.74089950  0.40795659  1
  Te  Te98  1  0.78369971  0.80870566  0.75774502  1
  Te  Te99  1  0.06601029  0.26465709  0.25248166  1
  Te  Te100  1  0.09388326  0.25830235  0.58300860  1
  Te  Te101  1  0.08620172  0.25004721  0.91297158  1
  Te  Te102  1  0.13594985  0.61869662  0.22734052  1
  Te  Te103  1  0.07684241  0.57638307  0.56037352  1
  Te  Te104  1  0.06018450  0.60111460  0.92955516  1
  Te  Te105  1  0.12229263  0.90188197  0.22557030  1
  Te  Te106  1  0.12723112  0.89480911  0.56186375  1
  Te  Te107  1  0.09434023  0.87879202  0.92450849  1
  Te  Te108  1  0.44213481  0.24669847  0.27151901  1
  Te  Te109  1  0.40657486  0.22727727  0.57010572  1
  Te  Te110  1  0.40916725  0.25814320  0.92380345  1
  Te  Te111  1  0.37393781  0.59919329  0.27673858  1
  Te  Te112  1  0.41508546  0.57475750  0.57510968  1
  Te  Te113  1  0.39130511  0.60712583  0.92944979  1
  Te  Te114  1  0.40998651  0.89437168  0.23584165  1
  Te  Te115  1  0.40619046  0.89412914  0.56687906  1
  Te  Te116  1  0.41177885  0.90222106  0.92252810  1
  Te  Te117  1  0.74755564  0.25661438  0.23816644  1
  Te  Te118  1  0.74781210  0.24011961  0.61277119  1
  Te  Te119  1  0.76127572  0.23249620  0.92667654  1
  Te  Te120  1  0.74551542  0.58530705  0.25035134  1
  Te  Te121  1  0.75692117  0.59320455  0.56825944  1
  Te  Te122  1  0.78148407  0.60397408  0.89715200  1
  Te  Te123  1  0.76470273  0.89741808  0.26873050  1
  Te  Te124  1  0.75465534  0.93015983  0.56412526  1
  Te  Te125  1  0.75743153  0.88535421  0.90659742  1
  Te  Te126  1  0.25371978  0.23012238  0.10806039  1
  Te  Te127  1  0.23153172  0.26646030  0.42742146  1
  Te  Te128  1  0.24842392  0.26743957  0.75906104  1
  Te  Te129  1  0.21690844  0.60521461  0.08421614  1
  Te  Te130  1  0.19160497  0.62858670  0.46466046  1
  Te  Te131  1  0.26646592  0.57694983  0.76558834  1
  Te  Te132  1  0.21167981  0.94057338  0.10401140  1
  Te  Te133  1  0.20830726  0.94411215  0.43742562  1
  Te  Te134  1  0.25383509  0.91763405  0.74918509  1
  Te  Te135  1  0.56981452  0.27709331  0.08738517  1
  Te  Te136  1  0.59866493  0.24262974  0.43873755  1
  Te  Te137  1  0.57715832  0.25499375  0.77168033  1
  Te  Te138  1  0.57408106  0.60098416  0.07924477  1
  Te  Te139  1  0.56479258  0.58257930  0.41153789  1
  Te  Te140  1  0.61066910  0.60190616  0.73686566  1
  Te  Te141  1  0.58876220  0.91661219  0.06544257  1
  Te  Te142  1  0.58548149  0.92072523  0.39910832  1
  Te  Te143  1  0.59157473  0.90463635  0.75105015  1
  Te  Te144  1  0.93227141  0.23002155  0.07505810  1
  Te  Te145  1  0.93670697  0.26934026  0.43232482  1
  Te  Te146  1  0.92228669  0.24152379  0.74484248  1
  Te  Te147  1  0.92135106  0.60298782  0.11116246  1
  Te  Te148  1  0.96146532  0.59161601  0.39842323  1
  Te  Te149  1  0.92523102  0.61279826  0.72420253  1
  Te  Te150  1  0.92851621  0.92026224  0.09356942  1
  Te  Te151  1  0.94738328  0.88738506  0.39503665  1
  Te  Te152  1  0.90964845  0.88270726  0.71284886  1
  Te  Te153  1  0.23577122  0.08614949  0.26095153  1
  Te  Te154  1  0.23937956  0.09288286  0.58219960  1
  Te  Te155  1  0.26187358  0.06880344  0.91582979  1
  Te  Te156  1  0.22124049  0.42713871  0.27294221  1
  Te  Te157  1  0.25134044  0.42103893  0.58965797  1
  Te  Te158  1  0.23544958  0.42777926  0.91989142  1
  Te  Te159  1  0.23867146  0.72850403  0.27230257  1
  Te  Te160  1  0.21316763  0.75684980  0.61976295  1
  Te  Te161  1  0.22164161  0.77097810  0.92772747  1
  Te  Te162  1  0.60080295  0.09192431  0.24825395  1
  Te  Te163  1  0.56730512  0.06265662  0.57919533  1
  Te  Te164  1  0.58238162  0.09663552  0.93204740  1
  Te  Te165  1  0.56262815  0.44002022  0.25261687  1
  Te  Te166  1  0.57567165  0.40069883  0.59558850  1
  Te  Te167  1  0.56125561  0.44226435  0.92279951  1
  Te  Te168  1  0.57759006  0.75302260  0.23141210  1
  Te  Te169  1  0.60294123  0.75964843  0.58534283  1
  Te  Te170  1  0.58985679  0.75220560  0.90436760  1
  Te  Te171  1  0.92593548  0.07852456  0.24785308  1
  Te  Te172  1  0.94180765  0.07164789  0.56345841  1
  Te  Te173  1  0.93543742  0.03845174  0.90592304  1
  Te  Te174  1  0.89661462  0.41479628  0.25183000  1
  Te  Te175  1  0.90254983  0.42805802  0.57125964  1
  Te  Te176  1  0.92362419  0.42079417  0.91538219  1
  Te  Te177  1  0.93846943  0.70660127  0.24401778  1
  Te  Te178  1  0.92175704  0.77870506  0.58392493  1
  Te  Te179  1  0.94429382  0.74029083  0.91601972  1
