# generated using pymatgen
data_In2Te3
_symmetry_space_group_name_H-M   'P 1'
_cell_length_a   18.96571418
_cell_length_b   18.94761133
_cell_length_c   18.96938798
_cell_angle_alpha   89.85104001
_cell_angle_beta   89.87110183
_cell_angle_gamma   89.98532427
_symmetry_Int_Tables_number   1
_chemical_formula_structural   In2Te3
_chemical_formula_sum   'In72 Te108'
_cell_volume   6816.70355457
_cell_formula_units_Z   36
loop_
 _symmetry_equiv_pos_site_id
 _symmetry_equiv_pos_as_xyz
  1  'x, y, z'
loop_
 _atom_site_type_symbol
 _atom_site_label
 _atom_site_symmetry_multiplicity
 _atom_site_fract_x
 _atom_site_fract_y
 _atom_site_fract_z
 _atom_site_occupancy
  In  In0  1  0.51906384  0.51543246  0.01274572  1
  In  In1  1  0.65670882  0.33092611  0.34219615  1
  In  In2  1  0.31095987  0.35186672  0.34335921  1
  In  In3  1  0.51055890  0.13564873  0.00166265  1
  In  In4  1  0.15701704  -0.00347344  0.82462847  1
  In  In5  1  0.49738872  -0.02877204  0.49362413  1
  In  In6  1  0.78894184  0.68192357  0.47449686  1
  In  In7  1  0.01179030  0.49593310  0.50966039  1
  In  In8  1  0.83502348  0.17798936  0.33246584  1
  In  In9  1  0.35254875  -0.00192472  0.64761869  1
  In  In10  1  0.50074842  0.50689510  0.33168262  1
  In  In11  1  0.00661505  0.35471349  -0.00652396  1
  In  In12  1  0.18581787  0.54703688  0.01086789  1
  In  In13  1  0.15439784  0.51532604  0.34657663  1
  In  In14  1  0.49252832  -0.03952582  0.80293885  1
  In  In15  1  0.67027815  0.17184296  0.84974061  1
  In  In16  1  0.68703121  0.83530475  0.83243017  1
  In  In17  1  0.51376519  -0.02258738  0.18147419  1
  In  In18  1  0.48669354  0.32122393  0.81539998  1
  In  In19  1  0.16552926  0.80258941  0.68757584  1
  In  In20  1  0.82564298  0.66205887  0.17265582  1
  In  In21  1  0.51039490  0.33418665  0.50518149  1
  In  In22  1  0.66413521  -0.01659623  0.02118623  1
  In  In23  1  0.49613052  0.34893712  0.16420074  1
  In  In24  1  -0.00447840  0.00516160  0.66790683  1
  In  In25  1  0.00518697  0.80006446  0.84455901  1
  In  In26  1  0.83431437  0.18831356  0.65518712  1
  In  In27  1  0.34636310  0.65173750  0.34749536  1
  In  In28  1  0.50051657  0.15586915  0.64786139  1
  In  In29  1  0.37176877  -0.01028148  0.32594409  1
  In  In30  1  0.31207650  0.65767278  0.65949719  1
  In  In31  1  0.71785031  0.35215709  0.65508047  1
  In  In32  1  0.29195253  0.56447801  0.85232201  1
  In  In33  1  0.01595058  -0.00960475  -0.01722402  1
  In  In34  1  0.49252733  0.52406508  0.68645284  1
  In  In35  1  0.30580802  -0.02181150  0.00154315  1
  In  In36  1  0.50763376  0.69643761  0.51689280  1
  In  In37  1  0.34247063  0.76299368  0.14818348  1
  In  In38  1  0.65656418  -0.03109193  0.68721339  1
  In  In39  1  0.83906817  0.02598891  0.85442708  1
  In  In40  1  0.82148693  -0.00521102  0.52121282  1
  In  In41  1  0.67754494  0.50139285  0.50642434  1
  In  In42  1  -0.02172091  0.34736687  0.32689481  1
  In  In43  1  0.83907301  0.82914410  0.67008173  1
  In  In44  1  0.34918577  0.17664393  0.18202071  1
  In  In45  1  0.84556330  0.00659660  0.12840362  1
  In  In46  1  0.31738561  0.79485714  0.84250951  1
  In  In47  1  0.17123220  0.00930611  0.48400321  1
  In  In48  1  0.15098481  0.35857166  0.80284175  1
  In  In49  1  0.69119461  0.34531727  0.00251259  1
  In  In50  1  -0.00156720  0.66935203  0.33110007  1
  In  In51  1  0.84665223  0.50365545  0.00922222  1
  In  In52  1  -0.01216001  0.00727527  0.34201572  1
  In  In53  1  0.17166515  0.35731412  0.17782701  1
  In  In54  1  0.67428238  0.16090790  0.18381297  1
  In  In55  1  0.19287351  -0.04205935  0.17977606  1
  In  In56  1  0.65308428  0.67885211  0.00705615  1
  In  In57  1  -0.00171262  0.83278011  0.49275818  1
  In  In58  1  0.00566326  0.18438950  0.12223530  1
  In  In59  1  0.02346347  0.79383645  0.15881188  1
  In  In60  1  0.82917905  0.50309658  0.32167612  1
  In  In61  1  0.65659092  -0.00809562  0.33475134  1
  In  In62  1  0.34997170  0.35100956  -0.01644057  1
  In  In63  1  0.16453062  0.17100077  0.00387613  1
  In  In64  1  0.66079116  0.82822577  0.17971186  1
  In  In65  1  0.15691065  0.17883963  0.67571002  1
  In  In66  1  0.17850444  0.18533509  0.34543115  1
  In  In67  1  -0.00840026  0.34684539  0.66196116  1
  In  In68  1  0.17966521  0.81203891  0.34875899  1
  In  In69  1  0.86452695  0.63018499  0.83218422  1
  In  In70  1  0.30557703  0.37142253  0.65357171  1
  In  In71  1  0.65582412  0.49699319  0.82226449  1
  Te  Te72  1  0.10777679  0.05861053  0.09276847  1
  Te  Te73  1  0.07132876  0.10414776  0.42184309  1
  Te  Te74  1  0.06216169  0.09866085  0.76581723  1
  Te  Te75  1  0.09583975  0.44128034  0.07976860  1
  Te  Te76  1  0.08717587  0.39951202  0.41725686  1
  Te  Te77  1  0.03860318  0.45399964  0.76993185  1
  Te  Te78  1  0.07205451  0.69319932  0.06338057  1
  Te  Te79  1  0.09171589  0.72616077  0.43739310  1
  Te  Te80  1  0.04579967  0.72279358  0.72266080  1
  Te  Te81  1  0.40450095  0.06457745  0.08879134  1
  Te  Te82  1  0.42174510  0.07996042  0.42718179  1
  Te  Te83  1  0.41850865  0.08445252  0.75429050  1
  Te  Te84  1  0.40428933  0.44293022  0.08892275  1
  Te  Te85  1  0.41715284  0.42389993  0.42678554  1
  Te  Te86  1  0.39730284  0.43112404  0.76141667  1
  Te  Te87  1  0.40158720  0.70610838  0.02184917  1
  Te  Te88  1  0.41729394  0.75932380  0.41824592  1
  Te  Te89  1  0.40668114  0.72128937  0.75441062  1
  Te  Te90  1  0.74714684  0.10338611  0.06418767  1
  Te  Te91  1  0.75180902  0.07889938  0.41393904  1
  Te  Te92  1  0.75077714  0.07661675  0.74147185  1
  Te  Te93  1  0.73910147  0.44631333  0.09347915  1
  Te  Te94  1  0.76061063  0.40954553  0.42011026  1
  Te  Te95  1  0.77347291  0.43623850  0.75857953  1
  Te  Te96  1  0.75583727  0.76319417  0.08229185  1
  Te  Te97  1  0.71019577  0.78411135  0.39955970  1
  Te  Te98  1  0.76797375  0.73112604  0.75971966  1
  Te  Te99  1  0.08411704  0.24790375  0.23718788  1
  Te  Te100  1  0.09492848  0.27422656  0.58533428  1
  Te  Te101  1  0.09134950  0.26086448  0.90851579  1
  Te  Te102  1  0.05833594  0.56555256  0.24506502  1
  Te  Te103  1  0.11892489  0.55284430  0.59584074  1
  Te  Te104  1  0.08227470  0.61404385  0.92673449  1
  Te  Te105  1  0.07861730  0.90627047  0.26942028  1
  Te  Te106  1  0.08777414  0.92041014  0.58329616  1
  Te  Te107  1  0.10624716  0.88688311  0.91715969  1
  Te  Te108  1  0.42423819  0.26929295  0.27188296  1
  Te  Te109  1  0.41045482  0.26692065  0.59814470  1
  Te  Te110  1  0.42014517  0.23224870  0.92121069  1
  Te  Te111  1  0.44032058  0.60613433  0.24021457  1
  Te  Te112  1  0.41587135  0.58497384  0.57338332  1
  Te  Te113  1  0.42515778  0.58962181  0.91840054  1
  Te  Te114  1  0.41388368  0.87785392  0.23401696  1
  Te  Te115  1  0.40850109  0.88505029  0.57508410  1
  Te  Te116  1  0.40136063  0.90215553  0.91190233  1
  Te  Te117  1  0.75838122  0.27148968  0.24071028  1
  Te  Te118  1  0.73162377  0.24056226  0.56297225  1
  Te  Te119  1  0.76527996  0.26679420  0.90486759  1
  Te  Te120  1  0.73018845  0.60238339  0.27109140  1
  Te  Te121  1  0.74061554  0.60396326  0.58946914  1
  Te  Te122  1  0.73642005  0.57898339  0.92522072  1
  Te  Te123  1  0.75318969  0.93819102  0.22973407  1
  Te  Te124  1  0.72930738  0.88575414  0.57812056  1
  Te  Te125  1  0.76772569  0.91662913  0.93200688  1
  Te  Te126  1  0.26230451  0.26112042  0.08771202  1
  Te  Te127  1  0.26144392  0.25529831  0.44150959  1
  Te  Te128  1  0.25742706  0.26124996  0.75378700  1
  Te  Te129  1  0.28293446  0.63053381  0.08816089  1
  Te  Te130  1  0.25598940  0.57163239  0.43925514  1
  Te  Te131  1  0.21239478  0.56390915  0.72440676  1
  Te  Te132  1  0.24285601  0.86231745  0.07651769  1
  Te  Te133  1  0.26611458  0.91698885  0.41271818  1
  Te  Te134  1  0.25683710  0.91468495  0.74520634  1
  Te  Te135  1  0.57703211  0.24083167  0.08902178  1
  Te  Te136  1  0.59494070  0.23561194  0.43593525  1
  Te  Te137  1  0.59213186  0.24149691  0.74073531  1
  Te  Te138  1  0.56664605  0.61496910  0.11017716  1
  Te  Te139  1  0.58008575  0.58704140  0.43168734  1
  Te  Te140  1  0.57814038  0.60889731  0.76839152  1
  Te  Te141  1  0.56084083  0.88612880  0.07133832  1
  Te  Te142  1  0.57783487  0.88392209  0.39992948  1
  Te  Te143  1  0.55731324  0.85470573  0.71363175  1
  Te  Te144  1  0.91018654  0.28329837  0.08006262  1
  Te  Te145  1  0.91567983  0.25786555  0.42299329  1
  Te  Te146  1  0.92002959  0.25320772  0.75154102  1
  Te  Te147  1  0.92818691  0.60821141  0.07771044  1
  Te  Te148  1  0.90887005  0.58567685  0.42328705  1
  Te  Te149  1  0.95900024  0.58363010  0.72833633  1
  Te  Te150  1  0.94201700  0.90020244  0.08052458  1
  Te  Te151  1  0.89518195  0.91253991  0.41517467  1
  Te  Te152  1  0.92041901  0.91788855  0.76652956  1
  Te  Te153  1  0.24889054  0.08147496  0.25584200  1
  Te  Te154  1  0.24664140  0.08836348  0.58784616  1
  Te  Te155  1  0.24768759  0.08487724  0.91023121  1
  Te  Te156  1  0.26084222  0.45619874  0.24599144  1
  Te  Te157  1  0.23385337  0.45885015  0.55669459  1
  Te  Te158  1  0.23543791  0.42570626  0.91856049  1
  Te  Te159  1  0.23688072  0.71518804  0.25276540  1
  Te  Te160  1  0.24495771  0.75874633  0.57447875  1
  Te  Te161  1  0.21323009  0.69215452  0.88557841  1
  Te  Te162  1  0.56459710  0.09278800  0.26324465  1
  Te  Te163  1  0.59163621  0.05601286  0.58094775  1
  Te  Te164  1  0.58424675  0.04693628  0.89865994  1
  Te  Te165  1  0.59693387  0.42908502  0.24273981  1
  Te  Te166  1  0.58382188  0.42190533  0.60949305  1
  Te  Te167  1  0.56866058  0.39855309  0.91837650  1
  Te  Te168  1  0.62466976  0.73142072  0.28514470  1
  Te  Te169  1  0.60957974  0.76089098  0.60112375  1
  Te  Te170  1  0.58389823  0.76951412  0.91223019  1
  Te  Te171  1  0.92328748  0.09064416  0.23047025  1
  Te  Te172  1  0.92331454  0.09500118  0.57164247  1
  Te  Te173  1  0.93062053  0.10132962  0.93958440  1
  Te  Te174  1  0.93283230  0.44834456  0.23024337  1
  Te  Te175  1  0.90177330  0.42881798  0.57865787  1
  Te  Te176  1  0.93098814  0.44422899  0.90150888  1
  Te  Te177  1  0.90870594  0.76388341  0.25422541  1
  Te  Te178  1  0.90320439  0.74052852  0.56577269  1
  Te  Te179  1  0.90249551  0.73560594  0.92579237  1
