# generated using pymatgen
data_In2Te3
_symmetry_space_group_name_H-M   'P 1'
_cell_length_a   18.88029466
_cell_length_b   18.88750347
_cell_length_c   18.88729574
_cell_angle_alpha   89.97766677
_cell_angle_beta   89.95670704
_cell_angle_gamma   90.04677927
_symmetry_Int_Tables_number   1
_chemical_formula_structural   In2Te3
_chemical_formula_sum   'In72 Te108'
_cell_volume   6735.23578469
_cell_formula_units_Z   36
loop_
 _symmetry_equiv_pos_site_id
 _symmetry_equiv_pos_as_xyz
  1  'x, y, z'
loop_
 _atom_site_type_symbol
 _atom_site_label
 _atom_site_symmetry_multiplicity
 _atom_site_fract_x
 _atom_site_fract_y
 _atom_site_fract_z
 _atom_site_occupancy
  In  In0  1  0.66349923  0.52247704  0.18143052  1
  In  In1  1  0.83079881  0.50417945  0.31793236  1
  In  In2  1  0.00475349  0.53084778  0.14390363  1
  In  In3  1  0.36063091  0.36830670  0.68567664  1
  In  In4  1  0.66893005  0.67670689  -0.01895144  1
  In  In5  1  0.18645411  0.32928049  0.84882932  1
  In  In6  1  0.50078855  0.33345480  0.50795055  1
  In  In7  1  0.00761410  0.66928406  0.66410895  1
  In  In8  1  0.50591134  0.57793539  0.34979584  1
  In  In9  1  0.32765942  0.81780007  0.84004958  1
  In  In10  1  0.34093218  0.37438271  0.00223540  1
  In  In11  1  0.82920576  0.15747691  0.64165333  1
  In  In12  1  0.50262850  0.51319795  -0.01183632  1
  In  In13  1  0.16162145  0.33412124  0.48651517  1
  In  In14  1  0.82204930  0.00508634  0.17499079  1
  In  In15  1  0.66752728  0.14274734  0.50070668  1
  In  In16  1  0.51095539  0.66835412  0.84028967  1
  In  In17  1  0.35172353  0.81678561  0.15431351  1
  In  In18  1  0.33295311  0.17211267  0.49985667  1
  In  In19  1  0.84036022  0.81110063  0.33738881  1
  In  In20  1  0.52433886  0.51873282  0.68921272  1
  In  In21  1  0.15992052  0.15692747  0.67840460  1
  In  In22  1  0.82705801  0.66295521  0.15933743  1
  In  In23  1  0.35557566  0.14252665  0.84104602  1
  In  In24  1  0.48268279  0.15523985  0.32954594  1
  In  In25  1  0.81482230  0.34680813  0.13383936  1
  In  In26  1  0.18643356  0.66177421  0.82819042  1
  In  In27  1  0.79225206  0.66969220  0.50643625  1
  In  In28  1  0.14662301  -0.03628401  0.82558734  1
  In  In29  1  0.14942196  0.17353135  0.00743071  1
  In  In30  1  0.82890942  0.36481501  0.51184888  1
  In  In31  1  0.66751636  0.17734459  0.83520070  1
  In  In32  1  0.84352109  0.81567172  -0.01949734  1
  In  In33  1  -0.00026502  -0.01715277  -0.02221559  1
  In  In34  1  0.36399905  0.79378100  0.49908313  1
  In  In35  1  0.17020362  0.36449771  0.18384224  1
  In  In36  1  0.00301345  0.66738438  0.33500671  1
  In  In37  1  -0.02227973  0.34684207  0.65942317  1
  In  In38  1  -0.02170474  0.51063719  0.80726901  1
  In  In39  1  0.51624425  -0.01441088  0.22266054  1
  In  In40  1  0.16778631  0.51960811  0.67604065  1
  In  In41  1  0.00272908  0.32794543  0.33132370  1
  In  In42  1  0.18459096  0.48245744  0.35527825  1
  In  In43  1  0.32895570  0.00373969  -0.01903068  1
  In  In44  1  0.19240113  0.82384613  0.65238479  1
  In  In45  1  0.81636442  0.14905109  0.35694741  1
  In  In46  1  0.50642562  0.17690940  0.01038987  1
  In  In47  1  0.65158289  -0.01805620  0.65573535  1
  In  In48  1  0.66434896  0.51827130  0.82319970  1
  In  In49  1  0.33417516  0.16915252  0.16270891  1
  In  In50  1  0.82062647  0.34447594  0.85093910  1
  In  In51  1  0.34551790  0.51988150  0.50389609  1
  In  In52  1  0.64262984  0.16524125  0.15222396  1
  In  In53  1  0.66410338  0.34168284  0.31109531  1
  In  In54  1  0.15301535  0.00591672  0.49269573  1
  In  In55  1  0.80344410  0.82046236  0.68521511  1
  In  In56  1  0.16771155  0.50564557  0.00218373  1
  In  In57  1  0.00738036  0.15845544  0.83276716  1
  In  In58  1  0.62914503  0.81715597  0.20228612  1
  In  In59  1  0.16810440  -0.03229340  0.16579183  1
  In  In60  1  -0.01423802  0.13471536  0.50410517  1
  In  In61  1  0.33229811  0.32755079  0.31176990  1
  In  In62  1  0.14798909  0.69580816  0.14328327  1
  In  In63  1  0.15698487  0.83434712  0.33157266  1
  In  In64  1  0.52112168  0.80756335  0.64121109  1
  In  In65  1  0.00121301  0.83025744  0.48533105  1
  In  In66  1  0.65231343  0.33636078  0.70654152  1
  In  In67  1  0.50311875  -0.02364503  0.82246080  1
  In  In68  1  -0.02357139  0.18233602  0.16665128  1
  In  In69  1  0.33160261  0.00417338  0.34730915  1
  In  In70  1  0.66775079  -0.01684114  0.01927258  1
  In  In71  1  0.84795730  -0.01510599  0.82149366  1
  Te  Te72  1  0.07281936  0.07208659  0.08888666  1
  Te  Te73  1  0.08228500  0.09616336  0.40165616  1
  Te  Te74  1  0.06218298  0.05481286  0.73651574  1
  Te  Te75  1  0.07432928  0.41121041  0.07746922  1
  Te  Te76  1  0.05971973  0.43068818  0.42846027  1
  Te  Te77  1  0.09182733  0.40021438  0.74597894  1
  Te  Te78  1  0.05648651  0.75920433  0.04920943  1
  Te  Te79  1  0.10227347  0.73149493  0.43057955  1
  Te  Te80  1  0.09557839  0.75675088  0.75108011  1
  Te  Te81  1  0.41864646  0.06913360  0.08674881  1
  Te  Te82  1  0.43187051  0.06852275  0.44286435  1
  Te  Te83  1  0.41934465  0.06214862  0.73739705  1
  Te  Te84  1  0.43345616  0.43668332  0.09536119  1
  Te  Te85  1  0.40901995  0.41021594  0.41571656  1
  Te  Te86  1  0.45257304  0.42849969  0.78420279  1
  Te  Te87  1  0.44773451  0.71782124  0.10042380  1
  Te  Te88  1  0.44324755  0.70999314  0.40460336  1
  Te  Te89  1  0.42128383  0.74618541  0.74497115  1
  Te  Te90  1  0.75304015  0.09710123  0.07501960  1
  Te  Te91  1  0.75466857  0.04234852  0.43791581  1
  Te  Te92  1  0.74379853  0.07777928  0.74844274  1
  Te  Te93  1  0.74005757  0.45628545  0.07358004  1
  Te  Te94  1  0.73484528  0.43259202  0.41331002  1
  Te  Te95  1  0.76466476  0.43113073  0.74081246  1
  Te  Te96  1  0.73829193  0.76760318  0.09108967  1
  Te  Te97  1  0.72077692  0.77179269  0.42247519  1
  Te  Te98  1  0.76871649  0.71562890  0.78815308  1
  Te  Te99  1  0.09489179  0.24614037  0.24244715  1
  Te  Te100  1  0.07884147  0.24610171  0.58197492  1
  Te  Te101  1  0.06706532  0.26751980  0.92065560  1
  Te  Te102  1  0.09529065  0.57320371  0.25798688  1
  Te  Te103  1  0.08152577  0.57863894  0.57453977  1
  Te  Te104  1  0.08105131  0.57806777  0.90027701  1
  Te  Te105  1  0.06203331  0.90723810  0.24669420  1
  Te  Te106  1  0.08337212  0.90909577  0.58669056  1
  Te  Te107  1  0.09575253  0.87629411  0.93486800  1
  Te  Te108  1  0.43867955  0.25909897  0.22723609  1
  Te  Te109  1  0.41534495  0.25047735  0.60122628  1
  Te  Te110  1  0.40764086  0.25528318  0.92491803  1
  Te  Te111  1  0.43603090  0.62269376  0.21778060  1
  Te  Te112  1  0.44411269  0.59442870  0.58781036  1
  Te  Te113  1  0.40599025  0.61245052  0.93071686  1
  Te  Te114  1  0.40974450  0.88702655  0.28351283  1
  Te  Te115  1  0.43475412  0.90181765  0.56843122  1
  Te  Te116  1  0.42484134  0.89785608  0.92766523  1
  Te  Te117  1  0.76984297  0.25181310  0.24820084  1
  Te  Te118  1  0.73690116  0.26255155  0.58222592  1
  Te  Te119  1  0.73463049  0.26054639  0.93508270  1
  Te  Te120  1  0.73781886  0.61656694  0.27516669  1
  Te  Te121  1  0.70843688  0.58653791  0.59576850  1
  Te  Te122  1  0.76746319  0.59909399  0.89867286  1
  Te  Te123  1  0.74561896  0.90293375  0.25537391  1
  Te  Te124  1  0.74711580  0.90337588  0.57562020  1
  Te  Te125  1  0.74674082  0.91133229  0.91110444  1
  Te  Te126  1  0.25043188  0.26418684  0.07740024  1
  Te  Te127  1  0.24266043  0.24004877  0.39807529  1
  Te  Te128  1  0.26358429  0.24773606  0.74623026  1
  Te  Te129  1  0.24433689  0.60197624  0.08321163  1
  Te  Te130  1  0.26362833  0.59434662  0.40684862  1
  Te  Te131  1  0.27909531  0.59206370  0.73538437  1
  Te  Te132  1  0.25545101  0.89735682  0.06484901  1
  Te  Te133  1  0.25255101  0.90346163  0.43218168  1
  Te  Te134  1  0.26715859  0.92164067  0.74513277  1
  Te  Te135  1  0.58440053  0.27907561  0.08378344  1
  Te  Te136  1  0.58463803  0.25097761  0.40909121  1
  Te  Te137  1  0.55866383  0.23548583  0.75553606  1
  Te  Te138  1  0.58045188  0.60905590  0.08549947  1
  Te  Te139  1  0.57838999  0.59719453  0.48823809  1
  Te  Te140  1  0.63096494  0.63484956  0.72158361  1
  Te  Te141  1  0.56310675  0.90799436  0.09805792  1
  Te  Te142  1  0.55527669  0.90826466  0.34196689  1
  Te  Te143  1  0.59946823  0.87999070  0.75540351  1
  Te  Te144  1  0.91104679  0.26070530  0.06296835  1
  Te  Te145  1  0.90678808  0.25838337  0.42932774  1
  Te  Te146  1  0.90759924  0.24038296  0.74596354  1
  Te  Te147  1  0.90153555  0.58739864  0.05265840  1
  Te  Te148  1  0.89965341  0.59487349  0.41869676  1
  Te  Te149  1  0.89238821  0.61858316  0.74787319  1
  Te  Te150  1  0.90329506  0.91969999  0.07757663  1
  Te  Te151  1  0.92046554  0.91732638  0.39996235  1
  Te  Te152  1  0.91950333  0.87210908  0.76256157  1
  Te  Te153  1  0.24581920  0.07610320  0.24418808  1
  Te  Te154  1  0.25119252  0.07664257  0.58652017  1
  Te  Te155  1  0.21860555  0.08551026  0.90274511  1
  Te  Te156  1  0.28259458  0.44929268  0.23561304  1
  Te  Te157  1  0.25525307  0.41018266  0.57889310  1
  Te  Te158  1  0.26413779  0.44994471  0.89498670  1
  Te  Te159  1  0.24917547  0.74799266  0.24648068  1
  Te  Te160  1  0.26723119  0.71916926  0.58215018  1
  Te  Te161  1  0.27444462  0.71665010  0.93745918  1
  Te  Te162  1  0.61318170  0.09118471  0.27762072  1
  Te  Te163  1  0.56921779  0.08701585  0.59313922  1
  Te  Te164  1  0.57866577  0.07204597  0.92452563  1
  Te  Te165  1  0.56726570  0.45162885  0.27538008  1
  Te  Te166  1  0.59217038  0.41750216  0.59202922  1
  Te  Te167  1  0.58478154  0.42209773  0.90254694  1
  Te  Te168  1  0.55308028  0.71389076  0.28350850  1
  Te  Te169  1  0.59856935  0.74515021  0.52691012  1
  Te  Te170  1  0.58170273  0.77452709  0.91422780  1
  Te  Te171  1  0.91833719  0.08163695  0.26488247  1
  Te  Te172  1  0.90970301  0.04589590  0.59156291  1
  Te  Te173  1  0.90445719  0.08819418  0.91936379  1
  Te  Te174  1  0.92706883  0.42011328  0.23549595  1
  Te  Te175  1  0.91041646  0.45783037  0.59138799  1
  Te  Te176  1  0.92420246  0.42633097  0.91416468  1
  Te  Te177  1  0.93220714  0.74843973  0.22874113  1
  Te  Te178  1  0.90697821  0.75001781  0.57538699  1
  Te  Te179  1  0.94373957  0.71020975  0.95155616  1
