# generated using pymatgen
data_In2Te3
_symmetry_space_group_name_H-M   'P 1'
_cell_length_a   18.74976778
_cell_length_b   18.75790776
_cell_length_c   18.76352042
_cell_angle_alpha   89.98656077
_cell_angle_beta   90.07937508
_cell_angle_gamma   90.04578771
_symmetry_Int_Tables_number   1
_chemical_formula_structural   In2Te3
_chemical_formula_sum   'In72 Te108'
_cell_volume   6599.24187392
_cell_formula_units_Z   36
loop_
 _symmetry_equiv_pos_site_id
 _symmetry_equiv_pos_as_xyz
  1  'x, y, z'
loop_
 _atom_site_type_symbol
 _atom_site_label
 _atom_site_symmetry_multiplicity
 _atom_site_fract_x
 _atom_site_fract_y
 _atom_site_fract_z
 _atom_site_occupancy
  In  In0  1  0.51894025  0.01092666  0.83047484  1
  In  In1  1  -0.00276139  0.49103572  0.16492867  1
  In  In2  1  0.32819021  0.65453611  0.63810786  1
  In  In3  1  0.51824122  0.83091073  -0.01865931  1
  In  In4  1  0.50965208  0.16264750  0.32257137  1
  In  In5  1  0.85641811  0.49882224  0.33059399  1
  In  In6  1  0.85209347  0.83805684  0.35133519  1
  In  In7  1  0.67279512  -0.00220790  0.36022099  1
  In  In8  1  0.50015615  0.32233397  0.83721181  1
  In  In9  1  0.30957416  0.17762198  0.47059533  1
  In  In10  1  0.31880707  0.47039235  0.17836847  1
  In  In11  1  0.17947624  0.65935570  0.48106605  1
  In  In12  1  0.14985157  0.65827067  0.17807687  1
  In  In13  1  0.50216033  0.67906903  0.52001842  1
  In  In14  1  0.32203300  -0.00427877  0.65445019  1
  In  In15  1  0.32442556  0.84453613  0.81149614  1
  In  In16  1  0.52318824  0.16478440  0.64983600  1
  In  In17  1  0.50457466  0.35987808  0.50084683  1
  In  In18  1  0.68570304  0.49691120  0.82566060  1
  In  In19  1  -0.04341834  0.16435319  0.80047829  1
  In  In20  1  0.15328000  0.33644923  0.84674789  1
  In  In21  1  0.29132346  0.83229161  0.15094022  1
  In  In22  1  0.49797406  0.85211735  0.36567913  1
  In  In23  1  0.16342765  -0.02715442  0.16139802  1
  In  In24  1  0.48008627  0.48850881  0.33661752  1
  In  In25  1  0.48492554  0.64434846  0.18520099  1
  In  In26  1  0.69144504  0.15955449  0.51973586  1
  In  In27  1  0.82587705  -0.00908794  0.50926493  1
  In  In28  1  0.13730130  0.82627905  0.34771005  1
  In  In29  1  0.83889192  0.01873745  0.16281441  1
  In  In30  1  0.85030444  0.49655926  0.66819011  1
  In  In31  1  0.50439641  0.49339855  -0.01399030  1
  In  In32  1  0.29839945  0.32676793  0.33811750  1
  In  In33  1  0.15349718  0.48714955  0.69428863  1
  In  In34  1  -0.00294286  0.18657140  0.51778192  1
  In  In35  1  0.32836828  0.17702437  0.14242829  1
  In  In36  1  -0.02445962  0.68030936  0.65327310  1
  In  In37  1  0.54476127  0.01493226  0.50399336  1
  In  In38  1  0.33277671  -0.00360635  0.31879228  1
  In  In39  1  0.32372629  0.17635616  0.83852772  1
  In  In40  1  0.67705694  0.65265619  -0.00407741  1
  In  In41  1  0.32818106  0.47658341  0.83385387  1
  In  In42  1  0.17594484  0.17278954  -0.00499358  1
  In  In43  1  0.67506450  0.32105033  0.32247342  1
  In  In44  1  -0.01034043  0.34186049  0.00347502  1
  In  In45  1  0.32695305  0.67081725  0.01864734  1
  In  In46  1  0.85061604  0.65560033  0.15812398  1
  In  In47  1  0.52935665  0.66175941  0.81576172  1
  In  In48  1  0.69868298  0.17121032  0.84045492  1
  In  In49  1  0.51928089  0.32257596  0.14730977  1
  In  In50  1  0.01554010  0.49768872  0.47788980  1
  In  In51  1  0.00680987  0.82263825  0.17156942  1
  In  In52  1  0.83395906  0.32782326  0.50074206  1
  In  In53  1  0.15149752  0.19140687  0.33491550  1
  In  In54  1  0.81433038  0.85079233  -0.03552985  1
  In  In55  1  -0.02456555  0.83397441  0.83161801  1
  In  In56  1  0.64416315  0.84235321  0.16138240  1
  In  In57  1  -0.00856794  0.49224656  0.83302797  1
  In  In58  1  0.14586310  -0.00148005  0.52036833  1
  In  In59  1  0.68982178  0.67547262  0.35045525  1
  In  In60  1  0.71306692  0.46452079  0.13283188  1
  In  In61  1  -0.01051412  0.17938394  0.16824480  1
  In  In62  1  0.69082570  0.18254690  0.14781116  1
  In  In63  1  0.66534319  0.50999408  0.53082841  1
  In  In64  1  0.13205651  0.66207560  0.84213526  1
  In  In65  1  0.33232173  0.34351779  0.66742719  1
  In  In66  1  -0.00884684  -0.00625548  0.67312823  1
  In  In67  1  0.15871361  0.84818273  0.01774443  1
  In  In68  1  -0.01842300  0.01079706  -0.02107623  1
  In  In69  1  0.33693022  0.82623394  0.51483992  1
  In  In70  1  0.54213633  0.84225636  0.68513321  1
  In  In71  1  0.49763819  0.00484028  0.13416776  1
  Te  Te72  1  0.07822064  0.07570760  0.08385739  1
  Te  Te73  1  0.07690314  0.08911327  0.41915768  1
  Te  Te74  1  0.07471081  0.08591494  0.75515937  1
  Te  Te75  1  0.09446838  0.40352679  0.08865329  1
  Te  Te76  1  0.10156642  0.41394334  0.39090380  1
  Te  Te77  1  0.05206599  0.38408529  0.74139410  1
  Te  Te78  1  0.07142168  0.73213099  0.06764954  1
  Te  Te79  1  0.06214023  0.73802836  0.43807428  1
  Te  Te80  1  0.07614673  0.76003122  0.74196002  1
  Te  Te81  1  0.42315511  0.10542389  0.05499837  1
  Te  Te82  1  0.42179227  0.07227278  0.42068938  1
  Te  Te83  1  0.41770073  0.08951702  0.73587062  1
  Te  Te84  1  0.41361690  0.40795999  0.07530909  1
  Te  Te85  1  0.38061250  0.42102586  0.43178496  1
  Te  Te86  1  0.43854873  0.42769258  0.74325241  1
  Te  Te87  1  0.43134513  0.76061587  0.08825672  1
  Te  Te88  1  0.40779006  0.73820401  0.41275915  1
  Te  Te89  1  0.42164618  0.75049518  0.73844900  1
  Te  Te90  1  0.75745730  0.08320543  0.05868506  1
  Te  Te91  1  0.77301262  0.10192532  0.40605000  1
  Te  Te92  1  0.74277210  0.06907884  0.74065650  1
  Te  Te93  1  0.77795525  0.35768347  0.05415705  1
  Te  Te94  1  0.73909116  0.42421016  0.41681731  1
  Te  Te95  1  0.77755984  0.39529233  0.75575302  1
  Te  Te96  1  0.75000727  0.75647484  0.09065305  1
  Te  Te97  1  0.77552426  0.75034061  0.44664251  1
  Te  Te98  1  0.73357875  0.77169704  0.70219958  1
  Te  Te99  1  0.07277368  0.27770831  0.24389809  1
  Te  Te100  1  0.10444046  0.26120195  0.58582893  1
  Te  Te101  1  0.05887195  0.23115024  0.91208342  1
  Te  Te102  1  0.06811807  0.57537656  0.26801395  1
  Te  Te103  1  0.08434846  0.58383538  0.59527758  1
  Te  Te104  1  0.08359212  0.55617934  0.93060123  1
  Te  Te105  1  0.06078651  0.93043668  0.26589163  1
  Te  Te106  1  0.04772516  0.89876382  0.57067713  1
  Te  Te107  1  0.08101429  0.92081475  0.90768804  1
  Te  Te108  1  0.41669143  0.26189759  0.25658073  1
  Te  Te109  1  0.41416027  0.24442314  0.57121566  1
  Te  Te110  1  0.39944516  0.26529843  0.92875742  1
  Te  Te111  1  0.37247653  0.58250163  0.27140330  1
  Te  Te112  1  0.43671395  0.56732536  0.59179796  1
  Te  Te113  1  0.42014914  0.60116509  0.91691873  1
  Te  Te114  1  0.42783760  0.90798345  0.23961070  1
  Te  Te115  1  0.43830765  0.91733185  0.58624588  1
  Te  Te116  1  0.41879287  0.92075748  0.90727349  1
  Te  Te117  1  0.77918921  0.25183489  0.24523662  1
  Te  Te118  1  0.76673441  0.25087526  0.61333674  1
  Te  Te119  1  0.77950768  0.26882083  0.92402929  1
  Te  Te120  1  0.74153641  0.57691268  0.24380506  1
  Te  Te121  1  0.77806394  0.59153702  0.57935613  1
  Te  Te122  1  0.77393200  0.56938485  0.92317821  1
  Te  Te123  1  0.75037421  0.90986277  0.25234144  1
  Te  Te124  1  0.77576370  0.89323151  0.61412682  1
  Te  Te125  1  0.76497501  0.95724864  0.86854838  1
  Te  Te126  1  0.22453503  0.27192071  0.09615937  1
  Te  Te127  1  0.19287470  0.28534968  0.46550196  1
  Te  Te128  1  0.23378395  0.25452039  0.74293413  1
  Te  Te129  1  0.23951374  0.57058230  0.08839571  1
  Te  Te130  1  0.27976683  0.57895916  0.41410745  1
  Te  Te131  1  0.25417112  0.59344510  0.76515059  1
  Te  Te132  1  0.27348402  0.95040911  0.05909385  1
  Te  Te133  1  0.24938552  0.91935803  0.42097351  1
  Te  Te134  1  0.22434271  0.92391117  0.73806934  1
  Te  Te135  1  0.58545029  0.23093066  0.05228292  1
  Te  Te136  1  0.58569507  0.24063907  0.43000728  1
  Te  Te137  1  0.60003517  0.25336825  0.74539950  1
  Te  Te138  1  0.58605800  0.57368649  0.09041747  1
  Te  Te139  1  0.57617738  0.58214921  0.41385153  1
  Te  Te140  1  0.60918644  0.57707721  0.72539025  1
  Te  Te141  1  0.60756982  0.93793305  0.04752284  1
  Te  Te142  1  0.61775311  0.88848838  0.45273761  1
  Te  Te143  1  0.62672508  0.91245176  0.78878775  1
  Te  Te144  1  0.89638228  0.23697071  0.06377648  1
  Te  Te145  1  0.93013335  0.26420591  0.40985239  1
  Te  Te146  1  0.86986322  0.26663465  0.73275834  1
  Te  Te147  1  0.90875770  0.56008652  0.06374342  1
  Te  Te148  1  0.90954143  0.59214088  0.43139891  1
  Te  Te149  1  0.90686986  0.60305198  0.76556999  1
  Te  Te150  1  0.91622797  0.90471519  0.07815922  1
  Te  Te151  1  0.93904798  0.92551022  0.43582850  1
  Te  Te152  1  0.88242239  0.92850331  0.75861870  1
  Te  Te153  1  0.24096910  0.09354133  0.24669527  1
  Te  Te154  1  0.23634261  0.10208423  0.58598631  1
  Te  Te155  1  0.23739119  0.07474802  0.90267948  1
  Te  Te156  1  0.20792605  0.43267137  0.27635747  1
  Te  Te157  1  0.25078852  0.44200784  0.59269751  1
  Te  Te158  1  0.24348908  0.41388716  0.93531358  1
  Te  Te159  1  0.24079013  0.74893117  0.26498525  1
  Te  Te160  1  0.22875698  0.76144319  0.59638997  1
  Te  Te161  1  0.24495071  0.75561859  0.92021047  1
  Te  Te162  1  0.59710309  0.07032770  0.24076524  1
  Te  Te163  1  0.63652143  0.05528789  0.62583168  1
  Te  Te164  1  0.57902052  0.11731414  0.91645547  1
  Te  Te165  1  0.58588279  0.42172580  0.24384355  1
  Te  Te166  1  0.60546074  0.39530059  0.60213724  1
  Te  Te167  1  0.60408881  0.40352575  0.91908153  1
  Te  Te168  1  0.57936502  0.74706863  0.26443266  1
  Te  Te169  1  0.61591260  0.73627748  0.60510222  1
  Te  Te170  1  0.62172060  0.75489706  0.89708419  1
  Te  Te171  1  0.92566705  0.08258951  0.26221662  1
  Te  Te172  1  0.90324167  0.09326311  0.59410410  1
  Te  Te173  1  0.87783813  0.09155600  0.90887428  1
  Te  Te174  1  0.90920194  0.39495477  0.24197628  1
  Te  Te175  1  0.93838416  0.41010728  0.57731694  1
  Te  Te176  1  0.89256594  0.40002700  0.90242305  1
  Te  Te177  1  0.92721917  0.73257851  0.26536961  1
  Te  Te178  1  0.87864657  0.77683264  0.59310217  1
  Te  Te179  1  0.90351220  0.74160181  0.92268893  1
