# generated using pymatgen
data_In2Te3
_symmetry_space_group_name_H-M   'P 1'
_cell_length_a   18.94213446
_cell_length_b   18.96734059
_cell_length_c   18.92317242
_cell_angle_alpha   89.96333691
_cell_angle_beta   89.95468192
_cell_angle_gamma   90.10957798
_symmetry_Int_Tables_number   1
_chemical_formula_structural   In2Te3
_chemical_formula_sum   'In72 Te108'
_cell_volume   6798.73767951
_cell_formula_units_Z   36
loop_
 _symmetry_equiv_pos_site_id
 _symmetry_equiv_pos_as_xyz
  1  'x, y, z'
loop_
 _atom_site_type_symbol
 _atom_site_label
 _atom_site_symmetry_multiplicity
 _atom_site_fract_x
 _atom_site_fract_y
 _atom_site_fract_z
 _atom_site_occupancy
  In  In0  1  0.36103039  0.49914359  0.13721266  1
  In  In1  1  0.48575630  0.32495214  0.17130828  1
  In  In2  1  0.18192107  0.17181682  0.34157668  1
  In  In3  1  0.34103246  0.81759882  0.49469837  1
  In  In4  1  0.02447415  0.82495292  0.16264804  1
  In  In5  1  0.51691755  0.01162031  0.83974350  1
  In  In6  1  -0.01191722  0.84914335  0.48369736  1
  In  In7  1  0.14113115  0.50089365  -0.04372177  1
  In  In8  1  0.50620373  0.17347806  0.65108871  1
  In  In9  1  0.32322034  0.66084403  0.34075931  1
  In  In10  1  0.34189465  0.82100986  0.84817190  1
  In  In11  1  0.50587669  0.17759365  0.00075391  1
  In  In12  1  0.49611462  0.34511231  0.83318021  1
  In  In13  1  0.71688034  0.15682422  0.15049555  1
  In  In14  1  0.67887963  0.15742460  0.48228356  1
  In  In15  1  0.53254226  0.50533987  0.32957570  1
  In  In16  1  0.50565265  0.83350484  0.01792158  1
  In  In17  1  0.33594741  0.50763862  0.84937323  1
  In  In18  1  0.49547578  0.81757255  0.68832160  1
  In  In19  1  0.32043609  0.17729058  0.49320594  1
  In  In20  1  0.67909576  0.82725954  0.84185958  1
  In  In21  1  0.83041858  0.32892615  0.49553757  1
  In  In22  1  0.66026578  0.86470992  0.50010408  1
  In  In23  1  0.57462495  0.66423708  0.20879945  1
  In  In24  1  0.71441667  0.30434400  -0.01078788  1
  In  In25  1  0.84138786  0.51643855  0.70102328  1
  In  In26  1  0.34191180  0.66031643  -0.00820654  1
  In  In27  1  -0.01280993  0.33348423  -0.02954153  1
  In  In28  1  0.03870892  0.31975392  0.64427250  1
  In  In29  1  0.82760314  0.83457607  0.00341000  1
  In  In30  1  -0.02011725  0.83162471  0.80048436  1
  In  In31  1  0.34116887  0.49068143  0.50452642  1
  In  In32  1  0.81316193  0.69899965  0.49994183  1
  In  In33  1  0.67023856  0.49245164  0.84682121  1
  In  In34  1  0.16282169  0.02420551  0.50473500  1
  In  In35  1  0.31839132  0.15592386  0.14292171  1
  In  In36  1  -0.02289338  0.64991157  0.68948634  1
  In  In37  1  0.70493971  0.00789988  0.65305230  1
  In  In38  1  -0.00786946  0.70215042  0.35327603  1
  In  In39  1  0.17429757  0.32630486  0.14202268  1
  In  In40  1  0.50340737  0.51983193  0.64699374  1
  In  In41  1  0.30976937  0.14069358  0.82767790  1
  In  In42  1  0.66653497  0.33166208  0.32435914  1
  In  In43  1  -0.02408445  0.52275074  0.51027251  1
  In  In44  1  0.32277661  0.32900974  0.35266692  1
  In  In45  1  0.68307190  -0.00781379  0.33357107  1
  In  In46  1  0.15284081  0.47901386  0.32668674  1
  In  In47  1  0.30842222  0.31768189  0.67796268  1
  In  In48  1  -0.04623096  0.13012977  0.16548727  1
  In  In49  1  0.80697391  0.63838308  0.17146640  1
  In  In50  1  0.82704182  0.34490806  0.16570057  1
  In  In51  1  0.17795439  0.81910306  0.65706021  1
  In  In52  1  -0.00415471  -0.00069970  0.00364900  1
  In  In53  1  0.30969108  0.85469898  0.11535233  1
  In  In54  1  -0.02572933  0.50786063  0.16204413  1
  In  In55  1  -0.02959124  -0.00099370  0.67686737  1
  In  In56  1  0.14787330  0.00497228  0.85530427  1
  In  In57  1  0.84919133  0.16496545  0.67391278  1
  In  In58  1  0.00552177  0.16753902  0.84288552  1
  In  In59  1  0.34639766  0.01601582  0.32312756  1
  In  In60  1  0.16784889  0.50401016  0.70943477  1
  In  In61  1  0.50834678  0.15993189  0.34963284  1
  In  In62  1  0.51103762  -0.01210859  0.18389850  1
  In  In63  1  0.83137266  0.66455350  0.80986383  1
  In  In64  1  0.82128752  0.85690983  0.31276958  1
  In  In65  1  0.15767800  0.66127706  0.16089208  1
  In  In66  1  0.64314506  0.67690038  0.00154889  1
  In  In67  1  0.66487587  0.66671343  0.66636081  1
  In  In68  1  0.32048345  -0.01879882  0.64668608  1
  In  In69  1  0.15845717  0.83854777  0.34320085  1
  In  In70  1  0.64622671  0.34764156  0.67605678  1
  In  In71  1  -0.01575161  0.32854245  0.32856589  1
  Te  Te72  1  0.07244211  0.09689443  0.08439781  1
  Te  Te73  1  0.07692784  0.09627091  0.41165443  1
  Te  Te74  1  0.08002294  0.08015545  0.74316561  1
  Te  Te75  1  0.07291631  0.42519028  0.08235735  1
  Te  Te76  1  0.05645133  0.42205975  0.42890135  1
  Te  Te77  1  0.10005163  0.38367504  0.76377194  1
  Te  Te78  1  0.09203444  0.74429331  0.05981347  1
  Te  Te79  1  0.10000168  0.74650679  0.44835229  1
  Te  Te80  1  0.08890418  0.73850871  0.75090885  1
  Te  Te81  1  0.43072832  0.07359468  0.08571892  1
  Te  Te82  1  0.42130755  0.07628491  0.44093802  1
  Te  Te83  1  0.41678731  0.07437597  0.73191253  1
  Te  Te84  1  0.41399775  0.38742856  0.06020403  1
  Te  Te85  1  0.43086951  0.41520975  0.40622363  1
  Te  Te86  1  0.41379749  0.42119568  0.73210971  1
  Te  Te87  1  0.41126786  0.74546907  0.09845502  1
  Te  Te88  1  0.42865895  0.74254899  0.40294938  1
  Te  Te89  1  0.39722427  0.72530941  0.74915565  1
  Te  Te90  1  0.79476199  0.09052475  0.04546684  1
  Te  Te91  1  0.77948372  0.08694380  0.39762546  1
  Te  Te92  1  0.74852745  0.09847499  0.76065385  1
  Te  Te93  1  0.77712471  0.42536015  0.05081435  1
  Te  Te94  1  0.74952345  0.41674673  0.41160922  1
  Te  Te95  1  0.75758518  0.40191340  0.76361244  1
  Te  Te96  1  0.73660772  0.74983300  0.09413570  1
  Te  Te97  1  0.72635584  0.76459481  0.39071129  1
  Te  Te98  1  0.75970902  0.76869691  0.72655447  1
  Te  Te99  1  0.09196255  0.25541788  0.24754953  1
  Te  Te100  1  0.11307219  0.21932330  0.56926295  1
  Te  Te101  1  0.08672578  0.22599276  0.95229179  1
  Te  Te102  1  0.06861454  0.59246680  0.26688929  1
  Te  Te103  1  0.07959810  0.57962888  0.60407221  1
  Te  Te104  1  0.06435211  0.59983422  0.88355591  1
  Te  Te105  1  0.09173244  0.92514000  0.24653063  1
  Te  Te106  1  0.08505427  0.91868472  0.58730044  1
  Te  Te107  1  0.06198562  0.89667331  0.91419945  1
  Te  Te108  1  0.40017191  0.22823527  0.26257213  1
  Te  Te109  1  0.41243777  0.26604241  0.57672338  1
  Te  Te110  1  0.41269496  0.23440056  0.89580694  1
  Te  Te111  1  0.41930459  0.57885065  0.25120896  1
  Te  Te112  1  0.43060366  0.59923771  0.54710067  1
  Te  Te113  1  0.43976736  0.56562952  0.93670379  1
  Te  Te114  1  0.39627192  0.90467039  0.23681400  1
  Te  Te115  1  0.43216108  0.90695145  0.58105032  1
  Te  Te116  1  0.42580398  0.92260644  0.92361255  1
  Te  Te117  1  0.77252825  0.24221663  0.26340589  1
  Te  Te118  1  0.73712493  0.24626148  0.59405843  1
  Te  Te119  1  0.78372638  0.20420594  0.90803827  1
  Te  Te120  1  0.69796868  0.58873057  0.26448757  1
  Te  Te121  1  0.76149906  0.58219442  0.58707405  1
  Te  Te122  1  0.74730128  0.60064439  0.91890999  1
  Te  Te123  1  0.73567576  0.92517336  0.21180952  1
  Te  Te124  1  0.78073497  0.93027972  0.55398102  1
  Te  Te125  1  0.73508792  0.92597884  0.93384612  1
  Te  Te126  1  0.26040991  0.25261904  0.04978164  1
  Te  Te127  1  0.21262791  0.28106753  0.44857655  1
  Te  Te128  1  0.22389117  0.25081823  0.77930601  1
  Te  Te129  1  0.23940980  0.56547256  0.07489545  1
  Te  Te130  1  0.23503207  0.56619384  0.41974365  1
  Te  Te131  1  0.26771602  0.60210990  0.75866296  1
  Te  Te132  1  0.22402641  0.95207639  0.05367755  1
  Te  Te133  1  0.25638440  0.93321869  0.42317499  1
  Te  Te134  1  0.24530587  0.91810495  0.76211495  1
  Te  Te135  1  0.60612543  0.24934926  0.09529422  1
  Te  Te136  1  0.58049280  0.26259405  0.43098072  1
  Te  Te137  1  0.58281769  0.24000775  0.76380320  1
  Te  Te138  1  0.56333811  0.58566469  0.08479920  1
  Te  Te139  1  0.61969164  0.60077884  0.39732208  1
  Te  Te140  1  0.58235535  0.58319222  0.76166113  1
  Te  Te141  1  0.60367625  0.90936054  0.09935109  1
  Te  Te142  1  0.56929028  0.91580437  0.39249530  1
  Te  Te143  1  0.59572779  0.92234969  0.74278683  1
  Te  Te144  1  0.92563604  0.25826797  0.09170369  1
  Te  Te145  1  0.93196097  0.24264172  0.43548040  1
  Te  Te146  1  0.93640124  0.26317787  0.74826020  1
  Te  Te147  1  0.91220048  0.60490990  0.07379870  1
  Te  Te148  1  0.89269227  0.60242205  0.41145568  1
  Te  Te149  1  0.95042249  0.52561354  0.81352942  1
  Te  Te150  1  0.91604108  0.91271629  0.09978175  1
  Te  Te151  1  0.93910141  0.93211221  0.36875076  1
  Te  Te152  1  0.88300346  0.93837330  0.77699422  1
  Te  Te153  1  0.23508512  0.07297123  0.23794052  1
  Te  Te154  1  0.24221842  0.10729392  0.60721694  1
  Te  Te155  1  0.25782197  0.05715506  0.94322945  1
  Te  Te156  1  0.26275470  0.41487108  0.24159891  1
  Te  Te157  1  0.23930099  0.42478588  0.59595747  1
  Te  Te158  1  0.24557098  0.40997146  0.91154783  1
  Te  Te159  1  0.24314016  0.75294228  0.24788305  1
  Te  Te160  1  0.26702468  0.72915178  0.58523899  1
  Te  Te161  1  0.24462807  0.75615487  0.93787828  1
  Te  Te162  1  0.59934608  0.10165058  0.24540842  1
  Te  Te163  1  0.59022737  0.07421101  0.57373654  1
  Te  Te164  1  0.59671452  0.07769561  0.94254086  1
  Te  Te165  1  0.59472995  0.41660458  0.22013217  1
  Te  Te166  1  0.59744606  0.43659294  0.57217449  1
  Te  Te167  1  0.59764504  0.39258391  0.93423494  1
  Te  Te168  1  0.59191959  0.77805063  0.29909513  1
  Te  Te169  1  0.58278756  0.75636333  0.57718967  1
  Te  Te170  1  0.56073747  0.75297846  0.90009393  1
  Te  Te171  1  0.88712135  0.06111769  0.27559789  1
  Te  Te172  1  0.90650313  0.07661691  0.57029918  1
  Te  Te173  1  0.89977357  0.09727928  0.92907434  1
  Te  Te174  1  0.89420608  0.43619243  0.26811968  1
  Te  Te175  1  0.91375545  0.41809362  0.60310508  1
  Te  Te176  1  0.88949579  0.43193824  0.92405369  1
  Te  Te177  1  0.90397450  0.74434325  0.23830866  1
  Te  Te178  1  0.92644883  0.75180118  0.58595008  1
  Te  Te179  1  0.91055926  0.74758535  0.90852375  1
