# generated using pymatgen
data_In2Te3
_symmetry_space_group_name_H-M   'P 1'
_cell_length_a   18.96193333
_cell_length_b   18.96326002
_cell_length_c   18.94654836
_cell_angle_alpha   90.06583665
_cell_angle_beta   89.90848146
_cell_angle_gamma   89.68855336
_symmetry_Int_Tables_number   1
_chemical_formula_structural   In2Te3
_chemical_formula_sum   'In72 Te108'
_cell_volume   6812.68731942
_cell_formula_units_Z   36
loop_
 _symmetry_equiv_pos_site_id
 _symmetry_equiv_pos_as_xyz
  1  'x, y, z'
loop_
 _atom_site_type_symbol
 _atom_site_label
 _atom_site_symmetry_multiplicity
 _atom_site_fract_x
 _atom_site_fract_y
 _atom_site_fract_z
 _atom_site_occupancy
  In  In0  1  0.50054982  0.48772667  0.02600670  1
  In  In1  1  0.84251570  0.50502627  0.00023609  1
  In  In2  1  0.82655639  0.00549096  0.83601279  1
  In  In3  1  0.71509361  0.51606407  0.86568767  1
  In  In4  1  0.84154112  0.01777440  0.52335203  1
  In  In5  1  0.85813927  0.82796776  0.64445580  1
  In  In6  1  0.65329401  0.34413304  0.33811057  1
  In  In7  1  0.85216065  0.67043368  0.16455558  1
  In  In8  1  0.66954575  0.00314206  -0.01128187  1
  In  In9  1  0.33952202  0.48585661  0.84457578  1
  In  In10  1  0.84255303  -0.00966298  0.17845908  1
  In  In11  1  0.01361569  -0.00611240  0.00188983  1
  In  In12  1  0.16073577  0.17017393  0.66397947  1
  In  In13  1  0.68629727  0.64504148  0.65131163  1
  In  In14  1  0.13644702  0.50542001  0.57355620  1
  In  In15  1  0.31822620  0.63983545  0.02658172  1
  In  In16  1  0.50624977  0.84585095  -0.02150842  1
  In  In17  1  0.31354716  0.64592654  0.63550939  1
  In  In18  1  -0.01791218  0.16999625  0.82050691  1
  In  In19  1  0.50769099  0.68126310  0.49276922  1
  In  In20  1  0.16373250  0.84226503  0.01696336  1
  In  In21  1  0.17197447  -0.03280236  0.84687760  1
  In  In22  1  0.15677037  0.36582019  0.82824394  1
  In  In23  1  0.00228679  0.35801639  0.69767674  1
  In  In24  1  0.31132484  0.15749096  0.48776374  1
  In  In25  1  0.13440414  0.50173890  0.36705605  1
  In  In26  1  0.30881052  0.49711762  0.17056062  1
  In  In27  1  0.14045884  0.18406098  0.33326626  1
  In  In28  1  0.31450630  0.31790805  0.32120042  1
  In  In29  1  0.50509938  0.64093673  0.14808340  1
  In  In30  1  0.00602242  0.35907996  0.01382434  1
  In  In31  1  0.67986530  0.15569333  0.50243117  1
  In  In32  1  0.69974943  0.83001498  0.82478920  1
  In  In33  1  0.84919165  0.18483891  0.35812260  1
  In  In34  1  0.31689235  0.80046350  0.79765553  1
  In  In35  1  0.49453868  0.81666354  0.33998350  1
  In  In36  1  0.65891806  -0.04104612  0.32930894  1
  In  In37  1  0.31872485  0.17000522  0.15483626  1
  In  In38  1  0.00538643  0.66869820  0.00147741  1
  In  In39  1  0.50596486  0.02181070  0.82146997  1
  In  In40  1  0.49667100  0.51835654  0.68029498  1
  In  In41  1  0.82070122  0.82284469  0.34241804  1
  In  In42  1  0.15975600  0.81372118  0.33526931  1
  In  In43  1  0.66814644  0.17838734  0.16608967  1
  In  In44  1  0.68650390  0.48518880  0.52124763  1
  In  In45  1  0.15329813  0.17284002  0.01298541  1
  In  In46  1  0.67635424  0.34150539  0.01102114  1
  In  In47  1  0.49938712  0.17400189  0.65958394  1
  In  In48  1  0.67320753  0.67049989  0.33284737  1
  In  In49  1  0.92853728  0.33203109  0.18141457  1
  In  In50  1  0.34503043  -0.01629026  -0.00661221  1
  In  In51  1  0.32787430  0.00275985  0.34694675  1
  In  In52  1  0.45795475  0.14553377  0.33082899  1
  In  In53  1  0.00458780  0.82819263  0.48391789  1
  In  In54  1  0.68733459  -0.00576770  0.67519633  1
  In  In55  1  0.15658499  0.67675751  0.84780058  1
  In  In56  1  0.47152680  0.32092175  0.47960076  1
  In  In57  1  0.48856642  0.00630033  0.15274052  1
  In  In58  1  0.31418666  0.81120432  0.17120192  1
  In  In59  1  -0.02064541  0.02433295  0.65599856  1
  In  In60  1  0.32974975  0.18757076  0.82963212  1
  In  In61  1  0.49160906  0.68496405  0.82160442  1
  In  In62  1  0.86384130  0.36046686  0.50399062  1
  In  In63  1  0.49450150  0.33350053  0.83149281  1
  In  In64  1  0.01145101  0.02108971  0.33638556  1
  In  In65  1  -0.00103440  0.82626018  0.18872617  1
  In  In66  1  0.50042293  0.50673116  0.31537416  1
  In  In67  1  0.34090968  0.84277422  0.50382919  1
  In  In68  1  0.84038645  0.34965679  0.85160390  1
  In  In69  1  0.12937707  0.81293880  0.67341471  1
  In  In70  1  0.68991736  0.52148744  0.17449576  1
  In  In71  1  0.65678552  0.32967857  0.66607167  1
  Te  Te72  1  0.07754433  0.08246679  0.09831269  1
  Te  Te73  1  0.08788962  0.09316577  0.43674919  1
  Te  Te74  1  0.08538282  0.06875417  0.76664619  1
  Te  Te75  1  0.12644232  0.41898064  0.07060117  1
  Te  Te76  1  0.06319943  0.40616493  0.46347755  1
  Te  Te77  1  0.10351165  0.46506743  0.72739957  1
  Te  Te78  1  0.09309365  0.74249446  0.10368792  1
  Te  Te79  1  0.09372702  0.71767227  0.43050099  1
  Te  Te80  1  0.05048299  0.72099691  0.75559058  1
  Te  Te81  1  0.41746722  0.09960007  0.05875272  1
  Te  Te82  1  0.42596000  0.05867884  0.44766286  1
  Te  Te83  1  0.39901008  0.08845491  0.73728966  1
  Te  Te84  1  0.39446630  0.41022368  0.08696118  1
  Te  Te85  1  0.40226721  0.42300557  0.39342112  1
  Te  Te86  1  0.40727572  0.40833609  0.73169965  1
  Te  Te87  1  0.42656696  0.75765271  0.07575226  1
  Te  Te88  1  0.39011607  0.73328278  0.40906948  1
  Te  Te89  1  0.42961576  0.75552728  0.70048572  1
  Te  Te90  1  0.75484826  0.07952397  0.09008450  1
  Te  Te91  1  0.74767315  0.06860598  0.39710886  1
  Te  Te92  1  0.76313089  0.09819433  0.74213689  1
  Te  Te93  1  0.77200993  0.41601095  0.10240122  1
  Te  Te94  1  0.76371265  0.42225551  0.40477156  1
  Te  Te95  1  0.74663851  0.43131691  0.73910922  1
  Te  Te96  1  0.73453529  0.69621144  0.08141138  1
  Te  Te97  1  0.74386250  0.74386795  0.43824730  1
  Te  Te98  1  0.77849950  0.73748332  0.73580562  1
  Te  Te99  1  0.04743045  0.27205841  0.25795491  1
  Te  Te100  1  0.07756680  0.27468241  0.60124406  1
  Te  Te101  1  0.07890031  0.25298763  0.90177337  1
  Te  Te102  1  0.05029256  0.57487172  0.26640150  1
  Te  Te103  1  0.06569996  0.63589538  0.56066913  1
  Te  Te104  1  0.08432374  0.57283459  0.91980323  1
  Te  Te105  1  0.09376889  0.92421438  0.25215501  1
  Te  Te106  1  0.06768972  0.92045345  0.58349513  1
  Te  Te107  1  0.06522186  0.88201790  0.90855983  1
  Te  Te108  1  0.42264846  0.25369803  0.23456339  1
  Te  Te109  1  0.39151292  0.24845992  0.58297251  1
  Te  Te110  1  0.40474553  0.26653993  0.92574691  1
  Te  Te111  1  0.39914670  0.59506206  0.24609473  1
  Te  Te112  1  0.42342926  0.57194675  0.56027217  1
  Te  Te113  1  0.42954302  0.59023709  0.92488949  1
  Te  Te114  1  0.40957250  0.91567018  0.24871730  1
  Te  Te115  1  0.41412461  0.88862587  0.61950068  1
  Te  Te116  1  0.40666921  0.90457110  0.87755047  1
  Te  Te117  1  0.75463314  0.25808278  0.26164131  1
  Te  Te118  1  0.75444318  0.26870743  0.56680903  1
  Te  Te119  1  0.75720946  0.25497409  0.92404180  1
  Te  Te120  1  0.78178382  0.58245618  0.27483449  1
  Te  Te121  1  0.78775483  0.58550498  0.55913873  1
  Te  Te122  1  0.79400961  0.63485531  0.92944000  1
  Te  Te123  1  0.74450768  0.88519347  0.22732922  1
  Te  Te124  1  0.75209911  0.90665535  0.56925835  1
  Te  Te125  1  0.77126148  0.90303006  0.93524144  1
  Te  Te126  1  0.22588444  0.26989400  0.09688095  1
  Te  Te127  1  0.22484081  0.26742825  0.43039094  1
  Te  Te128  1  0.24235723  0.27342173  0.74129833  1
  Te  Te129  1  0.20360516  0.55851104  0.07937241  1
  Te  Te130  1  0.24112683  0.55526606  0.46154679  1
  Te  Te131  1  0.26609420  0.59726501  0.76868041  1
  Te  Te132  1  0.25189098  0.93218688  0.10107728  1
  Te  Te133  1  0.23290059  0.91529074  0.42313473  1
  Te  Te134  1  0.24208306  0.90968591  0.72694372  1
  Te  Te135  1  0.57939977  0.25855414  0.08367516  1
  Te  Te136  1  0.57786899  0.23279983  0.41171604  1
  Te  Te137  1  0.59158482  0.23561994  0.76288548  1
  Te  Te138  1  0.61915790  0.59015173  0.05640979  1
  Te  Te139  1  0.59326546  0.56490114  0.41917137  1
  Te  Te140  1  0.59953943  0.58429569  0.76742569  1
  Te  Te141  1  0.58861185  0.91494195  0.08460299  1
  Te  Te142  1  0.57071310  0.90210998  0.42990533  1
  Te  Te143  1  0.59083953  0.91208730  0.75687712  1
  Te  Te144  1  0.91120791  0.25661063  0.05913450  1
  Te  Te145  1  0.94851377  0.28570065  0.40292238  1
  Te  Te146  1  0.89184894  0.25912168  0.74018068  1
  Te  Te147  1  0.94186026  0.56738893  0.09755676  1
  Te  Te148  1  0.97896664  0.51714559  0.40694949  1
  Te  Te149  1  0.84987977  0.54059942  0.72480913  1
  Te  Te150  1  0.92089636  0.90068586  0.08354307  1
  Te  Te151  1  0.91010512  0.92913003  0.40902632  1
  Te  Te152  1  0.91805074  0.92043071  0.74773466  1
  Te  Te153  1  0.24307131  0.09309100  0.26044782  1
  Te  Te154  1  0.23198505  0.07432221  0.57785444  1
  Te  Te155  1  0.24658201  0.07743562  0.91860652  1
  Te  Te156  1  0.21865864  0.41973643  0.26479714  1
  Te  Te157  1  0.26994025  0.44556158  0.55657014  1
  Te  Te158  1  0.24798743  0.41395972  0.93411750  1
  Te  Te159  1  0.23037121  0.71879818  0.24583129  1
  Te  Te160  1  0.23426559  0.75691456  0.57553695  1
  Te  Te161  1  0.26452134  0.75672767  0.93706581  1
  Te  Te162  1  0.57762899  0.07553000  0.25483892  1
  Te  Te163  1  0.58770146  0.07305295  0.58727180  1
  Te  Te164  1  0.58021413  0.09683690  0.92078921  1
  Te  Te165  1  0.58528215  0.42019424  0.22581339  1
  Te  Te166  1  0.56226436  0.40470877  0.57345482  1
  Te  Te167  1  0.58614183  0.42738610  0.90893046  1
  Te  Te168  1  0.57856129  0.74073503  0.23881107  1
  Te  Te169  1  0.60206956  0.74575126  0.58351477  1
  Te  Te170  1  0.59909381  0.74959147  0.90858522  1
  Te  Te171  1  0.91726574  0.10180829  0.24824254  1
  Te  Te172  1  0.92910355  0.12635701  0.56271000  1
  Te  Te173  1  0.91661923  0.08573183  0.92774250  1
  Te  Te174  1  0.95146443  0.45749334  0.25571356  1
  Te  Te175  1  0.91289921  0.45323304  0.61583595  1
  Te  Te176  1  0.94413835  0.44529272  0.90052833  1
  Te  Te177  1  0.93010520  0.73469264  0.28556803  1
  Te  Te178  1  0.93559835  0.72320431  0.56996827  1
  Te  Te179  1  0.90664721  0.73178251  0.91466296  1
