# generated using pymatgen
data_In2Te3
_symmetry_space_group_name_H-M   'P 1'
_cell_length_a   18.79534980
_cell_length_b   18.79871746
_cell_length_c   18.80338174
_cell_angle_alpha   90.02445372
_cell_angle_beta   89.98650682
_cell_angle_gamma   90.00234658
_symmetry_Int_Tables_number   1
_chemical_formula_structural   In2Te3
_chemical_formula_sum   'In72 Te108'
_cell_volume   6643.76931329
_cell_formula_units_Z   36
loop_
 _symmetry_equiv_pos_site_id
 _symmetry_equiv_pos_as_xyz
  1  'x, y, z'
loop_
 _atom_site_type_symbol
 _atom_site_label
 _atom_site_symmetry_multiplicity
 _atom_site_fract_x
 _atom_site_fract_y
 _atom_site_fract_z
 _atom_site_occupancy
  In  In0  1  0.68083175  0.49157629  0.11516688  1
  In  In1  1  0.66771529  0.50899214  0.48297499  1
  In  In2  1  0.67535807  0.32506696  0.69242649  1
  In  In3  1  0.65169684  0.48573963  0.87335065  1
  In  In4  1  0.16092211  0.85278626  0.33576644  1
  In  In5  1  0.32800748  0.14741735  0.18890905  1
  In  In6  1  0.84681199  0.51623256  0.33762547  1
  In  In7  1  0.85805982  -0.00733156  0.48990064  1
  In  In8  1  0.31043072  0.82886706  0.50261913  1
  In  In9  1  0.85298437  0.31889893  0.50201195  1
  In  In10  1  0.17493977  0.33503589  0.49910299  1
  In  In11  1  0.16225315  0.32485070  0.84448249  1
  In  In12  1  0.34641745  0.32524022  0.66652105  1
  In  In13  1  0.35239930  0.15641563  0.84068515  1
  In  In14  1  0.50343970  0.67801590  0.85124196  1
  In  In15  1  0.82628195  0.16200054  0.33262882  1
  In  In16  1  -0.01940087  0.15796533  0.16278843  1
  In  In17  1  0.84381989  -0.00299345  0.16372399  1
  In  In18  1  0.15581881  0.15111041  0.35890849  1
  In  In19  1  0.67493633  0.83848545  0.51094389  1
  In  In20  1  0.65263323  -0.03342194  0.01921440  1
  In  In21  1  0.46880117  0.50881314  0.32214490  1
  In  In22  1  0.50641718  0.14566077  0.32744737  1
  In  In23  1  0.48992897  0.31639516  0.50734178  1
  In  In24  1  0.35031168  0.33967853  0.01103871  1
  In  In25  1  0.65709376  0.68607522  -0.00080472  1
  In  In26  1  0.16166855  0.81817364  0.00592138  1
  In  In27  1  0.00479106  0.51734693  0.17088744  1
  In  In28  1  0.67863612  0.01209686  0.31575979  1
  In  In29  1  -0.01751259  0.33252135  0.32295431  1
  In  In30  1  0.34272035  0.49110770  0.16151678  1
  In  In31  1  0.48985409  0.83297207  0.31892538  1
  In  In32  1  0.50119182  0.16703380  0.01241837  1
  In  In33  1  0.83498040  0.34565337  0.84532901  1
  In  In34  1  0.83880167  0.68409591  0.83806781  1
  In  In35  1  0.33550200  -0.00179903  -0.00629209  1
  In  In36  1  0.31061200  0.53353592  0.79968417  1
  In  In37  1  0.35311555  0.67846744  0.01378468  1
  In  In38  1  0.00678825  0.67323948  0.66521660  1
  In  In39  1  0.84056091  -0.03407449  0.83534204  1
  In  In40  1  0.66352281  0.31615934  0.31189803  1
  In  In41  1  0.02158596  0.15826966  0.81237299  1
  In  In42  1  -0.01467855  0.49107322  0.50239290  1
  In  In43  1  0.15628270  0.68325894  0.50838913  1
  In  In44  1  0.15298351  0.51765896  -0.00467687  1
  In  In45  1  0.83321535  0.14625838  0.64876155  1
  In  In46  1  0.00600665  -0.00700684  0.01112693  1
  In  In47  1  0.64228830  0.67794296  0.31767058  1
  In  In48  1  0.17636716  0.34218397  0.16127949  1
  In  In49  1  0.00206402  0.82369796  0.83359742  1
  In  In50  1  0.65437672  -0.00871345  0.66196552  1
  In  In51  1  0.82164507  0.17471016  -0.01565102  1
  In  In52  1  0.32757597  0.51147535  0.51834905  1
  In  In53  1  0.15208678  0.16282410  -0.02124405  1
  In  In54  1  0.01330098  0.34423231  0.68046713  1
  In  In55  1  -0.01531684  0.50759721  0.84922528  1
  In  In56  1  0.32376062  0.00325095  0.68103716  1
  In  In57  1  0.16285226  0.14051114  0.64515153  1
  In  In58  1  0.51004071  0.33251727  0.15309986  1
  In  In59  1  0.49143102  0.51227640  0.65944224  1
  In  In60  1  0.64264590  0.16150787  0.83188441  1
  In  In61  1  0.86144533  0.67798676  0.50924260  1
  In  In62  1  0.28998944  0.33152149  0.32296552  1
  In  In63  1  0.01294512  0.83177268  0.16471031  1
  In  In64  1  0.51539768  0.82806273  0.68184740  1
  In  In65  1  0.84590225  0.83596437  0.32992723  1
  In  In66  1  0.32412876  0.84373123  0.82777296  1
  In  In67  1  0.34077766  0.83729961  0.16692005  1
  In  In68  1  0.82958480  0.66839444  0.15773371  1
  In  In69  1  0.49921333  0.01230692  0.50479781  1
  In  In70  1  0.68832717  0.67874480  0.67895242  1
  In  In71  1  0.32256528  0.67440123  0.32393059  1
  Te  Te72  1  0.09584968  0.08260678  0.09564852  1
  Te  Te73  1  0.08335329  0.05165876  0.45432255  1
  Te  Te74  1  0.08757541  0.04759629  0.73716418  1
  Te  Te75  1  0.07632812  0.41099859  0.07347252  1
  Te  Te76  1  0.07890977  0.41341293  0.41009590  1
  Te  Te77  1  0.09573520  0.43799822  0.76571192  1
  Te  Te78  1  0.07239908  0.72536340  0.07916170  1
  Te  Te79  1  0.07075642  0.77596065  0.42938162  1
  Te  Te80  1  0.10390925  0.73600315  0.76118734  1
  Te  Te81  1  0.42249913  0.06794640  0.09880620  1
  Te  Te82  1  0.40743851  0.06745401  0.40193497  1
  Te  Te83  1  0.43337188  0.06942194  0.75461810  1
  Te  Te84  1  0.45341295  0.44348888  0.06056307  1
  Te  Te85  1  0.40130908  0.40970637  0.41804055  1
  Te  Te86  1  0.41504970  0.42528432  0.75849131  1
  Te  Te87  1  0.43829091  0.79845180  0.05151015  1
  Te  Te88  1  0.41377746  0.74866891  0.42093811  1
  Te  Te89  1  0.41054796  0.74105974  0.74904934  1
  Te  Te90  1  0.74909497  0.07558990  0.07569904  1
  Te  Te91  1  0.74550818  0.08078548  0.43400476  1
  Te  Te92  1  0.75648074  0.08098546  0.76471666  1
  Te  Te93  1  0.77494371  0.40452853  0.04618745  1
  Te  Te94  1  0.75945909  0.40508165  0.41261056  1
  Te  Te95  1  0.74915923  0.43828440  0.75949530  1
  Te  Te96  1  0.74900646  0.76733039  0.08416973  1
  Te  Te97  1  0.74833155  0.73944367  0.41215753  1
  Te  Te98  1  0.76167010  0.78072986  0.75515990  1
  Te  Te99  1  0.09207475  0.24669233  0.24827235  1
  Te  Te100  1  0.07625371  0.25023716  0.57945258  1
  Te  Te101  1  0.04939010  0.26176895  0.92464297  1
  Te  Te102  1  0.10819653  0.56352663  0.26186200  1
  Te  Te103  1  0.08638726  0.56842242  0.58495223  1
  Te  Te104  1  0.07695957  0.60904419  0.90763690  1
  Te  Te105  1  0.07757662  0.93771120  0.24491328  1
  Te  Te106  1  0.06985666  0.97132326  0.57602062  1
  Te  Te107  1  0.09502346  0.92002673  0.91353377  1
  Te  Te108  1  0.41054836  0.26633746  0.25014167  1
  Te  Te109  1  0.41151417  0.22057797  0.58636532  1
  Te  Te110  1  0.43754352  0.26472494  0.90982471  1
  Te  Te111  1  0.41966892  0.61292522  0.22281547  1
  Te  Te112  1  0.41489872  0.61094879  0.58201378  1
  Te  Te113  1  0.40674824  0.57706840  0.91168829  1
  Te  Te114  1  0.40082280  0.93535356  0.26153589  1
  Te  Te115  1  0.42445560  0.90472098  0.58570935  1
  Te  Te116  1  0.42573037  0.90607650  0.91838960  1
  Te  Te117  1  0.76135772  0.24429847  0.22915696  1
  Te  Te118  1  0.74215310  0.24658868  0.57873871  1
  Te  Te119  1  0.72208494  0.26595448  0.91238794  1
  Te  Te120  1  0.73595969  0.57490049  0.24913152  1
  Te  Te121  1  0.76016330  0.58475044  0.57793241  1
  Te  Te122  1  0.74966922  0.58922944  0.92303926  1
  Te  Te123  1  0.74660382  0.90119900  0.23589581  1
  Te  Te124  1  0.77117227  0.91862628  0.59508040  1
  Te  Te125  1  0.75689650  0.89862110  0.93649352  1
  Te  Te126  1  0.25841003  0.23395214  0.07266999  1
  Te  Te127  1  0.26543102  0.23128357  0.43435743  1
  Te  Te128  1  0.24209910  0.23568495  0.75041528  1
  Te  Te129  1  0.25141134  0.59020710  0.08762376  1
  Te  Te130  1  0.23956425  0.58948720  0.42053661  1
  Te  Te131  1  0.22888650  0.62840567  0.72285369  1
  Te  Te132  1  0.24103706  0.92170861  0.08596489  1
  Te  Te133  1  0.24499694  0.93831839  0.42702603  1
  Te  Te134  1  0.22630442  0.90526152  0.73443468  1
  Te  Te135  1  0.60486663  0.23910670  0.09090654  1
  Te  Te136  1  0.58829394  0.23747814  0.41810867  1
  Te  Te137  1  0.56187950  0.24635577  0.74043047  1
  Te  Te138  1  0.57814563  0.59125322  0.08329266  1
  Te  Te139  1  0.55982407  0.59216705  0.41490194  1
  Te  Te140  1  0.58977938  0.58285139  0.75546350  1
  Te  Te141  1  0.56076339  0.88570879  0.10275196  1
  Te  Te142  1  0.59169922  0.91727354  0.41018374  1
  Te  Te143  1  0.60323971  0.90667557  0.77283808  1
  Te  Te144  1  0.90276864  0.25313749  0.08246687  1
  Te  Te145  1  0.93747030  0.22360640  0.42012291  1
  Te  Te146  1  0.90652144  0.24718550  0.74793608  1
  Te  Te147  1  0.91898559  0.58647026  0.07262717  1
  Te  Te148  1  0.94893122  0.60444501  0.40606952  1
  Te  Te149  1  0.90810091  0.58512795  0.74316835  1
  Te  Te150  1  0.90766386  0.89498688  0.07079657  1
  Te  Te151  1  0.94811944  0.89305689  0.42234254  1
  Te  Te152  1  0.94083947  0.91984193  0.73694611  1
  Te  Te153  1  0.23081397  0.06548322  0.26335369  1
  Te  Te154  1  0.25451127  0.05817889  0.56001020  1
  Te  Te155  1  0.23979715  0.06964423  0.89672924  1
  Te  Te156  1  0.22432868  0.45860632  0.25973297  1
  Te  Te157  1  0.24237074  0.41990852  0.60627364  1
  Te  Te158  1  0.25630573  0.41955619  0.92042764  1
  Te  Te159  1  0.22956257  0.75602755  0.23699113  1
  Te  Te160  1  0.24289431  0.74991285  0.61216581  1
  Te  Te161  1  0.25413108  0.73787169  0.91506778  1
  Te  Te162  1  0.59267390  0.08811620  0.22333275  1
  Te  Te163  1  0.58630417  0.09763925  0.58805072  1
  Te  Te164  1  0.57372193  0.06420717  0.92570689  1
  Te  Te165  1  0.58350319  0.43201784  0.25146303  1
  Te  Te166  1  0.58693362  0.41757055  0.57831051  1
  Te  Te167  1  0.55877663  0.39636628  0.94166591  1
  Te  Te168  1  0.57894541  0.76655412  0.21625094  1
  Te  Te169  1  0.58589050  0.73676770  0.57982918  1
  Te  Te170  1  0.60163127  0.77978267  0.89485229  1
  Te  Te171  1  0.92845557  0.06341031  0.27154199  1
  Te  Te172  1  0.94838160  0.07552756  0.58237189  1
  Te  Te173  1  0.92493545  0.08207326  0.91379308  1
  Te  Te174  1  0.89714692  0.41750193  0.23308851  1
  Te  Te175  1  0.90123883  0.41870475  0.60668412  1
  Te  Te176  1  0.89774416  0.43373552  0.95048598  1
  Te  Te177  1  0.92963430  0.73517375  0.25270933  1
  Te  Te178  1  0.92436317  0.77707677  0.59724510  1
  Te  Te179  1  0.93682572  0.73756888  0.93635311  1
