# generated using pymatgen
data_In2Te3
_symmetry_space_group_name_H-M   'P 1'
_cell_length_a   18.77063399
_cell_length_b   18.77147378
_cell_length_c   18.77932978
_cell_angle_alpha   89.98663582
_cell_angle_beta   89.96120555
_cell_angle_gamma   90.05655229
_symmetry_Int_Tables_number   1
_chemical_formula_structural   In2Te3
_chemical_formula_sum   'In72 Te108'
_cell_volume   6616.93819564
_cell_formula_units_Z   36
loop_
 _symmetry_equiv_pos_site_id
 _symmetry_equiv_pos_as_xyz
  1  'x, y, z'
loop_
 _atom_site_type_symbol
 _atom_site_label
 _atom_site_symmetry_multiplicity
 _atom_site_fract_x
 _atom_site_fract_y
 _atom_site_fract_z
 _atom_site_occupancy
  In  In0  1  0.81925132  0.69284116  0.48572786  1
  In  In1  1  0.65240768  0.50736260  0.81882798  1
  In  In2  1  0.31823143  0.48296139  0.82899138  1
  In  In3  1  0.83263528  0.48989875  0.01002124  1
  In  In4  1  0.34322162  0.84980347  0.49660644  1
  In  In5  1  0.83643987  0.68089860  0.82013793  1
  In  In6  1  -0.01357029  0.15307080  0.84012401  1
  In  In7  1  -0.00946666  0.67335568  -0.01932373  1
  In  In8  1  -0.00442504  0.82962364  0.49171824  1
  In  In9  1  0.17095942  0.82586048  0.00298888  1
  In  In10  1  0.14989722  0.14698535  0.01647471  1
  In  In11  1  -0.02107425  0.32677930  0.65906830  1
  In  In12  1  -0.00572321  0.33059310  0.02131344  1
  In  In13  1  0.50459793  0.15953773  -0.00075850  1
  In  In14  1  -0.00878984  -0.00612152  0.32793165  1
  In  In15  1  0.15310553  0.33974066  0.16447391  1
  In  In16  1  0.16343486  0.00036293  0.50048529  1
  In  In17  1  0.33285924  0.33073243  -0.01268634  1
  In  In18  1  0.82265289  0.84211261  0.67297343  1
  In  In19  1  0.17128013  0.15948279  0.66130007  1
  In  In20  1  0.50121733  -0.00787497  0.82698180  1
  In  In21  1  0.52163653  0.83855581  0.32540603  1
  In  In22  1  -0.01211570  0.84802293  0.17477261  1
  In  In23  1  0.18135334  0.35004613  0.84282945  1
  In  In24  1  -0.01212880  0.84131936  0.80949400  1
  In  In25  1  0.15227578  0.65700057  0.49519992  1
  In  In26  1  0.67233551  -0.01609084  0.32988131  1
  In  In27  1  0.83451163  0.65966613  0.17592535  1
  In  In28  1  0.68417972  0.50837252  0.49944926  1
  In  In29  1  0.17475134  -0.00193671  0.82752456  1
  In  In30  1  0.32770054  0.82215723  0.15782970  1
  In  In31  1  0.52439626  0.49406330  -0.01537310  1
  In  In32  1  0.50841704  0.67203540  0.83027197  1
  In  In33  1  -0.00167573  0.49639077  0.86012116  1
  In  In34  1  0.70365178  0.17324645  0.84265604  1
  In  In35  1  0.50493875  0.69114361  0.16599259  1
  In  In36  1  0.83909590  0.00020155  0.51541498  1
  In  In37  1  0.68315731  0.12709321  0.15204849  1
  In  In38  1  0.30699209  0.66506748  0.33491589  1
  In  In39  1  -0.02259916  0.00842012  0.00615059  1
  In  In40  1  0.68065877  0.32368224  0.65789588  1
  In  In41  1  0.50463444  0.33428769  0.50407376  1
  In  In42  1  0.34762739  0.66057861  0.66293188  1
  In  In43  1  0.01595224  0.64302887  0.30520237  1
  In  In44  1  0.31803415  0.00964552  0.33509097  1
  In  In45  1  0.49634877  0.18582616  0.34670686  1
  In  In46  1  -0.00246280  0.33281615  0.34810124  1
  In  In47  1  0.31474152  0.48611626  0.16470411  1
  In  In48  1  0.16231751  0.51793547  0.65840659  1
  In  In49  1  0.85069337  0.15643947  0.33851307  1
  In  In50  1  0.52255621  -0.00583579  0.49366297  1
  In  In51  1  0.68050109  0.86107352  0.14808181  1
  In  In52  1  0.83892202  0.50405799  0.33011046  1
  In  In53  1  0.34500295  0.33139421  0.67785994  1
  In  In54  1  0.52127061  0.84050253  0.67317414  1
  In  In55  1  0.83929793  0.32281138  0.16609902  1
  In  In56  1  0.82543346  0.14882663  0.66514814  1
  In  In57  1  0.15813413  0.17139483  0.33053719  1
  In  In58  1  0.51641527  -0.01037502  0.13856144  1
  In  In59  1  0.15758698  0.33938447  0.49075773  1
  In  In60  1  0.32275672  0.32689984  0.33366730  1
  In  In61  1  0.51138477  0.31652079  0.18049205  1
  In  In62  1  0.50358539  0.50611316  0.33862506  1
  In  In63  1  0.31963227  0.66732982  0.01172151  1
  In  In64  1  0.65562481  0.33173780  0.34596765  1
  In  In65  1  0.65308636  0.68387216  -0.00693392  1
  In  In66  1  0.50528449  0.66626608  0.52090211  1
  In  In67  1  0.84351188  0.49739614  0.65789339  1
  In  In68  1  0.34181879  -0.00696142  -0.00695752  1
  In  In69  1  0.50242773  0.13590273  0.66589665  1
  In  In70  1  0.50921286  0.34550822  0.84007516  1
  In  In71  1  0.15955994  0.83411291  0.67958069  1
  Te  Te72  1  0.06210586  0.07466314  0.11024827  1
  Te  Te73  1  0.06701936  0.08899131  0.42177027  1
  Te  Te74  1  0.07188143  0.07311325  0.74277592  1
  Te  Te75  1  0.07734874  0.43724547  0.08148820  1
  Te  Te76  1  0.07704911  0.43793755  0.41678305  1
  Te  Te77  1  0.07990297  0.41235969  0.74776867  1
  Te  Te78  1  0.06967245  0.75022426  0.08767834  1
  Te  Te79  1  0.08388684  0.75108008  0.39678769  1
  Te  Te80  1  0.07678238  0.73777490  0.75492019  1
  Te  Te81  1  0.40902516  0.08864220  0.09428155  1
  Te  Te82  1  0.41602976  0.08274181  0.42692766  1
  Te  Te83  1  0.40238213  0.07946495  0.75786406  1
  Te  Te84  1  0.43064481  0.41069383  0.08138969  1
  Te  Te85  1  0.40859903  0.41921228  0.42059981  1
  Te  Te86  1  0.43535141  0.43694847  0.74204584  1
  Te  Te87  1  0.43126017  0.76704217  0.05763208  1
  Te  Te88  1  0.42280475  0.75182010  0.40622053  1
  Te  Te89  1  0.41282703  0.76360920  0.75345269  1
  Te  Te90  1  0.76484187  0.06762865  0.04229538  1
  Te  Te91  1  0.74516611  0.08143818  0.42047385  1
  Te  Te92  1  0.74427163  0.05854164  0.75508288  1
  Te  Te93  1  0.74349038  0.41575567  0.10093819  1
  Te  Te94  1  0.76511994  0.40486228  0.42283715  1
  Te  Te95  1  0.75653700  0.41597595  0.75376677  1
  Te  Te96  1  0.76204949  0.75010368  0.07554929  1
  Te  Te97  1  0.72702832  0.76873154  0.40121224  1
  Te  Te98  1  0.72854195  0.77127590  0.77024739  1
  Te  Te99  1  0.06027390  0.24474892  0.23927233  1
  Te  Te100  1  0.07501510  0.24185983  0.57556853  1
  Te  Te101  1  0.08550915  0.24904633  0.91230469  1
  Te  Te102  1  0.11248385  0.57174065  0.21886386  1
  Te  Te103  1  0.05598990  0.58378072  0.58128959  1
  Te  Te104  1  0.09558152  0.59372133  0.91242502  1
  Te  Te105  1  0.09355622  0.92079442  0.24912003  1
  Te  Te106  1  0.06875667  0.91985291  0.59075696  1
  Te  Te107  1  0.07751562  0.92111263  0.92090228  1
  Te  Te108  1  0.39739214  0.23380002  0.23942574  1
  Te  Te109  1  0.41672110  0.23771732  0.58238786  1
  Te  Te110  1  0.41695846  0.23904270  0.90067815  1
  Te  Te111  1  0.41560505  0.58776999  0.23879251  1
  Te  Te112  1  0.40651695  0.56663306  0.56637862  1
  Te  Te113  1  0.41461818  0.57634285  0.91801111  1
  Te  Te114  1  0.41965040  0.91870313  0.24597837  1
  Te  Te115  1  0.42382487  0.93168964  0.59386353  1
  Te  Te116  1  0.42306730  0.89915734  0.91521600  1
  Te  Te117  1  0.73518837  0.23716271  0.25517744  1
  Te  Te118  1  0.77529307  0.25308673  0.56948478  1
  Te  Te119  1  0.73999754  0.28055332  0.93511708  1
  Te  Te120  1  0.73781472  0.57673771  0.25100356  1
  Te  Te121  1  0.75245500  0.60311999  0.59696502  1
  Te  Te122  1  0.75157552  0.58433462  0.91359279  1
  Te  Te123  1  0.77461602  0.94030898  0.23190719  1
  Te  Te124  1  0.73201499  0.92516954  0.58768149  1
  Te  Te125  1  0.74239704  0.93029001  0.98283408  1
  Te  Te126  1  0.24708590  0.24936481  0.08326158  1
  Te  Te127  1  0.25415563  0.23431294  0.43264111  1
  Te  Te128  1  0.25416510  0.24309681  0.76240309  1
  Te  Te129  1  0.22930356  0.60215474  0.11550345  1
  Te  Te130  1  0.24433258  0.56528345  0.42250241  1
  Te  Te131  1  0.24520609  0.59741441  0.75921346  1
  Te  Te132  1  0.24141389  0.92978774  0.09064325  1
  Te  Te133  1  0.23421446  0.90211882  0.40389803  1
  Te  Te134  1  0.26387427  0.91710428  0.74292740  1
  Te  Te135  1  0.60186148  0.24063153  0.08429649  1
  Te  Te136  1  0.60163858  0.23090281  0.44782818  1
  Te  Te137  1  0.58472208  0.24562528  0.75077224  1
  Te  Te138  1  0.58869392  0.58386862  0.08949508  1
  Te  Te139  1  0.59623464  0.59951280  0.41345897  1
  Te  Te140  1  0.57885016  0.59397211  0.72551135  1
  Te  Te141  1  0.59343368  0.91533788  0.03465647  1
  Te  Te142  1  0.61901485  0.87689851  0.43883885  1
  Te  Te143  1  0.61420715  0.93408613  0.74597543  1
  Te  Te144  1  0.90944621  0.22514926  0.07971455  1
  Te  Te145  1  0.90907968  0.25079979  0.43589373  1
  Te  Te146  1  0.89833393  0.25042936  0.76209107  1
  Te  Te147  1  0.92877983  0.57964900  0.08662706  1
  Te  Te148  1  0.91905033  0.59674214  0.41976660  1
  Te  Te149  1  0.93016137  0.58264898  0.75279675  1
  Te  Te150  1  0.88859934  0.90964958  0.07899981  1
  Te  Te151  1  0.89399186  0.90555079  0.40828348  1
  Te  Te152  1  0.89216871  0.94262540  0.75959316  1
  Te  Te153  1  0.23836079  0.08669203  0.23915105  1
  Te  Te154  1  0.26125050  0.06989782  0.58612778  1
  Te  Te155  1  0.25341681  0.09362350  0.91770299  1
  Te  Te156  1  0.22387493  0.42463691  0.27269679  1
  Te  Te157  1  0.25037679  0.41326869  0.58997053  1
  Te  Te158  1  0.23468444  0.44268754  0.95173149  1
  Te  Te159  1  0.23001348  0.75212861  0.24455744  1
  Te  Te160  1  0.25258455  0.75247052  0.57434902  1
  Te  Te161  1  0.25676995  0.75167172  0.90916278  1
  Te  Te162  1  0.57033345  0.08219323  0.25635718  1
  Te  Te163  1  0.60955800  0.07263911  0.58449280  1
  Te  Te164  1  0.59679627  0.08263718  0.91012679  1
  Te  Te165  1  0.59470279  0.42814258  0.24374196  1
  Te  Te166  1  0.58971227  0.42719453  0.58936463  1
  Te  Te167  1  0.62646008  0.39058402  0.93182146  1
  Te  Te168  1  0.61853189  0.75070743  0.24761442  1
  Te  Te169  1  0.60442299  0.74470052  0.59597543  1
  Te  Te170  1  0.60739641  0.77364473  0.88226109  1
  Te  Te171  1  0.91177782  0.07648327  0.23070371  1
  Te  Te172  1  0.93601047  0.08164332  0.59162609  1
  Te  Te173  1  0.87935598  0.08174595  0.91707948  1
  Te  Te174  1  0.93020387  0.42089820  0.24108141  1
  Te  Te175  1  0.92648228  0.42355036  0.56050154  1
  Te  Te176  1  0.90087267  0.39197120  0.91450132  1
  Te  Te177  1  0.91178856  0.75118370  0.26857010  1
  Te  Te178  1  0.91608124  0.74937642  0.59364235  1
  Te  Te179  1  0.89925067  0.77834866  0.91902053  1
