# generated using pymatgen
data_In2Te3
_symmetry_space_group_name_H-M   'P 1'
_cell_length_a   18.77409425
_cell_length_b   18.79027410
_cell_length_c   18.79216522
_cell_angle_alpha   90.01432364
_cell_angle_beta   90.07093482
_cell_angle_gamma   89.98918669
_symmetry_Int_Tables_number   1
_chemical_formula_structural   In2Te3
_chemical_formula_sum   'In72 Te108'
_cell_volume   6629.31380029
_cell_formula_units_Z   36
loop_
 _symmetry_equiv_pos_site_id
 _symmetry_equiv_pos_as_xyz
  1  'x, y, z'
loop_
 _atom_site_type_symbol
 _atom_site_label
 _atom_site_symmetry_multiplicity
 _atom_site_fract_x
 _atom_site_fract_y
 _atom_site_fract_z
 _atom_site_occupancy
  In  In0  1  0.33772882  0.15326210  0.13254195  1
  In  In1  1  0.66194076  0.82270596  0.49050164  1
  In  In2  1  0.50287402  0.51257078  0.68425217  1
  In  In3  1  0.83059135  0.50617560  0.66682063  1
  In  In4  1  0.33603460  0.03631529  0.34768610  1
  In  In5  1  0.01989105  0.17687721  0.17544148  1
  In  In6  1  0.63599027  0.81253057  0.85678416  1
  In  In7  1  0.16012557  0.47902740  0.01953525  1
  In  In8  1  0.01205333  0.49575500  0.85395504  1
  In  In9  1  0.16732688  0.66946963  0.14252565  1
  In  In10  1  0.47703906  0.18354100  0.65044232  1
  In  In11  1  0.32651861  0.32481969  0.00106013  1
  In  In12  1  0.02762551  0.32968545  0.69655020  1
  In  In13  1  0.33541272  0.65102920  0.72943594  1
  In  In14  1  0.00677388  0.67059134  0.67767951  1
  In  In15  1  0.19593716  -0.00070498  0.15215369  1
  In  In16  1  0.66976042  0.16242682  0.15916428  1
  In  In17  1  0.48432989  0.17976673  0.30621692  1
  In  In18  1  0.51563206  0.34274827  0.18263108  1
  In  In19  1  0.34649063  0.82997681  0.85680611  1
  In  In20  1  0.49986565  0.65283369  0.15736595  1
  In  In21  1  0.49519155  0.51350523  -0.01198977  1
  In  In22  1  0.66357939  0.32414986  0.00953490  1
  In  In23  1  0.51094456  -0.01235673  0.84140240  1
  In  In24  1  0.48782991  -0.00253935  0.51213372  1
  In  In25  1  0.85197600  0.34281148  0.48876499  1
  In  In26  1  0.17624887  0.84276462  0.32963703  1
  In  In27  1  0.66593455  0.65990636  0.34686272  1
  In  In28  1  0.30755663  0.48308254  0.52001127  1
  In  In29  1  0.15572949  0.84598373  0.68462072  1
  In  In30  1  0.02024391  0.01557589  0.35054739  1
  In  In31  1  0.47309153  0.34164603  0.48263398  1
  In  In32  1  0.19301737  0.48475010  0.30313052  1
  In  In33  1  0.33299914  0.65417059  -0.00406091  1
  In  In34  1  0.02595096  0.18205551  0.85752913  1
  In  In35  1  0.01988716  0.49136125  0.46750342  1
  In  In36  1  0.48460498  0.83045342  0.31007174  1
  In  In37  1  0.17266697  0.17554484  0.65952481  1
  In  In38  1  0.84183740  0.49190475  0.31825661  1
  In  In39  1  0.69377044  0.34482784  0.67394694  1
  In  In40  1  0.46281078  0.33983089  0.83439325  1
  In  In41  1  0.52982606  0.64713814  0.50982783  1
  In  In42  1  0.30088123  0.13981347  0.86720561  1
  In  In43  1  0.00724860  0.81317402  0.14198185  1
  In  In44  1  0.85879318  0.00112779  0.51008520  1
  In  In45  1  0.02053431  0.84101697  0.87561914  1
  In  In46  1  0.82232293  0.66594358  0.13888275  1
  In  In47  1  0.82536625  0.52080827  -0.01343432  1
  In  In48  1  0.68949018  -0.00122361  0.31955770  1
  In  In49  1  -0.01235405  0.86251431  0.51178703  1
  In  In50  1  0.84076467  0.82728842  -0.00193365  1
  In  In51  1  0.32149082  0.01149537  0.66716095  1
  In  In52  1  0.65970968  0.66159397  0.69188593  1
  In  In53  1  0.00130342  0.00911331  0.67753659  1
  In  In54  1  0.65418643  -0.01785656  0.01741032  1
  In  In55  1  0.17075699  0.33505626  0.84792690  1
  In  In56  1  0.83311302  0.36442596  0.83812101  1
  In  In57  1  0.35566422  0.63764323  0.32557744  1
  In  In58  1  0.15844275  0.68565523  0.51214654  1
  In  In59  1  0.66997334  0.17035831  0.83154087  1
  In  In60  1  0.83447375  0.18637082  0.31377847  1
  In  In61  1  0.82509786  -0.02340011  0.15587028  1
  In  In62  1  0.63516542  0.16631540  0.49086801  1
  In  In63  1  0.66149906  0.50851590  0.49596516  1
  In  In64  1  0.33527560  0.84495180  0.50072628  1
  In  In65  1  0.83441268  0.32245643  0.14824027  1
  In  In66  1  0.83543108  0.14935722  0.66552877  1
  In  In67  1  -0.01499791  0.65375080  0.32423196  1
  In  In68  1  0.01290524  0.33819465  0.31934553  1
  In  In69  1  0.32814659  0.83057576  0.13596668  1
  In  In70  1  0.85634072  0.00139050  0.83278836  1
  In  In71  1  0.80842674  0.82165872  0.66223061  1
  Te  Te72  1  0.09201513  0.08235547  0.08075744  1
  Te  Te73  1  0.10437991  0.11796991  0.41334658  1
  Te  Te74  1  0.09954461  0.08766242  0.76198762  1
  Te  Te75  1  0.06186590  0.43091327  0.11777553  1
  Te  Te76  1  0.12289141  0.39778691  0.41046216  1
  Te  Te77  1  0.11567659  0.44599551  0.74385733  1
  Te  Te78  1  0.09128834  0.74539914  0.03929000  1
  Te  Te79  1  0.07109255  0.76041872  0.40901557  1
  Te  Te80  1  0.09611529  0.74216461  0.77691587  1
  Te  Te81  1  0.41606903  0.04008086  0.07096321  1
  Te  Te82  1  0.43037510  0.11773305  0.43743127  1
  Te  Te83  1  0.41685593  0.09252495  0.75988537  1
  Te  Te84  1  0.42500648  0.41148124  0.07752184  1
  Te  Te85  1  0.37146154  0.41456448  0.40439659  1
  Te  Te86  1  0.39710600  0.42052868  0.73104562  1
  Te  Te87  1  0.43319109  0.75194131  0.06041886  1
  Te  Te88  1  0.42284944  0.74336158  0.42391047  1
  Te  Te89  1  0.43471039  0.75183756  0.76640702  1
  Te  Te90  1  0.76133235  0.08401475  0.06757524  1
  Te  Te91  1  0.75530905  0.09532127  0.42098979  1
  Te  Te92  1  0.74196398  0.06395297  0.74830386  1
  Te  Te93  1  0.74340856  0.42787288  0.08604641  1
  Te  Te94  1  0.74491459  0.41248050  0.40761447  1
  Te  Te95  1  0.72444323  0.45802216  0.77632118  1
  Te  Te96  1  0.72488860  0.75569315  0.06464548  1
  Te  Te97  1  0.76263432  0.74911658  0.41347294  1
  Te  Te98  1  0.75412717  0.74363213  0.78030573  1
  Te  Te99  1  0.12027915  0.27572586  0.23267252  1
  Te  Te100  1  0.09553748  0.27325248  0.57500958  1
  Te  Te101  1  0.10226594  0.26224712  0.95887750  1
  Te  Te102  1  0.08767635  0.57985959  0.24035719  1
  Te  Te103  1  0.08138633  0.57434920  0.58125032  1
  Te  Te104  1  0.10023762  0.58471596  0.93250674  1
  Te  Te105  1  0.08149825  0.91947686  0.23807676  1
  Te  Te106  1  0.09908048  0.94053527  0.57830491  1
  Te  Te107  1  0.11301981  0.94836263  0.91440442  1
  Te  Te108  1  0.38201094  0.27196185  0.24217238  1
  Te  Te109  1  0.37985156  0.27797241  0.58430151  1
  Te  Te110  1  0.41533276  0.22592408  0.92476716  1
  Te  Te111  1  0.41990810  0.54499838  0.22797472  1
  Te  Te112  1  0.40839931  0.58931136  0.58142038  1
  Te  Te113  1  0.40926971  0.58319776  0.88711630  1
  Te  Te114  1  0.38307199  0.92254387  0.24749918  1
  Te  Te115  1  0.41969456  0.90621214  0.61304640  1
  Te  Te116  1  0.41161484  0.93747401  0.94329350  1
  Te  Te117  1  0.72846790  0.27299270  0.24821794  1
  Te  Te118  1  0.75284479  0.24621574  0.57163783  1
  Te  Te119  1  0.76425511  0.25232685  0.91887048  1
  Te  Te120  1  0.74535728  0.58059187  0.24179164  1
  Te  Te121  1  0.74754567  0.60178027  0.58112908  1
  Te  Te122  1  0.72832697  0.56862748  0.88630388  1
  Te  Te123  1  0.73202626  0.89022557  0.23030211  1
  Te  Te124  1  0.74184909  0.92725896  0.57442903  1
  Te  Te125  1  0.74925267  0.91916975  0.91084296  1
  Te  Te126  1  0.22695842  0.23692241  0.06955622  1
  Te  Te127  1  0.24520641  0.17469911  0.41343069  1
  Te  Te128  1  0.26060470  0.24552667  0.76421868  1
  Te  Te129  1  0.26766937  0.56470969  0.10025797  1
  Te  Te130  1  0.23703787  0.59434871  0.41586981  1
  Te  Te131  1  0.22276676  0.56232355  0.73953895  1
  Te  Te132  1  0.22281580  0.89302457  0.04981682  1
  Te  Te133  1  0.24160365  0.93906652  0.42670067  1
  Te  Te134  1  0.25253138  0.92523357  0.77098473  1
  Te  Te135  1  0.56099296  0.23594082  0.08099939  1
  Te  Te136  1  0.57778885  0.26930445  0.39540201  1
  Te  Te137  1  0.58166859  0.26094217  0.74327663  1
  Te  Te138  1  0.60084044  0.58388239  0.06857601  1
  Te  Te139  1  0.55479425  0.55023169  0.39174868  1
  Te  Te140  1  0.57177749  0.59233809  0.79117112  1
  Te  Te141  1  0.53621069  0.94322921  0.09559877  1
  Te  Te142  1  0.57122037  0.92456362  0.40618316  1
  Te  Te143  1  0.59293413  0.90554198  0.75067375  1
  Te  Te144  1  0.92020706  0.22718603  0.07704270  1
  Te  Te145  1  0.93733486  0.24198205  0.41260836  1
  Te  Te146  1  0.90620141  0.25152665  0.75450618  1
  Te  Te147  1  0.92681974  0.58968622  0.06920552  1
  Te  Te148  1  0.90169270  0.57980671  0.42907104  1
  Te  Te149  1  0.91801699  0.58243757  0.76581319  1
  Te  Te150  1  0.93693357  0.92571010  0.06522699  1
  Te  Te151  1  0.90721763  0.91665709  0.39349679  1
  Te  Te152  1  0.92425795  0.89556091  0.74234531  1
  Te  Te153  1  0.24169392  0.10800022  0.25085506  1
  Te  Te154  1  0.26106890  0.10009877  0.56277601  1
  Te  Te155  1  0.20939199  0.06466155  0.96027491  1
  Te  Te156  1  0.25360779  0.36699117  0.23508286  1
  Te  Te157  1  0.23748277  0.36680789  0.57791507  1
  Te  Te158  1  0.26605171  0.43343926  0.91352751  1
  Te  Te159  1  0.26004513  0.74056928  0.25271684  1
  Te  Te160  1  0.25675288  0.75796163  0.60294289  1
  Te  Te161  1  0.24308232  0.74013518  0.91429844  1
  Te  Te162  1  0.57872335  0.07433060  0.24478292  1
  Te  Te163  1  0.58174271  0.07886198  0.60338756  1
  Te  Te164  1  0.58455832  0.09103772  0.92723533  1
  Te  Te165  1  0.56449201  0.46172584  0.25402755  1
  Te  Te166  1  0.58251287  0.41149292  0.58585836  1
  Te  Te167  1  0.57614876  0.40412766  0.91310397  1
  Te  Te168  1  0.58940859  0.74531042  0.24192682  1
  Te  Te169  1  0.57865916  0.75774880  0.60076657  1
  Te  Te170  1  0.60559662  0.71979163  0.96850062  1
  Te  Te171  1  0.91232698  0.07480166  0.24594910  1
  Te  Te172  1  0.94909628  0.10755488  0.57269518  1
  Te  Te173  1  0.92963074  0.09107577  0.92302481  1
  Te  Te174  1  0.93752761  0.42680227  0.21596191  1
  Te  Te175  1  0.93152070  0.41539635  0.59666189  1
  Te  Te176  1  0.93014113  0.40648468  0.94560348  1
  Te  Te177  1  0.90577688  0.75124319  0.23776214  1
  Te  Te178  1  0.91502392  0.74699076  0.58030168  1
  Te  Te179  1  0.91941634  0.73931580  0.90973603  1
