# generated using pymatgen
data_In2Te3
_symmetry_space_group_name_H-M   'P 1'
_cell_length_a   18.86861461
_cell_length_b   18.87077663
_cell_length_c   18.85304267
_cell_angle_alpha   89.93456733
_cell_angle_beta   89.97398654
_cell_angle_gamma   89.92040475
_symmetry_Int_Tables_number   1
_chemical_formula_structural   In2Te3
_chemical_formula_sum   'In72 Te108'
_cell_volume   6712.90485701
_cell_formula_units_Z   36
loop_
 _symmetry_equiv_pos_site_id
 _symmetry_equiv_pos_as_xyz
  1  'x, y, z'
loop_
 _atom_site_type_symbol
 _atom_site_label
 _atom_site_symmetry_multiplicity
 _atom_site_fract_x
 _atom_site_fract_y
 _atom_site_fract_z
 _atom_site_occupancy
  In  In0  1  0.66217721  0.68298560  -0.00904844  1
  In  In1  1  0.00850891  0.50476605  0.17934858  1
  In  In2  1  0.02555101  0.01820889  0.68123861  1
  In  In3  1  0.84723365  0.64976951  0.81091499  1
  In  In4  1  0.48738276  0.33973428  0.51215950  1
  In  In5  1  0.47354325  0.18439161  0.35854425  1
  In  In6  1  -0.01429391  0.32370555  -0.01599994  1
  In  In7  1  0.66046849  0.16014339  0.15614354  1
  In  In8  1  0.00401396  0.46376297  0.79507418  1
  In  In9  1  0.17569147  0.20808923  0.36944942  1
  In  In10  1  0.50554529  0.48554305  -0.03250600  1
  In  In11  1  0.30206034  0.64915129  0.66225260  1
  In  In12  1  0.81607641  0.82652141  0.66989883  1
  In  In13  1  0.49427924  0.82197726  0.34693664  1
  In  In14  1  0.70547575  0.20605564  0.81955367  1
  In  In15  1  0.84207072  0.01182176  0.82066679  1
  In  In16  1  0.48338399  0.67504554  0.16618561  1
  In  In17  1  0.67436111  0.50108918  0.52370028  1
  In  In18  1  0.85641485  0.32491939  0.16640820  1
  In  In19  1  0.82332906  0.19132261  0.63709003  1
  In  In20  1  0.82740906  -0.02230441  0.51399771  1
  In  In21  1  0.50681891  0.33441634  0.81814383  1
  In  In22  1  0.33031366  0.83980025  0.53059249  1
  In  In23  1  -0.02593066  0.82962493  0.18284217  1
  In  In24  1  0.15715306  0.65985716  0.18793819  1
  In  In25  1  0.65997722  0.84476642  0.18298445  1
  In  In26  1  0.27626905  0.49631329  0.50460884  1
  In  In27  1  0.51099804  0.01091712  0.47826882  1
  In  In28  1  -0.00021511  0.49875778  0.56264115  1
  In  In29  1  0.70048253  0.49428311  0.79278812  1
  In  In30  1  0.65659011  0.34830056  0.35483480  1
  In  In31  1  0.68166260  0.01735412  -0.03320464  1
  In  In32  1  0.14506964  0.67011827  0.83751890  1
  In  In33  1  0.01177836  0.20194954  0.52021458  1
  In  In34  1  0.00688323  0.35156430  0.34647401  1
  In  In35  1  0.32960371  0.34954459  -0.02057125  1
  In  In36  1  0.34052599  0.83362184  0.84507769  1
  In  In37  1  0.67514839  -0.00266551  0.33681918  1
  In  In38  1  0.49067333  0.16607797  0.65459711  1
  In  In39  1  0.31689865  -0.02705527  -0.03367127  1
  In  In40  1  0.34235149  0.65257705  0.03611354  1
  In  In41  1  0.68516368  0.50723818  0.15694343  1
  In  In42  1  -0.00012826  0.66397549  0.00056153  1
  In  In43  1  0.15585061  0.82322780  0.34156230  1
  In  In44  1  0.00622989  0.01022675  -0.02718485  1
  In  In45  1  0.52230579  0.83404747  0.68369049  1
  In  In46  1  0.83845873  0.16169264  0.33698119  1
  In  In47  1  0.31048520  0.19422979  0.80009658  1
  In  In48  1  0.17507905  0.85959614  0.00124363  1
  In  In49  1  0.31867156  0.81771710  0.13421970  1
  In  In50  1  0.50947127  0.64204746  0.81425920  1
  In  In51  1  0.15167145  0.02161870  0.80759684  1
  In  In52  1  0.02340136  0.17677800  0.79105100  1
  In  In53  1  0.83335144  0.64739346  0.48413510  1
  In  In54  1  0.17777798  0.83951296  0.67245535  1
  In  In55  1  0.15067527  0.33544885  0.18426189  1
  In  In56  1  0.50545058  0.49890170  0.34929811  1
  In  In57  1  0.51859954  -0.00008140  0.15155395  1
  In  In58  1  0.49849492  0.67684804  0.53566030  1
  In  In59  1  0.33514305  0.16577284  0.19120489  1
  In  In60  1  0.00457626  0.81584071  0.50892512  1
  In  In61  1  0.31651071  0.48574769  0.18667062  1
  In  In62  1  0.79685221  -0.00400782  0.16362356  1
  In  In63  1  0.81746829  0.82612744  -0.00190874  1
  In  In64  1  0.01305118  0.01472534  0.34820316  1
  In  In65  1  0.86098238  0.49326486  -0.00527558  1
  In  In66  1  0.52124185  0.14493838  -0.01674032  1
  In  In67  1  0.34167363  0.00479456  0.32463246  1
  In  In68  1  0.81349782  0.68529642  0.26897259  1
  In  In69  1  0.49757349  0.29764490  0.16190721  1
  In  In70  1  0.30935644  0.46953187  0.80653806  1
  In  In71  1  0.15146382  0.17748908  0.00874528  1
  Te  Te72  1  0.08216434  0.07175522  0.08267672  1
  Te  Te73  1  0.09677879  0.09768005  0.44569781  1
  Te  Te74  1  0.13501331  0.12949810  0.69832239  1
  Te  Te75  1  0.07257794  0.41164532  0.07874147  1
  Te  Te76  1  0.08310457  0.41549029  0.45864087  1
  Te  Te77  1  0.09959122  0.38147955  0.71055419  1
  Te  Te78  1  0.08624490  0.75910728  0.08514732  1
  Te  Te79  1  0.06845113  0.72485670  0.40966212  1
  Te  Te80  1  0.07527110  0.76489057  0.74977322  1
  Te  Te81  1  0.41674975  0.09115228  0.08409228  1
  Te  Te82  1  0.38386487  0.09308320  0.44264439  1
  Te  Te83  1  0.39866252  0.09157024  0.74455574  1
  Te  Te84  1  0.42022404  0.41920268  0.08329330  1
  Te  Te85  1  0.39769625  0.42688300  0.42692811  1
  Te  Te86  1  0.43265050  0.43239150  0.73452648  1
  Te  Te87  1  0.43882633  0.77037590  0.05541365  1
  Te  Te88  1  0.40346078  0.73930339  0.43243780  1
  Te  Te89  1  0.40006838  0.73792982  0.73923854  1
  Te  Te90  1  0.76701575  0.10323210  0.06089692  1
  Te  Te91  1  0.74828064  0.08786982  0.43402272  1
  Te  Te92  1  0.75265883  0.08973539  0.72611815  1
  Te  Te93  1  0.76277643  0.40591809  0.07483560  1
  Te  Te94  1  0.75842594  0.43092557  0.42038516  1
  Te  Te95  1  0.77094915  0.39420302  0.70483256  1
  Te  Te96  1  0.74944216  0.74062380  0.10486081  1
  Te  Te97  1  0.76809212  0.74670378  0.39443426  1
  Te  Te98  1  0.73705126  0.72687491  0.74874369  1
  Te  Te99  1  0.06461235  0.23852019  0.26198042  1
  Te  Te100  1  0.11105406  0.30611869  0.56912441  1
  Te  Te101  1  0.09570418  0.26263871  0.89722702  1
  Te  Te102  1  0.10978493  0.55121136  0.28366208  1
  Te  Te103  1  0.11740866  0.58918077  0.58860810  1
  Te  Te104  1  0.05964817  0.56221512  0.90629524  1
  Te  Te105  1  0.08048381  0.91719377  0.24789498  1
  Te  Te106  1  0.08890768  0.92679806  0.57056142  1
  Te  Te107  1  0.08428560  0.90912589  0.88947901  1
  Te  Te108  1  0.39258973  0.27999356  0.27334738  1
  Te  Te109  1  0.38645715  0.25223301  0.58371777  1
  Te  Te110  1  0.41899566  0.24469237  0.91315491  1
  Te  Te111  1  0.40927254  0.58211905  0.26098400  1
  Te  Te112  1  0.39526854  0.57111998  0.57407897  1
  Te  Te113  1  0.40030558  0.58131527  0.91214075  1
  Te  Te114  1  0.42798252  0.90942078  0.23781824  1
  Te  Te115  1  0.44452190  0.92214833  0.58593081  1
  Te  Te116  1  0.44506339  0.93020867  0.90128203  1
  Te  Te117  1  0.73941152  0.25048893  0.25195980  1
  Te  Te118  1  0.75965286  0.31113538  0.57042384  1
  Te  Te119  1  0.73637031  0.25644931  0.95193837  1
  Te  Te120  1  0.73652243  0.56047146  0.28345936  1
  Te  Te121  1  0.75849218  0.59451227  0.60165745  1
  Te  Te122  1  0.75138880  0.57908419  0.92275571  1
  Te  Te123  1  0.77222947  0.89585386  0.27442291  1
  Te  Te124  1  0.72323201  0.91613441  0.59685384  1
  Te  Te125  1  0.75138063  0.90706746  0.88689278  1
  Te  Te126  1  0.25746369  0.25999530  0.09204630  1
  Te  Te127  1  0.27870483  0.23847287  0.46984806  1
  Te  Te128  1  0.26095613  0.32776893  0.75436636  1
  Te  Te129  1  0.22893406  0.56641084  0.09030748  1
  Te  Te130  1  0.23249920  0.56479432  0.38081699  1
  Te  Te131  1  0.18754005  0.57173613  0.72627627  1
  Te  Te132  1  0.24951683  0.94832038  0.10212926  1
  Te  Te133  1  0.25782061  0.91180717  0.41123797  1
  Te  Te134  1  0.27598404  0.93908802  0.75119349  1
  Te  Te135  1  0.60139762  0.25980873  0.04920800  1
  Te  Te136  1  0.58584792  0.24514680  0.44097460  1
  Te  Te137  1  0.59736045  0.25701012  0.72478180  1
  Te  Te138  1  0.57156359  0.58074386  0.07600114  1
  Te  Te139  1  0.58261794  0.59380609  0.43517375  1
  Te  Te140  1  0.58240872  0.55242417  0.72027395  1
  Te  Te141  1  0.60543476  0.91825953  0.05948832  1
  Te  Te142  1  0.60002549  0.89758879  0.42489530  1
  Te  Te143  1  0.55434976  0.93111116  0.78787805  1
  Te  Te144  1  0.93786939  0.23144779  0.08857041  1
  Te  Te145  1  0.90872186  0.26279008  0.42525621  1
  Te  Te146  1  0.92788338  0.26646857  0.71697399  1
  Te  Te147  1  0.91024420  0.59153616  0.09968718  1
  Te  Te148  1  0.93397070  0.54734625  0.43863052  1
  Te  Te149  1  0.93304099  0.57006363  0.71894253  1
  Te  Te150  1  0.91246213  0.92024514  0.07166417  1
  Te  Te151  1  0.92549664  0.91116264  0.41826370  1
  Te  Te152  1  0.92534976  0.91746537  0.73678889  1
  Te  Te153  1  0.23039727  0.09555884  0.27243391  1
  Te  Te154  1  0.24218601  -0.03513834  0.60100700  1
  Te  Te155  1  0.24752691  0.09759649  0.91244139  1
  Te  Te156  1  0.22678592  0.41695174  0.28528929  1
  Te  Te157  1  0.23494094  0.40367551  0.61603946  1
  Te  Te158  1  0.22698275  0.43828795  0.92415405  1
  Te  Te159  1  0.26274530  0.74722864  0.25401284  1
  Te  Te160  1  0.22214508  0.73425532  0.56410460  1
  Te  Te161  1  0.24850909  0.73784140  0.93164780  1
  Te  Te162  1  0.56779308  0.09251732  0.26834527  1
  Te  Te163  1  0.58842323  0.08573422  0.57783167  1
  Te  Te164  1  0.59793727  0.09332375  0.86508237  1
  Te  Te165  1  0.57816573  0.41043089  0.23660124  1
  Te  Te166  1  0.56855593  0.42738138  0.60152129  1
  Te  Te167  1  0.61529483  0.41325781  0.89436165  1
  Te  Te168  1  0.58613051  0.73545474  0.26013980  1
  Te  Te169  1  0.61019536  0.74319160  0.60721623  1
  Te  Te170  1  0.58003754  0.74818346  0.88817696  1
  Te  Te171  1  0.90870594  0.06552103  0.24505260  1
  Te  Te172  1  0.92369839  0.08333143  0.58043202  1
  Te  Te173  1  0.92673817  0.11362537  0.89404728  1
  Te  Te174  1  0.90516455  0.43067079  0.26296677  1
  Te  Te175  1  0.89548335  0.38496905  0.60828686  1
  Te  Te176  1  0.89633924  0.39589332  0.88359638  1
  Te  Te177  1  0.95884287  0.71617255  0.27687094  1
  Te  Te178  1  0.90926002  0.73533551  0.59127706  1
  Te  Te179  1  0.91429431  0.74968785  0.90869032  1
