# generated using pymatgen
data_In2Te3
_symmetry_space_group_name_H-M   'P 1'
_cell_length_a   18.96882692
_cell_length_b   18.98578336
_cell_length_c   18.97066425
_cell_angle_alpha   90.05933315
_cell_angle_beta   90.08572989
_cell_angle_gamma   89.93508469
_symmetry_Int_Tables_number   1
_chemical_formula_structural   In2Te3
_chemical_formula_sum   'In72 Te108'
_cell_volume   6832.04212854
_cell_formula_units_Z   36
loop_
 _symmetry_equiv_pos_site_id
 _symmetry_equiv_pos_as_xyz
  1  'x, y, z'
loop_
 _atom_site_type_symbol
 _atom_site_label
 _atom_site_symmetry_multiplicity
 _atom_site_fract_x
 _atom_site_fract_y
 _atom_site_fract_z
 _atom_site_occupancy
  In  In0  1  0.46820594  0.35866181  0.15552696  1
  In  In1  1  0.17696363  -0.00902269  0.51142463  1
  In  In2  1  0.16299668  0.68787966  0.87365955  1
  In  In3  1  0.82209309  0.16399327  0.00524416  1
  In  In4  1  0.01052323  0.66941347  0.68510935  1
  In  In5  1  0.66907578  0.84137687  0.86258881  1
  In  In6  1  0.66472897  0.49752373  0.82659328  1
  In  In7  1  0.32665149  0.01644069  0.32753469  1
  In  In8  1  0.29521068  0.48845193  0.46251130  1
  In  In9  1  0.48196782  -0.00630618  0.85921980  1
  In  In10  1  0.18549994  0.83028467  0.66891256  1
  In  In11  1  0.82990846  0.52728203  0.64410936  1
  In  In12  1  0.66047746  -0.01445079  0.67712067  1
  In  In13  1  0.30772247  0.32991785  0.31497817  1
  In  In14  1  0.34118303  0.33320271  0.67046072  1
  In  In15  1  0.65820033  0.49357031  0.16875641  1
  In  In16  1  0.00410332  0.48266826  0.49173764  1
  In  In17  1  0.03556924  0.64846717  0.32443485  1
  In  In18  1  0.32918162  0.16100905  0.85082691  1
  In  In19  1  -0.00470750  0.31042884  0.00798431  1
  In  In20  1  0.17044477  0.16520616  0.32644669  1
  In  In21  1  0.84930149  0.85146881  -0.02854742  1
  In  In22  1  0.19851006  0.80964607  0.33317510  1
  In  In23  1  0.85645695  0.70046082  0.15689616  1
  In  In24  1  0.33465725  0.33281623  -0.01626273  1
  In  In25  1  0.35581544  0.80513974  0.52058672  1
  In  In26  1  0.67321011  0.50703152  0.49295982  1
  In  In27  1  0.65898871  0.83075927  0.50110531  1
  In  In28  1  0.15636071  0.17120869  0.67214792  1
  In  In29  1  0.65933685  -0.00630917  0.28921012  1
  In  In30  1  0.48603249  0.83293909  -0.01166072  1
  In  In31  1  0.82956485  0.03319215  0.49836088  1
  In  In32  1  0.01049386  0.35584242  0.66184919  1
  In  In33  1  0.83083991  0.48911881  0.03505654  1
  In  In34  1  0.83634365  -0.00015496  0.14698338  1
  In  In35  1  0.48648307  -0.00399576  0.53217852  1
  In  In36  1  0.50233527  0.15682839  0.32279090  1
  In  In37  1  0.87703217  0.84643164  0.73407116  1
  In  In38  1  0.65567879  0.14235231  0.46635747  1
  In  In39  1  0.02832997  0.50276986  0.15501623  1
  In  In40  1  0.82548561  0.31802717  0.44842486  1
  In  In41  1  0.48806661  0.54943868  0.68405640  1
  In  In42  1  0.85549246  0.32961384  0.83702818  1
  In  In43  1  0.85678082  0.80228611  0.33493894  1
  In  In44  1  0.66678834  0.64281743  0.32828289  1
  In  In45  1  0.17936988  0.50782107  -0.00032148  1
  In  In46  1  0.84426820  0.48670929  0.33766805  1
  In  In47  1  0.03797928  0.33440354  0.31901830  1
  In  In48  1  0.32544668  0.67583267  0.01838369  1
  In  In49  1  0.64104741  0.15655860  0.82576650  1
  In  In50  1  0.82275387  0.66668853  0.84663903  1
  In  In51  1  0.35010457  0.13130916  0.12443493  1
  In  In52  1  0.14108605  -0.03452567  0.12526130  1
  In  In53  1  0.65968137  0.84530798  0.13535188  1
  In  In54  1  0.67068705  0.31465228  0.66262883  1
  In  In55  1  0.30589919  0.01164115  0.69268605  1
  In  In56  1  0.32150059  0.85707965  0.16689148  1
  In  In57  1  0.15997396  0.15025757  -0.00585057  1
  In  In58  1  0.84177210  0.64996676  0.54333277  1
  In  In59  1  0.47744886  0.66664905  0.51268210  1
  In  In60  1  0.65336414  0.33734811  0.00735559  1
  In  In61  1  0.81374077  0.15373000  0.67910306  1
  In  In62  1  -0.00604663  0.00592670  0.30699707  1
  In  In63  1  -0.01917380  0.15961598  0.51152218  1
  In  In64  1  0.50154810  0.52072593  0.00314130  1
  In  In65  1  0.01353480  0.14309656  0.84161621  1
  In  In66  1  0.48955323  0.33380848  0.51191670  1
  In  In67  1  0.46759308  0.62229002  0.18696930  1
  In  In68  1  0.01669658  0.83856263  0.49405733  1
  In  In69  1  0.17835913  0.50825794  0.67801058  1
  In  In70  1  0.33388339  0.52213696  0.83451964  1
  In  In71  1  0.50261173  0.83340114  0.33671749  1
  Te  Te72  1  0.06362762  0.08361599  0.08429136  1
  Te  Te73  1  0.07930629  0.07061918  0.42558248  1
  Te  Te74  1  0.10746559  0.06571980  0.76108072  1
  Te  Te75  1  0.10096261  0.39878393  0.07433983  1
  Te  Te76  1  0.11108425  0.41508873  0.41898727  1
  Te  Te77  1  0.07787522  0.43809223  0.75996020  1
  Te  Te78  1  0.04613040  0.81279144  0.01377986  1
  Te  Te79  1  0.10711401  0.73685879  0.42951846  1
  Te  Te80  1  0.08289123  0.76873153  0.76927867  1
  Te  Te81  1  0.44956031  0.05455712  0.04682468  1
  Te  Te82  1  0.41829559  0.08468169  0.42727600  1
  Te  Te83  1  0.42178101  0.08572777  0.75440652  1
  Te  Te84  1  0.38462844  0.44982907  0.06822228  1
  Te  Te85  1  0.40919799  0.40463673  0.40594085  1
  Te  Te86  1  0.42352479  0.43060625  0.75441703  1
  Te  Te87  1  0.42419792  0.74954402  0.11621323  1
  Te  Te88  1  0.40409778  0.73239926  0.38814537  1
  Te  Te89  1  0.46887292  0.69814390  0.70282942  1
  Te  Te90  1  0.72942984  0.06772251  0.06968114  1
  Te  Te91  1  0.75979413  0.08029655  0.37455921  1
  Te  Te92  1  0.74895604  0.05954981  0.77656045  1
  Te  Te93  1  0.75086475  0.38749973  0.11431413  1
  Te  Te94  1  0.71859543  0.41695681  0.37910189  1
  Te  Te95  1  0.76272354  0.41243554  0.74415417  1
  Te  Te96  1  0.75698275  0.75844940  0.06044748  1
  Te  Te97  1  0.75057251  0.73643212  0.42533560  1
  Te  Te98  1  0.75520283  0.76547522  0.75345149  1
  Te  Te99  1  0.10969424  0.24968412  0.22430567  1
  Te  Te100  1  0.08050568  0.25730307  0.57022420  1
  Te  Te101  1  0.09016248  0.25567730  0.90358581  1
  Te  Te102  1  0.12301220  0.54277401  0.26628872  1
  Te  Te103  1  0.07826996  0.58023880  0.58364972  1
  Te  Te104  1  0.07972531  0.57548557  0.91542208  1
  Te  Te105  1  0.10630645  0.91615262  0.26608683  1
  Te  Te106  1  0.07993332  0.92183168  0.60309280  1
  Te  Te107  1  0.05034516  0.94068991  0.94743462  1
  Te  Te108  1  0.40174777  0.23167293  0.23501586  1
  Te  Te109  1  0.42595257  0.23702179  0.59914088  1
  Te  Te110  1  0.43063087  0.24234689  0.92103986  1
  Te  Te111  1  0.35265824  0.54976567  0.24855781  1
  Te  Te112  1  0.39189305  0.55347956  0.56722747  1
  Te  Te113  1  0.41996439  0.61591995  0.91584750  1
  Te  Te114  1  0.42705768  0.93325605  0.25015381  1
  Te  Te115  1  0.40036459  0.91093979  0.61933432  1
  Te  Te116  1  0.39693851  0.87384155  0.87763361  1
  Te  Te117  1  0.79217569  0.27792659  0.31163343  1
  Te  Te118  1  0.75228066  0.23213651  0.56063027  1
  Te  Te119  1  0.74029245  0.25718559  0.90198422  1
  Te  Te120  1  0.77940835  0.59132770  0.23906521  1
  Te  Te121  1  0.70583181  0.60565272  0.60228953  1
  Te  Te122  1  0.74679914  0.56720723  0.93409157  1
  Te  Te123  1  0.76874512  0.89151951  0.24640831  1
  Te  Te124  1  0.75420615  0.92313851  0.57488720  1
  Te  Te125  1  0.73663612  0.94467409  0.94459401  1
  Te  Te126  1  0.25686175  0.24027382  0.07400847  1
  Te  Te127  1  0.26003486  0.23587292  0.41665650  1
  Te  Te128  1  0.24755496  0.25430212  0.75950844  1
  Te  Te129  1  0.20813180  0.62115384  0.09275464  1
  Te  Te130  1  0.28634472  0.60684646  0.37532251  1
  Te  Te131  1  0.24550609  0.61743069  0.75954367  1
  Te  Te132  1  0.26506068  0.93141145  0.04933002  1
  Te  Te133  1  0.27542802  0.91094874  0.42676509  1
  Te  Te134  1  0.24699705  0.90754041  0.77880918  1
  Te  Te135  1  0.55850199  0.26238273  0.08880970  1
  Te  Te136  1  0.57805455  0.25600452  0.40888708  1
  Te  Te137  1  0.56934743  0.25950052  0.75090306  1
  Te  Te138  1  0.58928142  0.60403251  0.09495873  1
  Te  Te139  1  0.56250688  0.58020010  0.41704530  1
  Te  Te140  1  0.58492630  0.61442259  0.77949206  1
  Te  Te141  1  0.55260524  0.93246817  0.07914793  1
  Te  Te142  1  0.58575046  0.93699227  0.41934689  1
  Te  Te143  1  0.57113121  0.90621215  0.76539933  1
  Te  Te144  1  0.89883108  0.24851449  0.09800538  1
  Te  Te145  1  0.93696747  0.23005926  0.38318329  1
  Te  Te146  1  0.92498462  0.24260220  0.73418106  1
  Te  Te147  1  0.93275722  0.59422034  0.07952006  1
  Te  Te148  1  0.92339977  0.59725131  0.41797848  1
  Te  Te149  1  0.91349327  0.57930030  0.75946423  1
  Te  Te150  1  0.93458250  0.90232589  0.08762910  1
  Te  Te151  1  0.91309648  0.92196880  0.41699593  1
  Te  Te152  1  0.94544219  0.93662171  0.82679599  1
  Te  Te153  1  0.23995355  0.07275673  0.21873671  1
  Te  Te154  1  0.25497257  0.10016976  0.57905567  1
  Te  Te155  1  0.25774905  0.05866331  0.93118984  1
  Te  Te156  1  0.24235258  0.43851529  0.24058511  1
  Te  Te157  1  0.24254940  0.40795284  0.58446036  1
  Te  Te158  1  0.24550032  0.41697986  0.89502249  1
  Te  Te159  1  0.21573591  0.75459281  0.19742297  1
  Te  Te160  1  0.24737866  0.73017714  0.58179154  1
  Te  Te161  1  0.23663727  0.78220784  0.96272142  1
  Te  Te162  1  0.59865915  0.10810894  0.22279394  1
  Te  Te163  1  0.58916903  0.08975276  0.59321654  1
  Te  Te164  1  0.55684710  0.10045430  0.93674803  1
  Te  Te165  1  0.55285288  0.43425541  0.24950291  1
  Te  Te166  1  0.59250990  0.42065963  0.58770890  1
  Te  Te167  1  0.56778677  0.41892623  0.91242337  1
  Te  Te168  1  0.60443786  0.75898932  0.25298304  1
  Te  Te169  1  0.56115097  0.76628929  0.59290473  1
  Te  Te170  1  0.58704518  0.74178067  0.93206913  1
  Te  Te171  1  0.93044313  0.09604259  0.21027937  1
  Te  Te172  1  0.92235296  0.06510171  0.61488158  1
  Te  Te173  1  0.91416429  0.07582284  0.92659519  1
  Te  Te174  1  0.93505659  0.41843465  0.24219613  1
  Te  Te175  1  0.89191826  0.40842801  0.56355011  1
  Te  Te176  1  0.92284646  0.42313982  0.93209221  1
  Te  Te177  1  0.96953392  0.75808915  0.24238275  1
  Te  Te178  1  0.92081949  0.76995093  0.59724177  1
  Te  Te179  1  0.93098676  0.73382301  0.92399103  1
