# generated using pymatgen
data_In2Te3
_symmetry_space_group_name_H-M   'P 1'
_cell_length_a   18.79403280
_cell_length_b   18.78928192
_cell_length_c   18.79981636
_cell_angle_alpha   90.04867832
_cell_angle_beta   90.07248361
_cell_angle_gamma   89.96652041
_symmetry_Int_Tables_number   1
_chemical_formula_structural   In2Te3
_chemical_formula_sum   'In72 Te108'
_cell_volume   6638.70227223
_cell_formula_units_Z   36
loop_
 _symmetry_equiv_pos_site_id
 _symmetry_equiv_pos_as_xyz
  1  'x, y, z'
loop_
 _atom_site_type_symbol
 _atom_site_label
 _atom_site_symmetry_multiplicity
 _atom_site_fract_x
 _atom_site_fract_y
 _atom_site_fract_z
 _atom_site_occupancy
  In  In0  1  0.82225792  0.84352659  0.02995909  1
  In  In1  1  0.83434132  0.34950565  0.18588794  1
  In  In2  1  0.34407121  0.49992718  0.82638573  1
  In  In3  1  0.34189710  0.63596909  0.00780635  1
  In  In4  1  0.67258409  0.82915165  0.16737418  1
  In  In5  1  0.03445731  -0.00170773  0.66706170  1
  In  In6  1  0.01365362  0.67674362  0.02288663  1
  In  In7  1  0.18951472  0.36293819  0.17781168  1
  In  In8  1  0.31466970  0.00105410  0.35115052  1
  In  In9  1  0.65231403  -0.01782754  0.65871850  1
  In  In10  1  0.84206149  0.50894913  0.00038604  1
  In  In11  1  0.47826187  -0.02794272  0.51517205  1
  In  In12  1  0.18915213  0.14873913  0.66155827  1
  In  In13  1  0.01468594  0.32977750  -0.01644381  1
  In  In14  1  0.49595220  -0.00452314  0.15132703  1
  In  In15  1  -0.00171086  0.49185805  0.50436308  1
  In  In16  1  0.66631953  0.20168286  0.15251705  1
  In  In17  1  0.19966397  0.83351614  0.63660209  1
  In  In18  1  0.48894797  0.18458691  0.30681217  1
  In  In19  1  0.33912465  0.15467092  0.81829104  1
  In  In20  1  0.47475584  0.52734574  0.37627498  1
  In  In21  1  0.48390667  0.52294147  0.65416529  1
  In  In22  1  0.63001613  0.83150331  0.81545929  1
  In  In23  1  0.82606565  0.00226104  0.84482669  1
  In  In24  1  0.46993450  0.34853242  0.16009610  1
  In  In25  1  0.84472995  0.83857625  0.65873560  1
  In  In26  1  0.82683655  0.16848423  -0.00320105  1
  In  In27  1  0.67945095  0.52354400  0.48487285  1
  In  In28  1  0.66720015  0.33477562  0.32069240  1
  In  In29  1  0.17988256  0.34124312  0.49811282  1
  In  In30  1  0.84443935  0.18355248  0.66782266  1
  In  In31  1  0.30585979  0.81868285  0.18403303  1
  In  In32  1  0.16207317  0.51302069  0.00518158  1
  In  In33  1  0.32572639  0.17351767  0.49681164  1
  In  In34  1  0.00376667  -0.00314249  0.00523128  1
  In  In35  1  0.31742895  -0.00129536  0.00116222  1
  In  In36  1  0.87527243  0.00002807  0.17607129  1
  In  In37  1  0.46210554  0.80581382  0.35403795  1
  In  In38  1  0.65277467  0.04537314  -0.01684663  1
  In  In39  1  0.00737170  0.82568787  0.50542592  1
  In  In40  1  0.00972738  0.82112771  0.86296402  1
  In  In41  1  0.01910819  0.16774615  0.17451318  1
  In  In42  1  0.83217280  0.64478434  0.81731024  1
  In  In43  1  0.49324266  0.64368865  0.18044957  1
  In  In44  1  0.16152824  0.83698858  0.01579702  1
  In  In45  1  0.17342444  0.84054764  0.34866048  1
  In  In46  1  -0.00430344  0.67015210  0.66452639  1
  In  In47  1  0.81440255  0.80412205  0.36053032  1
  In  In48  1  0.83679071  -0.01930417  0.50219034  1
  In  In49  1  0.65389321  0.50416979  0.16695077  1
  In  In50  1  0.01095034  0.34825829  0.66245263  1
  In  In51  1  0.83503297  0.50395258  0.32717154  1
  In  In52  1  0.20158435  0.50580828  0.64701273  1
  In  In53  1  0.64630134  0.66747205  0.64064181  1
  In  In54  1  0.63985501  0.46533298  0.84060950  1
  In  In55  1  0.17243867  0.66763356  0.83668035  1
  In  In56  1  0.65595805  0.33354529  0.67083585  1
  In  In57  1  0.64821648  0.18606044  0.82282506  1
  In  In58  1  0.50677722  0.16866465  -0.03160210  1
  In  In59  1  0.47885784  0.34182668  0.49234928  1
  In  In60  1  0.31416476  0.16595089  0.18606694  1
  In  In61  1  0.66485877  0.14011318  0.51099872  1
  In  In62  1  0.65401941  -0.00741710  0.34990557  1
  In  In63  1  0.01139296  0.33787141  0.35924632  1
  In  In64  1  0.02444254  0.14788763  0.46964361  1
  In  In65  1  0.49047799  0.82277605  -0.02506744  1
  In  In66  1  0.82913908  0.67556124  0.17569384  1
  In  In67  1  0.34697978  0.33491039  0.02076481  1
  In  In68  1  0.02702704  0.64199309  0.31211063  1
  In  In69  1  0.33556797  0.81870328  0.79719310  1
  In  In70  1  0.16610951  0.31919451  0.82404975  1
  In  In71  1  0.83304369  0.33723905  0.80873064  1
  Te  Te72  1  0.09628761  0.08079557  0.08368885  1
  Te  Te73  1  0.10536680  0.05318981  0.38704969  1
  Te  Te74  1  0.09562582  0.09143951  0.76156542  1
  Te  Te75  1  0.07589843  0.42048733  0.08963882  1
  Te  Te76  1  0.11001237  0.44442973  0.41070100  1
  Te  Te77  1  0.10359226  0.43493421  0.74657763  1
  Te  Te78  1  0.09693921  0.75209059  0.11960844  1
  Te  Te79  1  0.08962402  0.72899503  0.42149150  1
  Te  Te80  1  0.08871933  0.76696935  0.74203044  1
  Te  Te81  1  0.41999858  0.10844106  0.08285861  1
  Te  Te82  1  0.43883481  0.07932056  0.40450393  1
  Te  Te83  1  0.43882579  0.06698138  0.75561094  1
  Te  Te84  1  0.40334497  0.45740939  0.08343904  1
  Te  Te85  1  0.37710671  0.42052246  0.41829855  1
  Te  Te86  1  0.42924464  0.41480926  0.73980794  1
  Te  Te87  1  0.41536070  0.75835145  0.09277752  1
  Te  Te88  1  0.37949472  0.71229224  0.43878782  1
  Te  Te89  1  0.43456955  0.74250547  0.71372198  1
  Te  Te90  1  0.75938873  0.07050311  0.09300363  1
  Te  Te91  1  0.76359012  0.08096275  0.41164458  1
  Te  Te92  1  0.74567087  0.08228161  0.74181825  1
  Te  Te93  1  0.74787540  0.41815514  0.08160280  1
  Te  Te94  1  0.75956324  0.40725396  0.41754257  1
  Te  Te95  1  0.74854050  0.43711132  0.73296947  1
  Te  Te96  1  0.73030882  0.72674787  0.06983366  1
  Te  Te97  1  0.71633632  0.71301884  0.42191266  1
  Te  Te98  1  0.75104604  0.75573681  0.74730836  1
  Te  Te99  1  0.10238784  0.26566739  0.25975505  1
  Te  Te100  1  0.08756751  0.24202433  0.57964390  1
  Te  Te101  1  0.10248686  0.22860165  0.92283777  1
  Te  Te102  1  0.13918564  0.56899777  0.24311979  1
  Te  Te103  1  0.09161269  0.58864245  0.57840870  1
  Te  Te104  1  0.06613959  0.58766589  0.90983377  1
  Te  Te105  1  0.08425372  0.94027405  0.28508795  1
  Te  Te106  1  0.10830437  0.92885465  0.55527739  1
  Te  Te107  1  0.10447338  0.92970121  0.90682192  1
  Te  Te108  1  0.37965847  0.28091460  0.26509279  1
  Te  Te109  1  0.42362660  0.24156898  0.58493920  1
  Te  Te110  1  0.41290277  0.26882985  0.90137008  1
  Te  Te111  1  0.38757492  0.57479803  0.25997205  1
  Te  Te112  1  0.40952702  0.59223838  0.54159647  1
  Te  Te113  1  0.43397115  0.59145148  0.90338504  1
  Te  Te114  1  0.41397738  0.92046209  0.25300841  1
  Te  Te115  1  0.42109107  0.86824721  0.61030952  1
  Te  Te116  1  0.39782993  0.91862747  0.90208049  1
  Te  Te117  1  0.76818821  0.23547591  0.26245617  1
  Te  Te118  1  0.74572603  0.25316829  0.57517109  1
  Te  Te119  1  0.74482506  0.26441837  0.91148694  1
  Te  Te120  1  0.73144743  0.59525960  0.26217012  1
  Te  Te121  1  0.76175531  0.59191075  0.58710207  1
  Te  Te122  1  0.73676987  0.56971447  0.90931590  1
  Te  Te123  1  0.75949502  0.91705195  0.25707842  1
  Te  Te124  1  0.73212953  0.89030782  0.56686787  1
  Te  Te125  1  0.73276889  0.90819869  0.91580569  1
  Te  Te126  1  0.23759036  0.25039983  0.08390074  1
  Te  Te127  1  0.23281781  0.23929224  0.40331797  1
  Te  Te128  1  0.26886427  0.26058708  0.72942370  1
  Te  Te129  1  0.22210326  0.61861665  0.09356839  1
  Te  Te130  1  0.27208139  0.59707038  0.46730997  1
  Te  Te131  1  0.27234340  0.60629067  0.74046906  1
  Te  Te132  1  0.23505159  0.93426205  0.11128429  1
  Te  Te133  1  0.27386267  0.89613952  0.44556133  1
  Te  Te134  1  0.24896090  0.92462431  0.74165565  1
  Te  Te135  1  0.57575253  0.28275207  0.05789451  1
  Te  Te136  1  0.58634527  0.24216900  0.41424950  1
  Te  Te137  1  0.54918674  0.26277626  0.74381250  1
  Te  Te138  1  0.56674320  0.57519122  0.07182415  1
  Te  Te139  1  0.58470340  0.62482357  0.42491742  1
  Te  Te140  1  0.58594471  0.58213902  0.75100495  1
  Te  Te141  1  0.58998891  0.91413055  0.06543963  1
  Te  Te142  1  0.57363189  0.89059606  0.42522100  1
  Te  Te143  1  0.53705398  0.91632987  0.73230836  1
  Te  Te144  1  0.91260771  0.25729281  0.08600923  1
  Te  Te145  1  0.92371498  0.24957178  0.43786951  1
  Te  Te146  1  0.94630698  0.24644464  0.76038201  1
  Te  Te147  1  0.92697488  0.58095446  0.10499286  1
  Te  Te148  1  0.92163143  0.59111409  0.41486574  1
  Te  Te149  1  0.92996845  0.56454497  0.74352316  1
  Te  Te150  1  0.94932472  0.88956025  0.10059096  1
  Te  Te151  1  0.92676757  0.90832350  0.40544698  1
  Te  Te152  1  0.92540253  0.92025924  0.75990404  1
  Te  Te153  1  0.21990042  0.08061658  0.26586816  1
  Te  Te154  1  0.27330058  0.06128070  0.57751276  1
  Te  Te155  1  0.24830629  0.10259039  0.92337669  1
  Te  Te156  1  0.25856929  0.46955513  0.25539620  1
  Te  Te157  1  0.28755194  0.40592278  0.57894412  1
  Te  Te158  1  0.24718587  0.41954891  0.91921220  1
  Te  Te159  1  0.25352226  0.72853980  0.28733234  1
  Te  Te160  1  0.25786705  0.71810755  0.56561420  1
  Te  Te161  1  0.25841788  0.75372056  0.92920055  1
  Te  Te162  1  0.59051453  0.08353056  0.23601202  1
  Te  Te163  1  0.55384840  0.08303803  0.59470678  1
  Te  Te164  1  0.55378132  0.06124877  0.86437879  1
  Te  Te165  1  0.55956676  0.42785692  0.26743644  1
  Te  Te166  1  0.58378202  0.42847173  0.56696427  1
  Te  Te167  1  0.56610680  0.38287544  0.93578732  1
  Te  Te168  1  0.56954740  0.75696128  0.25125500  1
  Te  Te169  1  0.54114270  0.76560686  0.59807114  1
  Te  Te170  1  0.57608903  0.72623519  0.90448004  1
  Te  Te171  1  0.93046059  0.09763330  0.27069188  1
  Te  Te172  1  0.92224806  0.07616668  0.58743407  1
  Te  Te173  1  0.92751047  0.09344279  0.91138110  1
  Te  Te174  1  0.94465054  0.42825167  0.25245919  1
  Te  Te175  1  0.90383255  0.41125555  0.58393649  1
  Te  Te176  1  0.92162605  0.42075574  0.90374988  1
  Te  Te177  1  0.92233351  0.75319821  0.26432619  1
  Te  Te178  1  0.89906303  0.73342850  0.56354926  1
  Te  Te179  1  0.89770648  0.74335903  0.93092129  1
