# generated using pymatgen
data_In2Te3
_symmetry_space_group_name_H-M   'P 1'
_cell_length_a   18.97292739
_cell_length_b   18.96757154
_cell_length_c   18.98778165
_cell_angle_alpha   90.09657268
_cell_angle_beta   89.97085418
_cell_angle_gamma   90.03593323
_symmetry_Int_Tables_number   1
_chemical_formula_structural   In2Te3
_chemical_formula_sum   'In72 Te108'
_cell_volume   6833.12784348
_cell_formula_units_Z   36
loop_
 _symmetry_equiv_pos_site_id
 _symmetry_equiv_pos_as_xyz
  1  'x, y, z'
loop_
 _atom_site_type_symbol
 _atom_site_label
 _atom_site_symmetry_multiplicity
 _atom_site_fract_x
 _atom_site_fract_y
 _atom_site_fract_z
 _atom_site_occupancy
  In  In0  1  0.32589094  0.50827509  0.14021306  1
  In  In1  1  0.33662305  0.66945923  0.31755552  1
  In  In2  1  0.02883456  0.34285244  0.67432320  1
  In  In3  1  0.84872232  0.34865540  0.16321455  1
  In  In4  1  0.84611589  -0.00170988  0.18322254  1
  In  In5  1  0.00245001  0.17331030  0.83561875  1
  In  In6  1  0.67355142  0.79695921  0.18758737  1
  In  In7  1  0.16695104  0.14413958  0.00410035  1
  In  In8  1  0.66592445  0.67135793  0.64241578  1
  In  In9  1  0.32948154  0.82605665  0.83572733  1
  In  In10  1  0.16808788  0.16271866  0.34503940  1
  In  In11  1  0.83234956  0.51336469  -0.00725940  1
  In  In12  1  0.52073663  0.35484401  0.18334988  1
  In  In13  1  0.01645747  -0.01550134  0.66300374  1
  In  In14  1  -0.01006681  0.35002498  0.32483622  1
  In  In15  1  -0.00356126  0.49800065  0.48314811  1
  In  In16  1  0.29165339  0.29524280  0.68996947  1
  In  In17  1  0.68051938  -0.01578058  0.04215294  1
  In  In18  1  0.34212398  0.34517342  0.32031085  1
  In  In19  1  0.13583569  0.64126395  0.18129567  1
  In  In20  1  0.16048373  0.66909211  0.83723203  1
  In  In21  1  0.16762966  0.32416570  0.49684396  1
  In  In22  1  0.49701919  0.67364838  0.82710081  1
  In  In23  1  0.65272808  0.15391078  0.83597559  1
  In  In24  1  0.68540775  0.51123774  0.46440492  1
  In  In25  1  0.85349413  0.16165124  0.34072417  1
  In  In26  1  0.15408210  0.33420206  0.14629459  1
  In  In27  1  0.66544590  0.01034007  0.66617718  1
  In  In28  1  0.83738153  0.67474760  0.49463319  1
  In  In29  1  0.47721575  0.14624705  -0.02124551  1
  In  In30  1  0.16372213  0.50970841  0.67804949  1
  In  In31  1  0.83944062  0.16984760  -0.01267248  1
  In  In32  1  0.32420927  0.83139445  0.15952183  1
  In  In33  1  0.82643397  0.81409002  0.00982901  1
  In  In34  1  0.17682491  0.00287265  0.49380461  1
  In  In35  1  0.47012750  -0.01440105  0.81720615  1
  In  In36  1  0.70004979  0.36658720  0.68634618  1
  In  In37  1  0.30522300  0.33031963  -0.02430549  1
  In  In38  1  -0.00584355  0.81638477  0.49388369  1
  In  In39  1  0.48552289  0.32034936  0.52250870  1
  In  In40  1  -0.00376417  0.82305053  0.17330247  1
  In  In41  1  0.48611165  0.16229519  0.35547220  1
  In  In42  1  0.33575975  -0.00812457  0.33006848  1
  In  In43  1  0.50252660  0.66618506  0.49155214  1
  In  In44  1  0.52654269  0.34829531  0.81901650  1
  In  In45  1  0.65018254  0.15506237  0.49154686  1
  In  In46  1  0.65077318  0.33010717  -0.00130353  1
  In  In47  1  -0.01125907  0.34491491  0.00036249  1
  In  In48  1  0.83819411  -0.00872453  0.50899471  1
  In  In49  1  0.50602577  -0.00385398  0.17021252  1
  In  In50  1  0.83101648  0.62360492  0.82099062  1
  In  In51  1  0.32201935  0.48709625  0.82907558  1
  In  In52  1  0.17005475  0.68128294  0.47540195  1
  In  In53  1  0.15129618  0.00185537  0.18318666  1
  In  In54  1  0.85611569  0.83536131  0.67784183  1
  In  In55  1  0.32766299  0.84674101  0.51058147  1
  In  In56  1  0.32388584  0.02345344  0.67282667  1
  In  In57  1  0.16808776  0.00507449  0.83871365  1
  In  In58  1  0.50672639  0.50366415  0.00025735  1
  In  In59  1  0.61539679  0.86511513  0.47415571  1
  In  In60  1  0.66319414  0.82359066  0.85639524  1
  In  In61  1  0.70348604  0.53297967  0.19948658  1
  In  In62  1  -0.00231200  0.65535050  -0.02202141  1
  In  In63  1  0.49079318  0.67566233  0.17425599  1
  In  In64  1  0.02357606  0.83427925  0.83627216  1
  In  In65  1  0.82750389  0.82222428  0.33483071  1
  In  In66  1  0.50587589  0.51168953  0.64242972  1
  In  In67  1  0.32890691  0.50533771  0.49326781  1
  In  In68  1  0.65829267  0.18749896  0.19215351  1
  In  In69  1  0.84921625  0.16698719  0.67106319  1
  In  In70  1  0.31699936  -0.00728988  -0.02581944  1
  In  In71  1  0.82504615  0.33502303  0.49164706  1
  Te  Te72  1  0.06868209  0.08335044  0.09223060  1
  Te  Te73  1  0.07645759  0.07183045  0.41240692  1
  Te  Te74  1  0.08985860  0.09071409  0.74233714  1
  Te  Te75  1  0.07188646  0.43696349  0.08015429  1
  Te  Te76  1  0.10052865  0.42084647  0.40351003  1
  Te  Te77  1  0.09045528  0.42900620  0.77792017  1
  Te  Te78  1  0.07749671  0.74171631  0.07523635  1
  Te  Te79  1  0.05432992  0.72472973  0.39567417  1
  Te  Te80  1  0.06907788  0.73423548  0.74109627  1
  Te  Te81  1  0.40426776  0.06403847  0.08236096  1
  Te  Te82  1  0.40507842  0.07068629  0.43540293  1
  Te  Te83  1  0.42474300  0.10400878  0.74784798  1
  Te  Te84  1  0.42236701  0.39898393  0.07334375  1
  Te  Te85  1  0.43128852  0.41996211  0.42041259  1
  Te  Te86  1  0.42435878  0.42017907  0.73459609  1
  Te  Te87  1  0.39537870  0.73199356  0.07898514  1
  Te  Te88  1  0.41138593  0.75772726  0.41368087  1
  Te  Te89  1  0.43047637  0.77310563  0.74356958  1
  Te  Te90  1  0.75018922  0.10667325  0.10134745  1
  Te  Te91  1  0.75205116  0.07383236  0.41531607  1
  Te  Te92  1  0.76273300  0.07911115  0.75928631  1
  Te  Te93  1  0.73247033  0.41830561  0.09083181  1
  Te  Te94  1  0.78126165  0.42917753  0.38909260  1
  Te  Te95  1  0.78399888  0.47210850  0.76160240  1
  Te  Te96  1  0.73230686  0.72039797  0.07446093  1
  Te  Te97  1  0.73444346  0.76997231  0.44040598  1
  Te  Te98  1  0.74830687  0.74877637  0.74638514  1
  Te  Te99  1  0.08381597  0.25462622  0.25340017  1
  Te  Te100  1  0.10264487  0.23971527  0.59711443  1
  Te  Te101  1  0.09044547  0.25438910  0.92825110  1
  Te  Te102  1  0.03563308  0.57254432  0.26546148  1
  Te  Te103  1  0.09123138  0.58081651  0.56803381  1
  Te  Te104  1  0.05985544  0.56489932  0.87778895  1
  Te  Te105  1  0.07670008  0.90441356  0.26382259  1
  Te  Te106  1  0.09614947  0.89344089  0.57613048  1
  Te  Te107  1  0.09623873  0.91783788  0.93162561  1
  Te  Te108  1  0.43031975  0.24824664  0.24113751  1
  Te  Te109  1  0.40419244  0.23856689  0.61339824  1
  Te  Te110  1  0.42981756  0.26981184  0.90445326  1
  Te  Te111  1  0.41761069  0.56231951  0.24831030  1
  Te  Te112  1  0.39995300  0.60248591  0.58546423  1
  Te  Te113  1  0.41176127  0.57984343  0.91332965  1
  Te  Te114  1  0.42684768  0.89672023  0.25343018  1
  Te  Te115  1  0.41094379  0.94546370  0.58150884  1
  Te  Te116  1  0.42974405  0.90117463  0.93266905  1
  Te  Te117  1  0.76613556  0.26154092  0.26397479  1
  Te  Te118  1  0.74859508  0.24007604  0.58331351  1
  Te  Te119  1  0.74327820  0.25464051  0.90573125  1
  Te  Te120  1  0.79791790  0.61496159  0.27929923  1
  Te  Te121  1  0.76206117  0.57263105  0.57926206  1
  Te  Te122  1  0.73792907  0.61511651  0.93617768  1
  Te  Te123  1  0.74077639  0.91854437  0.25483740  1
  Te  Te124  1  0.74973242  0.90097072  0.59122381  1
  Te  Te125  1  0.75507383  0.92253812  0.92615943  1
  Te  Te126  1  0.25681740  0.23875196  0.08449964  1
  Te  Te127  1  0.27309041  0.25064702  0.41671662  1
  Te  Te128  1  0.23272348  0.24433276  0.81181452  1
  Te  Te129  1  0.22954331  0.59677155  0.07524394  1
  Te  Te130  1  0.24353006  0.57514306  0.39155933  1
  Te  Te131  1  0.26531950  0.59816144  0.74446651  1
  Te  Te132  1  0.23376369  0.92308185  0.07907440  1
  Te  Te133  1  0.23773580  0.90038033  0.39953733  1
  Te  Te134  1  0.24424172  0.91356569  0.74715847  1
  Te  Te135  1  0.56874482  0.22852108  0.07535273  1
  Te  Te136  1  0.58126759  0.26454422  0.41370942  1
  Te  Te137  1  0.60414561  0.25261894  0.73226558  1
  Te  Te138  1  0.58252086  0.57373765  0.10951174  1
  Te  Te139  1  0.59353483  0.60262168  0.39265662  1
  Te  Te140  1  0.59141735  0.58435499  0.74184482  1
  Te  Te141  1  0.58296468  0.88683322  0.09887951  1
  Te  Te142  1  0.55243319  0.95710946  0.38308480  1
  Te  Te143  1  0.58843815  0.91400493  0.75688570  1
  Te  Te144  1  0.92649283  0.24095858  0.09199600  1
  Te  Te145  1  0.93697202  0.25318343  0.42995480  1
  Te  Te146  1  0.91698428  0.27071550  0.75558796  1
  Te  Te147  1  0.92576056  0.57975338  0.08248520  1
  Te  Te148  1  0.91516018  0.59062181  0.39504054  1
  Te  Te149  1  0.91513225  0.53702004  0.74090835  1
  Te  Te150  1  0.91720240  0.91362950  0.07990240  1
  Te  Te151  1  0.92122428  0.91704037  0.40672023  1
  Te  Te152  1  0.92220274  0.93415814  0.76911023  1
  Te  Te153  1  0.25833979  0.09132078  0.24641018  1
  Te  Te154  1  0.22292929  0.09981178  0.59519873  1
  Te  Te155  1  0.27375711  0.11335388  0.88826019  1
  Te  Te156  1  0.24375750  0.42213907  0.23536774  1
  Te  Te157  1  0.25982530  0.41316609  0.59484842  1
  Te  Te158  1  0.22942065  0.44790351  0.93516218  1
  Te  Te159  1  0.22965233  0.74691681  0.24478740  1
  Te  Te160  1  0.24198349  0.75090188  0.58154669  1
  Te  Te161  1  0.24310119  0.75145461  0.92571705  1
  Te  Te162  1  0.59162030  0.07512532  0.26958597  1
  Te  Te163  1  0.56704386  0.07057098  0.57716890  1
  Te  Te164  1  0.58988678  0.05520039  0.93418835  1
  Te  Te165  1  0.61856562  0.42853510  0.26204284  1
  Te  Te166  1  0.60287872  0.41955896  0.57126910  1
  Te  Te167  1  0.60743926  0.44227069  0.90387974  1
  Te  Te168  1  0.58493121  0.72413542  0.28073783  1
  Te  Te169  1  0.56596761  0.76937315  0.58290474  1
  Te  Te170  1  0.59071732  0.72054435  0.93206712  1
  Te  Te171  1  0.94115777  0.08643539  0.24946364  1
  Te  Te172  1  0.93493993  0.08405064  0.57886957  1
  Te  Te173  1  0.92932313  0.07815563  0.91997844  1
  Te  Te174  1  0.94794597  0.45114302  0.21924654  1
  Te  Te175  1  0.92451538  0.40901374  0.58097942  1
  Te  Te176  1  0.88526366  0.40277469  0.91292349  1
  Te  Te177  1  0.88773840  0.73318843  0.23189378  1
  Te  Te178  1  0.93021954  0.72856926  0.60285523  1
  Te  Te179  1  0.90388484  0.74712929  0.89685371  1
