# generated using pymatgen
data_In2Te3
_symmetry_space_group_name_H-M   'P 1'
_cell_length_a   18.96106955
_cell_length_b   18.94636653
_cell_length_c   18.93996437
_cell_angle_alpha   90.02552865
_cell_angle_beta   89.85540159
_cell_angle_gamma   89.90259940
_symmetry_Int_Tables_number   1
_chemical_formula_structural   In2Te3
_chemical_formula_sum   'In72 Te108'
_cell_volume   6804.02450593
_cell_formula_units_Z   36
loop_
 _symmetry_equiv_pos_site_id
 _symmetry_equiv_pos_as_xyz
  1  'x, y, z'
loop_
 _atom_site_type_symbol
 _atom_site_label
 _atom_site_symmetry_multiplicity
 _atom_site_fract_x
 _atom_site_fract_y
 _atom_site_fract_z
 _atom_site_occupancy
  In  In0  1  0.81883834  0.82660909  0.01429933  1
  In  In1  1  0.84485409  0.17059488  0.00358617  1
  In  In2  1  -0.02006357  0.00484864  -0.00127722  1
  In  In3  1  0.15044818  -0.01567921  0.16912648  1
  In  In4  1  0.17033355  0.78570566  -0.00477511  1
  In  In5  1  0.35335954  0.87027837  0.76521793  1
  In  In6  1  0.66592133  -0.00267178  0.66537688  1
  In  In7  1  0.67981296  0.15524469  0.19049210  1
  In  In8  1  0.47124241  0.01746493  0.78226388  1
  In  In9  1  0.52029502  0.68732218  0.50337438  1
  In  In10  1  0.49938570  0.69711372  0.82491665  1
  In  In11  1  0.83969927  0.64490682  0.82681494  1
  In  In12  1  0.51487474  0.85259966  -0.00097081  1
  In  In13  1  0.83532255  0.49330441  0.01847100  1
  In  In14  1  0.00762251  0.33071214  -0.01795661  1
  In  In15  1  0.52294313  0.35319915  0.15915703  1
  In  In16  1  0.83906697  0.71249838  0.21339934  1
  In  In17  1  0.81127706  -0.01491774  0.20120941  1
  In  In18  1  0.01004819  0.32916808  0.35180991  1
  In  In19  1  0.68389630  0.53420178  0.19854712  1
  In  In20  1  0.66949483  0.32026167  0.32685653  1
  In  In21  1  0.67153057  0.33171717  0.67747263  1
  In  In22  1  0.83660761  0.52866218  0.63740959  1
  In  In23  1  0.02496390  0.81787780  0.83356683  1
  In  In24  1  0.17519750  0.66631435  0.80608414  1
  In  In25  1  0.33262750  0.63988641  0.34350909  1
  In  In26  1  0.33466734  -0.00181823  0.35516288  1
  In  In27  1  0.02872462  0.36642912  0.69162314  1
  In  In28  1  0.01258469  0.50216554  0.48357325  1
  In  In29  1  0.47520631  0.51578832  0.02289607  1
  In  In30  1  0.67259995  0.14397622  0.50824481  1
  In  In31  1  0.14942152  0.64065545  0.15647974  1
  In  In32  1  0.00436783  0.14912619  0.52191124  1
  In  In33  1  0.15686515  -0.00480609  0.82128383  1
  In  In34  1  0.15425262  0.18229362  0.36959105  1
  In  In35  1  0.50798674  0.16604487  0.35404388  1
  In  In36  1  0.67045504  0.15239069  0.82755154  1
  In  In37  1  0.66233087  0.51442965  0.49562619  1
  In  In38  1  0.67717257  0.84271550  0.83154807  1
  In  In39  1  0.13906129  0.14858182  -0.01664618  1
  In  In40  1  0.17021080  0.65589105  0.51928019  1
  In  In41  1  0.52921489  0.84926325  0.34763786  1
  In  In42  1  0.65150370  0.50108298  0.84134655  1
  In  In43  1  0.49510383  0.18967821  -0.01784244  1
  In  In44  1  0.14285701  0.82365093  0.31519073  1
  In  In45  1  0.01100845  0.64719404  0.00121476  1
  In  In46  1  0.01114323  -0.01648407  0.65941067  1
  In  In47  1  0.30545618  0.65977588  -0.01801783  1
  In  In48  1  0.16572276  0.33407171  0.16614220  1
  In  In49  1  0.34832062  0.84160980  0.51093989  1
  In  In50  1  0.49244206  0.33599447  0.80181464  1
  In  In51  1  0.18979314  0.14862217  0.63175647  1
  In  In52  1  0.48739682  0.53006084  0.66479356  1
  In  In53  1  0.31939639  0.18605758  0.17406667  1
  In  In54  1  0.82203950  0.31860144  0.50441151  1
  In  In55  1  0.32746044  0.33751938  0.34252337  1
  In  In56  1  0.31486804  -0.00630365  -0.00521355  1
  In  In57  1  0.21482328  0.34329393  0.53947470  1
  In  In58  1  0.33769541  0.33784268  -0.03301099  1
  In  In59  1  0.82901713  0.69373567  0.47325238  1
  In  In60  1  0.84793444  0.33184484  0.83610191  1
  In  In61  1  0.00116668  0.82801932  0.48432947  1
  In  In62  1  0.35961513  0.81778737  0.17892412  1
  In  In63  1  0.65282798  -0.02170485  -0.00014410  1
  In  In64  1  -0.00325252  0.48557618  0.18754454  1
  In  In65  1  0.50132376  0.67272111  0.18520890  1
  In  In66  1  0.67562660  0.37168558  0.01273437  1
  In  In67  1  0.52660941  0.02297541  0.15608141  1
  In  In68  1  0.81459803  -0.01682824  0.49001625  1
  In  In69  1  0.46201816  0.32301138  0.53618583  1
  In  In70  1  0.30313745  0.49653777  0.82879419  1
  In  In71  1  0.84757402  0.84617598  0.66583885  1
  Te  Te72  1  0.06224639  0.08675407  0.09805847  1
  Te  Te73  1  0.08854713  0.06848986  0.43152073  1
  Te  Te74  1  0.08699185  0.09514310  0.73139127  1
  Te  Te75  1  0.08264913  0.42364431  0.07737327  1
  Te  Te76  1  0.11371970  0.40149304  0.43116940  1
  Te  Te77  1  0.11981741  0.43879751  0.78102177  1
  Te  Te78  1  0.06506036  0.75396120  0.09785157  1
  Te  Te79  1  0.08362608  0.72307932  0.41128033  1
  Te  Te80  1  0.09485844  0.75628098  0.72202856  1
  Te  Te81  1  0.41072696  0.08685931  0.07311974  1
  Te  Te82  1  0.43009967  0.07286117  0.44147213  1
  Te  Te83  1  0.36081003  0.09332761  0.71121273  1
  Te  Te84  1  0.39707856  0.40441529  0.09018067  1
  Te  Te85  1  0.42106650  0.41332279  0.42780110  1
  Te  Te86  1  0.39647326  0.42455617  0.72832139  1
  Te  Te87  1  0.41686199  0.74275814  0.05900477  1
  Te  Te88  1  0.41437923  0.76024602  0.39448898  1
  Te  Te89  1  0.40542938  0.73655937  0.71088232  1
  Te  Te90  1  0.74590819  0.07782006  0.07365052  1
  Te  Te91  1  0.76350137  0.09296010  0.40375912  1
  Te  Te92  1  0.76122339  0.06705927  0.75214867  1
  Te  Te93  1  0.75850828  0.41895634  0.12756573  1
  Te  Te94  1  0.74828217  0.41669247  0.41619551  1
  Te  Te95  1  0.75441381  0.43878240  0.74687808  1
  Te  Te96  1  0.74276276  0.74601387  0.10878275  1
  Te  Te97  1  0.72622488  0.77351674  0.39452050  1
  Te  Te98  1  0.76116478  0.74864200  0.74742763  1
  Te  Te99  1  0.08351202  0.23716943  0.24841323  1
  Te  Te100  1  0.08458151  0.26423695  0.58055373  1
  Te  Te101  1  0.06833006  0.23414621  0.88790581  1
  Te  Te102  1  0.08037113  0.57537828  0.26729289  1
  Te  Te103  1  0.07436710  0.57221398  0.59897490  1
  Te  Te104  1  0.09349983  0.58097500  0.89765404  1
  Te  Te105  1  0.04971560  0.92683364  0.26101124  1
  Te  Te106  1  0.09379930  0.90981398  0.56345960  1
  Te  Te107  1  0.09328804  0.91418101  0.93990464  1
  Te  Te108  1  0.44125184  0.24562468  0.24320266  1
  Te  Te109  1  0.39274981  0.22305512  0.61909983  1
  Te  Te110  1  0.39974701  0.23668321  0.87194910  1
  Te  Te111  1  0.40897220  0.57281901  0.23712824  1
  Te  Te112  1  0.43062392  0.57322039  0.53720634  1
  Te  Te113  1  0.42006209  0.58217912  0.89502255  1
  Te  Te114  1  0.42887949  0.93450980  0.24553072  1
  Te  Te115  1  0.41568818  0.95996235  0.56763716  1
  Te  Te116  1  0.41489093  0.92017870  0.90430179  1
  Te  Te117  1  0.77897925  0.24191398  0.25913697  1
  Te  Te118  1  0.75581275  0.22830092  0.60655593  1
  Te  Te119  1  0.72701369  0.27236748  0.90749339  1
  Te  Te120  1  0.79244550  0.58941292  0.28432309  1
  Te  Te121  1  0.73415771  0.62104183  0.57627599  1
  Te  Te122  1  0.74672945  0.58056922  0.92917497  1
  Te  Te123  1  0.74851275  0.89561969  0.30180729  1
  Te  Te124  1  0.72993123  0.88319958  0.57646493  1
  Te  Te125  1  0.76855833  0.92998876  0.91443675  1
  Te  Te126  1  0.24352954  0.24394427  0.05672505  1
  Te  Te127  1  0.27611215  0.23265396  0.43719104  1
  Te  Te128  1  0.25462395  0.27764301  0.67542312  1
  Te  Te129  1  0.23822840  0.56368949  0.06711541  1
  Te  Te130  1  0.25232228  0.55825239  0.43870660  1
  Te  Te131  1  0.25771917  0.57907593  0.71174287  1
  Te  Te132  1  0.25261017  0.89316408  0.09214684  1
  Te  Te133  1  0.24077432  0.89428857  0.40810626  1
  Te  Te134  1  0.22167030  0.91306906  0.71421748  1
  Te  Te135  1  0.59701748  0.24464054  0.08378105  1
  Te  Te136  1  0.58533058  0.26366427  0.44444642  1
  Te  Te137  1  0.57524598  0.22874279  0.73473173  1
  Te  Te138  1  0.58922140  0.58698916  0.08748779  1
  Te  Te139  1  0.58606816  0.60058461  0.40177799  1
  Te  Te140  1  0.59290257  0.60379410  0.74642158  1
  Te  Te141  1  0.60163331  0.89503829  0.11687113  1
  Te  Te142  1  0.63061006  0.89642465  0.44365927  1
  Te  Te143  1  0.57205310  0.90478315  0.74399191  1
  Te  Te144  1  0.91265094  0.27300213  0.07919212  1
  Te  Te145  1  0.91948759  0.23259840  0.42757261  1
  Te  Te146  1  0.92638642  0.26698216  0.73148500  1
  Te  Te147  1  0.91279755  0.59307285  0.10246299  1
  Te  Te148  1  0.90498113  0.57973427  0.41117511  1
  Te  Te149  1  0.93366285  0.58410073  0.73242512  1
  Te  Te150  1  0.90538266  0.91885919  0.09878400  1
  Te  Te151  1  0.89827305  0.89726702  0.39483377  1
  Te  Te152  1  0.92983854  0.91823413  0.77078180  1
  Te  Te153  1  0.25018683  0.07508798  0.24782804  1
  Te  Te154  1  0.27731515  0.03033304  0.59794116  1
  Te  Te155  1  0.25081530  0.08841607  0.89605456  1
  Te  Te156  1  0.24061135  0.41818182  0.25860824  1
  Te  Te157  1  0.22643910  0.48724636  0.58946828  1
  Te  Te158  1  0.21790959  0.39141956  0.89440952  1
  Te  Te159  1  0.24994821  0.73410767  0.23984710  1
  Te  Te160  1  0.27567590  0.73706236  0.58481404  1
  Te  Te161  1  0.26983131  0.76973058  0.88094083  1
  Te  Te162  1  0.59937945  0.06647327  0.28321827  1
  Te  Te163  1  0.56937379  0.07969751  0.59023558  1
  Te  Te164  1  0.56733594  0.07288693  0.91060362  1
  Te  Te165  1  0.58593639  0.43346361  0.26703074  1
  Te  Te166  1  0.58300402  0.42175362  0.59454774  1
  Te  Te167  1  0.55292381  0.41142790  0.92470301  1
  Te  Te168  1  0.59829336  0.73249996  0.28070302  1
  Te  Te169  1  0.51343282  0.78423937  0.61395252  1
  Te  Te170  1  0.60114242  0.75018336  0.92540619  1
  Te  Te171  1  0.86662836  0.10921200  0.25470194  1
  Te  Te172  1  0.90042637  0.06182268  0.58975932  1
  Te  Te173  1  0.92716120  0.10333077  0.90263666  1
  Te  Te174  1  0.91178553  0.40342216  0.27341151  1
  Te  Te175  1  0.91713383  0.41249394  0.57693687  1
  Te  Te176  1  0.92427988  0.43934247  0.90890935  1
  Te  Te177  1  0.93843016  0.79304640  0.28603184  1
  Te  Te178  1  0.92261742  0.74368060  0.58364715  1
  Te  Te179  1  0.91866363  0.74573420  0.92104647  1
