# generated using pymatgen
data_In2Te3
_symmetry_space_group_name_H-M   'P 1'
_cell_length_a   18.95931542
_cell_length_b   18.95564107
_cell_length_c   18.96043305
_cell_angle_alpha   90.00152352
_cell_angle_beta   90.08158013
_cell_angle_gamma   89.78881165
_symmetry_Int_Tables_number   1
_chemical_formula_structural   In2Te3
_chemical_formula_sum   'In72 Te108'
_cell_volume   6814.06058183
_cell_formula_units_Z   36
loop_
 _symmetry_equiv_pos_site_id
 _symmetry_equiv_pos_as_xyz
  1  'x, y, z'
loop_
 _atom_site_type_symbol
 _atom_site_label
 _atom_site_symmetry_multiplicity
 _atom_site_fract_x
 _atom_site_fract_y
 _atom_site_fract_z
 _atom_site_occupancy
  In  In0  1  0.17361202  -0.01245892  0.14922267  1
  In  In1  1  0.34919020  0.30990045  0.34760349  1
  In  In2  1  0.66501214  0.16788812  0.49049062  1
  In  In3  1  -0.00618792  0.29573184  0.69531271  1
  In  In4  1  0.34875760  0.17392212  0.85916655  1
  In  In5  1  0.15340532  0.65390391  0.16567864  1
  In  In6  1  0.48723745  -0.00580796  0.82347249  1
  In  In7  1  0.16060658  0.48439734  0.32889363  1
  In  In8  1  0.83654652  0.52608312  0.67556945  1
  In  In9  1  0.82040245  0.83606093  0.32119899  1
  In  In10  1  0.51098885  0.83402119  0.32122077  1
  In  In11  1  0.31960331  -0.01698843  0.32828075  1
  In  In12  1  0.32617078  -0.00110335  0.00909869  1
  In  In13  1  0.35465392  0.68666122  0.35737469  1
  In  In14  1  0.83148945  0.85590423  0.67226541  1
  In  In15  1  0.34939368  0.65701070  0.72383138  1
  In  In16  1  0.66505584  0.36843139  -0.12306986  1
  In  In17  1  0.51664729  0.15900690  0.33302446  1
  In  In18  1  0.83250280  0.29654489  0.14569130  1
  In  In19  1  0.49669011  0.51304997  0.32800327  1
  In  In20  1  0.50289785  -0.03462596  0.49549184  1
  In  In21  1  0.65359206  0.17153424  0.16810973  1
  In  In22  1  0.51666679  0.50273321  0.67914894  1
  In  In23  1  0.48568745  0.17125877  0.01490136  1
  In  In24  1  0.65173489  0.66445818  0.32804338  1
  In  In25  1  0.67412797  0.35072232  0.68007791  1
  In  In26  1  0.83389823  0.01142374  0.51028785  1
  In  In27  1  0.17190572  0.82702996  0.66173726  1
  In  In28  1  0.13494774  -0.04430885  0.84688365  1
  In  In29  1  0.17946887  0.15579390  0.66186297  1
  In  In30  1  0.01570190  -0.03436318  0.69960884  1
  In  In31  1  -0.02440780  0.81444439  0.13440748  1
  In  In32  1  0.83747398  0.47390914  0.34425274  1
  In  In33  1  0.35162454  -0.01139873  0.64210809  1
  In  In34  1  0.65010012  0.68067700  0.65269089  1
  In  In35  1  0.34665067  0.83442561  0.83603973  1
  In  In36  1  0.82517405  0.00386503  0.15936816  1
  In  In37  1  0.83251720  0.16548181  0.31828685  1
  In  In38  1  0.33339713  0.50792037  0.19094021  1
  In  In39  1  0.51691262  0.19914269  0.67165034  1
  In  In40  1  0.13837217  0.50786002  -0.00855795  1
  In  In41  1  0.00550890  0.32279366  0.32236719  1
  In  In42  1  0.17049822  0.85197069  0.34365727  1
  In  In43  1  -0.01779760  -0.01577640  0.32293213  1
  In  In44  1  0.63809753  -0.01592419  0.00975558  1
  In  In45  1  -0.00653323  0.69998501  0.70785509  1
  In  In46  1  0.34957438  0.64670394  -0.05237563  1
  In  In47  1  0.15088066  0.31748421  0.13766773  1
  In  In48  1  0.34652506  0.36428290  0.66992658  1
  In  In49  1  -0.00808683  0.17752842  0.85094810  1
  In  In50  1  0.67035183  0.50026334  0.14313931  1
  In  In51  1  0.84829979  0.49119235  -0.02685898  1
  In  In52  1  0.80108208  0.67763236  0.14467575  1
  In  In53  1  0.33599979  0.50056392  0.52857054  1
  In  In54  1  -0.03372863  0.68445241  -0.02863496  1
  In  In55  1  0.32966813  0.16651363  0.50780111  1
  In  In56  1  0.50094826  0.33318269  0.17098896  1
  In  In57  1  0.32504087  0.80500945  0.13994254  1
  In  In58  1  0.81050324  0.32923644  0.51019018  1
  In  In59  1  0.15917843  0.34102575  0.82401797  1
  In  In60  1  -0.00100378  0.50956742  0.53981767  1
  In  In61  1  0.67644497  0.82855622  0.83955570  1
  In  In62  1  0.65769072  0.66294487  -0.01263688  1
  In  In63  1  0.68549698  0.02243902  0.67906403  1
  In  In64  1  0.20265187  0.35003576  0.50685012  1
  In  In65  1  0.31688789  0.36030552  0.00225956  1
  In  In66  1  0.83038754  0.67871098  0.51831057  1
  In  In67  1  0.14810722  0.15921274  -0.01024029  1
  In  In68  1  0.85840033  0.17054760  0.71580284  1
  In  In69  1  0.18649395  0.66593654  0.51746428  1
  In  In70  1  0.02207039  0.66764956  0.34193282  1
  In  In71  1  0.01723771  0.14277575  0.49270131  1
  Te  Te72  1  0.07427180  0.05963270  0.06633924  1
  Te  Te73  1  0.08609531  0.05340456  0.40086304  1
  Te  Te74  1  0.08423838  0.09272051  0.76417762  1
  Te  Te75  1  0.06573194  0.42500680  0.08729671  1
  Te  Te76  1  0.07194884  0.41963757  0.43355303  1
  Te  Te77  1  0.05774778  0.41643440  0.74774718  1
  Te  Te78  1  0.08386793  0.73681358  0.06152300  1
  Te  Te79  1  0.09246549  0.75717062  0.43822757  1
  Te  Te80  1  0.11028529  0.76020285  0.77894128  1
  Te  Te81  1  0.42690701  0.06319112  0.09393083  1
  Te  Te82  1  0.41725968  0.07674255  0.42283095  1
  Te  Te83  1  0.40872800  0.10161665  0.73237318  1
  Te  Te84  1  0.41936932  0.43269288  0.09024488  1
  Te  Te85  1  0.41377567  0.42275794  0.42103131  1
  Te  Te86  1  0.43344605  0.42177039  0.77455842  1
  Te  Te87  1  0.41356216  0.72737333  0.05326822  1
  Te  Te88  1  0.46745418  0.74396678  0.43743179  1
  Te  Te89  1  0.45367542  0.75101322  0.77421488  1
  Te  Te90  1  0.73519083  0.08920208  0.07116740  1
  Te  Te91  1  0.74638618  0.07385149  0.40210285  1
  Te  Te92  1  0.74875587  0.10135751  0.78603427  1
  Te  Te93  1  0.76004734  0.40721696  0.06524622  1
  Te  Te94  1  0.73143936  0.41877270  0.42678367  1
  Te  Te95  1  0.73498117  0.45950550  0.76637321  1
  Te  Te96  1  0.75369455  0.77734783  0.04447873  1
  Te  Te97  1  0.74187294  0.75089886  0.41969949  1
  Te  Te98  1  0.75917345  0.74314546  0.74066440  1
  Te  Te99  1  0.08648313  0.23457096  0.24065397  1
  Te  Te100  1  0.09374974  0.25264996  0.57977530  1
  Te  Te101  1  0.07261299  0.28004274  0.93194001  1
  Te  Te102  1  0.06162285  0.55956721  0.24213782  1
  Te  Te103  1  0.08229675  0.61030250  0.61216142  1
  Te  Te104  1  0.06356950  0.59614909  0.89957150  1
  Te  Te105  1  0.07218352  0.89037965  0.23286166  1
  Te  Te106  1  0.08452963  0.91437272  0.58228368  1
  Te  Te107  1  0.02549761  0.91188963  0.93600569  1
  Te  Te108  1  0.41315901  0.23074621  0.23775814  1
  Te  Te109  1  0.41887977  0.26767975  0.57597225  1
  Te  Te110  1  0.42509103  0.28392046  0.92440509  1
  Te  Te111  1  0.42525831  0.61691377  0.24240852  1
  Te  Te112  1  0.42352299  0.59590810  0.60002563  1
  Te  Te113  1  0.43777953  0.54046413  0.89174862  1
  Te  Te114  1  0.40129361  0.89748099  0.23270102  1
  Te  Te115  1  0.44836288  0.88196383  0.60541905  1
  Te  Te116  1  0.42975171  0.91256233  0.93716246  1
  Te  Te117  1  0.73545727  0.26314300  0.25879826  1
  Te  Te118  1  0.75040550  0.22890366  0.60636181  1
  Te  Te119  1  0.76105160  0.25970056  0.90069841  1
  Te  Te120  1  0.75934886  0.57293034  0.25447223  1
  Te  Te121  1  0.73722784  0.57511073  0.57212653  1
  Te  Te122  1  0.78336555  0.61520905  0.92374088  1
  Te  Te123  1  0.73315414  0.91486056  0.23337501  1
  Te  Te124  1  0.73299602  0.91917869  0.57561225  1
  Te  Te125  1  0.73810013  0.94216194  0.90993344  1
  Te  Te126  1  0.25752329  0.23544396  0.06578214  1
  Te  Te127  1  0.23359685  0.23565370  0.41131133  1
  Te  Te128  1  0.26019592  0.25381868  0.74651941  1
  Te  Te129  1  0.25148010  0.57480955  0.08141074  1
  Te  Te130  1  0.25451722  0.57367357  0.40863309  1
  Te  Te131  1  0.26401137  0.54193175  0.75147458  1
  Te  Te132  1  0.23279030  0.88669495  0.05177153  1
  Te  Te133  1  0.27863301  0.89013665  0.43357371  1
  Te  Te134  1  0.25885926  0.93094703  0.74842162  1
  Te  Te135  1  0.59072793  0.26803520  0.06830356  1
  Te  Te136  1  0.58388742  0.26082038  0.41268070  1
  Te  Te137  1  0.59530105  0.26512954  0.78037195  1
  Te  Te138  1  0.57577720  0.59809763  0.09094093  1
  Te  Te139  1  0.57727088  0.58555541  0.42665582  1
  Te  Te140  1  0.60774794  0.58656915  0.76250421  1
  Te  Te141  1  0.63235217  0.85789788  0.09275512  1
  Te  Te142  1  0.59920613  0.92750949  0.39357417  1
  Te  Te143  1  0.59351628  0.92190101  0.74483132  1
  Te  Te144  1  0.93693580  0.23055330  0.06850201  1
  Te  Te145  1  0.91305892  0.24140001  0.42654847  1
  Te  Te146  1  0.86786024  0.30504909  0.80148540  1
  Te  Te147  1  0.90663545  0.59268142  0.07802705  1
  Te  Te148  1  0.92055585  0.58243117  0.42845402  1
  Te  Te149  1  0.93254348  0.58189845  0.77264621  1
  Te  Te150  1  0.89932570  0.91730021  0.06201886  1
  Te  Te151  1  0.90657542  0.90596302  0.42717047  1
  Te  Te152  1  0.89786404  0.93255169  0.78230776  1
  Te  Te153  1  0.24261233  0.07386676  0.24410043  1
  Te  Te154  1  0.23893960  0.05827388  0.56308324  1
  Te  Te155  1  0.24563452  0.07033576  0.90039184  1
  Te  Te156  1  0.25183096  0.39276178  0.24971157  1
  Te  Te157  1  0.22457865  0.45407961  0.62501514  1
  Te  Te158  1  0.24803408  0.44287073  0.89373661  1
  Te  Te159  1  0.23883492  0.73649356  0.26033844  1
  Te  Te160  1  0.28184083  0.74113320  0.60476070  1
  Te  Te161  1  0.24700470  0.73580834  0.88621285  1
  Te  Te162  1  0.57313847  0.06847611  0.23310965  1
  Te  Te163  1  0.57251433  0.08558507  0.58427804  1
  Te  Te164  1  0.56432607  0.08629229  0.91513259  1
  Te  Te165  1  0.59170277  0.42369544  0.24987570  1
  Te  Te166  1  0.57600996  0.40433453  0.58617990  1
  Te  Te167  1  0.58417090  0.48946925  0.90737838  1
  Te  Te168  1  0.59683802  0.75692030  0.22479689  1
  Te  Te169  1  0.56389421  0.75703957  0.56097290  1
  Te  Te170  1  0.56850493  0.74501998  0.89787292  1
  Te  Te171  1  0.92932603  0.09201833  0.23044004  1
  Te  Te172  1  0.92900074  0.08479569  0.60348108  1
  Te  Te173  1  0.90971511  0.12936656  0.96253402  1
  Te  Te174  1  0.91038279  0.39992472  0.23503717  1
  Te  Te175  1  0.90826485  0.40158401  0.60124196  1
  Te  Te176  1  0.93890374  0.40012303  0.90000898  1
  Te  Te177  1  0.91482373  0.73287623  0.25469281  1
  Te  Te178  1  0.92706322  0.76937629  0.59015496  1
  Te  Te179  1  0.94047106  0.80053640  0.87845242  1
