# generated using pymatgen
data_In2Te3
_symmetry_space_group_name_H-M   'P 1'
_cell_length_a   18.94930831
_cell_length_b   18.95555221
_cell_length_c   18.95783362
_cell_angle_alpha   90.12047370
_cell_angle_beta   89.91336417
_cell_angle_gamma   89.98165504
_symmetry_Int_Tables_number   1
_chemical_formula_structural   In2Te3
_chemical_formula_sum   'In72 Te108'
_cell_volume   6809.52832963
_cell_formula_units_Z   36
loop_
 _symmetry_equiv_pos_site_id
 _symmetry_equiv_pos_as_xyz
  1  'x, y, z'
loop_
 _atom_site_type_symbol
 _atom_site_label
 _atom_site_symmetry_multiplicity
 _atom_site_fract_x
 _atom_site_fract_y
 _atom_site_fract_z
 _atom_site_occupancy
  In  In0  1  0.67178564  0.35074475  0.68883845  1
  In  In1  1  -0.00666312  0.84423594  0.50803476  1
  In  In2  1  0.31959000  0.82387097  0.47880558  1
  In  In3  1  0.32637798  0.18547414  0.50676756  1
  In  In4  1  0.49245756  0.68839887  0.51176804  1
  In  In5  1  0.84521545  0.19668345  -0.01568652  1
  In  In6  1  0.48708714  0.83611781  0.34785389  1
  In  In7  1  0.32072207  -0.01481537  0.33928731  1
  In  In8  1  0.48079975  0.00608708  0.51960934  1
  In  In9  1  0.49610987  0.49448145  0.33441536  1
  In  In10  1  0.86167766  -0.00490344  0.80812481  1
  In  In11  1  0.00675475  -0.00163441  0.35121161  1
  In  In12  1  0.83187658  0.49814444  0.34657202  1
  In  In13  1  0.17786375  0.37983498  0.19912653  1
  In  In14  1  0.33554063  0.16745943  0.16821350  1
  In  In15  1  0.50468814  0.17820806  -0.00345026  1
  In  In16  1  0.17401740  0.83814382  0.65783746  1
  In  In17  1  0.16122180  0.30445858  0.50333094  1
  In  In18  1  0.50391735  -0.00379394  0.19297662  1
  In  In19  1  0.64803710  -0.01241584  -0.01014821  1
  In  In20  1  0.82921999  0.17133640  0.33608235  1
  In  In21  1  0.31399399  0.51981821  0.47912269  1
  In  In22  1  0.12890838  0.49529555  0.65957845  1
  In  In23  1  0.50573871  0.66935690  0.82170752  1
  In  In24  1  0.84848253  0.80613571  0.31880205  1
  In  In25  1  0.16265065  0.15028056  0.66026058  1
  In  In26  1  0.66233935  0.83095377  0.80359102  1
  In  In27  1  0.14719978  0.33762590  0.81062909  1
  In  In28  1  0.83407062  0.51229027  0.67152902  1
  In  In29  1  0.83847942  -0.00070370  0.17343052  1
  In  In30  1  0.16417447  0.16395316  0.34053085  1
  In  In31  1  -0.00263400  0.65693754  -0.00741212  1
  In  In32  1  0.83758184  0.66268274  0.51088152  1
  In  In33  1  0.48643264  0.66689837  0.17194570  1
  In  In34  1  0.64981705  0.15178464  0.52039416  1
  In  In35  1  0.82244784  0.33458795  0.48590435  1
  In  In36  1  0.33984144  0.49641028  0.83555915  1
  In  In37  1  0.34910286  0.33078707  0.01261431  1
  In  In38  1  0.01881273  -0.02189451  0.00910765  1
  In  In39  1  0.83682072  0.34533449  0.15401887  1
  In  In40  1  0.01232375  0.84330307  0.80987469  1
  In  In41  1  0.86187958  0.66670475  0.14948633  1
  In  In42  1  0.68118393  -0.01192783  0.32998003  1
  In  In43  1  0.66270599  0.49055063  0.16283915  1
  In  In44  1  0.82364229  0.83399099  0.01229466  1
  In  In45  1  0.66854425  0.33005234  -0.01546445  1
  In  In46  1  0.52099624  0.34362632  0.51466240  1
  In  In47  1  0.83274302  0.67372983  0.81633601  1
  In  In48  1  -0.01300027  0.32758114  0.33136359  1
  In  In49  1  0.16976867  0.83333076  -0.00353978  1
  In  In50  1  0.68881316  0.85797892  0.54257191  1
  In  In51  1  0.16153731  0.67577593  0.84970234  1
  In  In52  1  0.86252953  0.16131307  0.66259139  1
  In  In53  1  0.34659241  0.33716218  0.65995027  1
  In  In54  1  0.49175004  0.19695260  0.32300379  1
  In  In55  1  0.17323135  0.13650859  -0.00164748  1
  In  In56  1  0.17888067  0.65019703  0.17804113  1
  In  In57  1  0.33567727  0.67482631  0.68356769  1
  In  In58  1  0.51044931  0.81150753  0.01188085  1
  In  In59  1  -0.01166413  0.50832759  0.49632430  1
  In  In60  1  0.48867299  0.50828531  0.01235302  1
  In  In61  1  0.17032944  0.51161420  0.00503046  1
  In  In62  1  0.33538072  -0.01642638  0.68060985  1
  In  In63  1  0.48736743  0.32080729  0.82463594  1
  In  In64  1  0.68765584  0.18823073  0.15125624  1
  In  In65  1  0.14296867  0.81288945  0.33533791  1
  In  In66  1  0.65961197  0.66609974  0.34044922  1
  In  In67  1  0.01690999  0.14752188  0.81802568  1
  In  In68  1  -0.01076084  0.34564148  -0.00805589  1
  In  In69  1  0.31774986  -0.00528348  -0.01691856  1
  In  In70  1  0.49674053  0.00883227  0.82475404  1
  In  In71  1  0.66987681  0.53251020  0.84019897  1
  Te  Te72  1  0.08297463  0.07638512  0.09578500  1
  Te  Te73  1  0.08155029  0.09227129  0.43658616  1
  Te  Te74  1  0.07050063  0.04845833  0.72080724  1
  Te  Te75  1  0.08300312  0.42129397  0.08901213  1
  Te  Te76  1  0.07647252  0.40359804  0.42617449  1
  Te  Te77  1  0.04077849  0.41937677  0.75070320  1
  Te  Te78  1  0.09130069  0.73479796  0.08078289  1
  Te  Te79  1  0.07907805  0.73993014  0.44690491  1
  Te  Te80  1  0.08638988  0.73594048  0.73387463  1
  Te  Te81  1  0.43150169  0.07666915  0.08525106  1
  Te  Te82  1  0.42150036  0.08614301  0.40053175  1
  Te  Te83  1  0.40530377  0.09335355  0.74701289  1
  Te  Te84  1  0.40151540  0.43218451  0.10342490  1
  Te  Te85  1  0.41259164  0.41127898  0.43278954  1
  Te  Te86  1  0.43513797  0.43391358  0.73616713  1
  Te  Te87  1  0.40142302  0.75047941  0.08598316  1
  Te  Te88  1  0.39848510  0.72399089  0.39680892  1
  Te  Te89  1  0.41577497  0.77017341  0.76063638  1
  Te  Te90  1  0.74972535  0.07400461  0.07218488  1
  Te  Te91  1  0.75029940  0.08041957  0.42754257  1
  Te  Te92  1  0.76257722  0.07730800  0.73692072  1
  Te  Te93  1  0.75763833  0.42876193  0.05679168  1
  Te  Te94  1  0.73022077  0.43159889  0.42681114  1
  Te  Te95  1  0.76382795  0.42667009  0.78282174  1
  Te  Te96  1  0.74747267  0.73936697  0.09238887  1
  Te  Te97  1  0.73759596  0.76495455  0.42671982  1
  Te  Te98  1  0.74933289  0.74720903  0.71921446  1
  Te  Te99  1  0.09360044  0.26153740  0.24601653  1
  Te  Te100  1  0.07200713  0.25137444  0.60568733  1
  Te  Te101  1  0.08536542  0.24458660  0.92010205  1
  Te  Te102  1  0.11650634  0.54313210  0.26436587  1
  Te  Te103  1  0.08074050  0.59939187  0.56748130  1
  Te  Te104  1  0.07375203  0.56225150  0.90065563  1
  Te  Te105  1  0.07333534  0.91331233  0.25363876  1
  Te  Te106  1  0.07438810  0.93240270  0.59983845  1
  Te  Te107  1  0.10314208  0.92866984  0.89429647  1
  Te  Te108  1  0.40202074  0.27650427  0.24097897  1
  Te  Te109  1  0.43878580  0.23730410  0.59105211  1
  Te  Te110  1  0.39524608  0.23146329  0.90704965  1
  Te  Te111  1  0.40327284  0.57122364  0.24914120  1
  Te  Te112  1  0.40662104  0.58440998  0.58350442  1
  Te  Te113  1  0.40983794  0.59879048  0.92001140  1
  Te  Te114  1  0.39818225  0.89943890  0.24069260  1
  Te  Te115  1  0.40941391  0.88956074  0.58156464  1
  Te  Te116  1  0.43560660  0.91788174  0.92848362  1
  Te  Te117  1  0.75145365  0.27547962  0.25816951  1
  Te  Te118  1  0.74908508  0.24751624  0.58923057  1
  Te  Te119  1  0.73668435  0.23549188  0.89611199  1
  Te  Te120  1  0.75224196  0.58981436  0.24780179  1
  Te  Te121  1  0.74366250  0.56531655  0.56715602  1
  Te  Te122  1  0.76280208  0.60600181  0.92546402  1
  Te  Te123  1  0.75111801  0.89252233  0.23705069  1
  Te  Te124  1  0.78533075  0.95779643  0.60883423  1
  Te  Te125  1  0.75393771  0.91950422  0.90272162  1
  Te  Te126  1  0.24079598  0.25271399  0.08424358  1
  Te  Te127  1  0.26437476  0.26520806  0.39659629  1
  Te  Te128  1  0.24938602  0.25171125  0.73850515  1
  Te  Te129  1  0.27014466  0.58798407  0.07820670  1
  Te  Te130  1  0.20777386  0.57981789  0.39227296  1
  Te  Te131  1  0.23751993  0.56929122  0.75083925  1
  Te  Te132  1  0.23439848  0.93211675  0.08496670  1
  Te  Te133  1  0.21929101  0.92198553  0.42759739  1
  Te  Te134  1  0.26874046  0.88051793  0.76382075  1
  Te  Te135  1  0.57563916  0.27172973  0.09193636  1
  Te  Te136  1  0.59538988  0.25162549  0.41803531  1
  Te  Te137  1  0.58419205  0.24708229  0.74420796  1
  Te  Te138  1  0.58983147  0.59551459  0.08244496  1
  Te  Te139  1  0.57244925  0.58558748  0.43127479  1
  Te  Te140  1  0.59132735  0.59011643  0.73226337  1
  Te  Te141  1  0.58975988  0.90806479  0.10335320  1
  Te  Te142  1  0.58169001  0.92596882  0.42733061  1
  Te  Te143  1  0.58128301  0.93029935  0.72968514  1
  Te  Te144  1  0.93286813  0.24363857  0.09599524  1
  Te  Te145  1  0.92592677  0.23419801  0.43443555  1
  Te  Te146  1  0.91647975  0.24923481  0.77394351  1
  Te  Te147  1  0.92639047  0.55794594  0.07412703  1
  Te  Te148  1  0.92341141  0.60669562  0.39879359  1
  Te  Te149  1  0.93185540  0.59877119  0.73844235  1
  Te  Te150  1  0.92783102  0.89942109  0.10163722  1
  Te  Te151  1  0.89606762  0.91432546  0.41299221  1
  Te  Te152  1  0.89501762  0.87744249  0.72056816  1
  Te  Te153  1  0.24329204  0.07529816  0.24526539  1
  Te  Te154  1  0.26037113  0.07076082  0.57431889  1
  Te  Te155  1  0.24692843  0.07837988  0.88655350  1
  Te  Te156  1  0.25465084  0.47207041  0.28816915  1
  Te  Te157  1  0.24480743  0.41796972  0.58121024  1
  Te  Te158  1  0.24776793  0.40346894  0.91280412  1
  Te  Te159  1  0.25126428  0.74921441  0.25929511  1
  Te  Te160  1  0.24629282  0.73263126  0.57455131  1
  Te  Te161  1  0.26454594  0.75797096  0.91137808  1
  Te  Te162  1  0.60623318  0.09981285  0.24970411  1
  Te  Te163  1  0.58163787  0.05901518  0.61406870  1
  Te  Te164  1  0.59403147  0.09894627  0.90386931  1
  Te  Te165  1  0.58761769  0.40839669  0.25622016  1
  Te  Te166  1  0.59713873  0.43810751  0.59726882  1
  Te  Te167  1  0.56628322  0.42230416  0.91278022  1
  Te  Te168  1  0.57803711  0.75911282  0.25423274  1
  Te  Te169  1  0.58782033  0.76526449  0.59425706  1
  Te  Te170  1  0.60390598  0.74363302  0.91337008  1
  Te  Te171  1  0.92529658  0.09362889  0.25094460  1
  Te  Te172  1  0.90675670  0.04238340  0.58788703  1
  Te  Te173  1  0.92378950  0.07621317  0.92780313  1
  Te  Te174  1  0.92246939  0.43268331  0.24369965  1
  Te  Te175  1  0.90998019  0.41158287  0.58219237  1
  Te  Te176  1  0.90945229  0.37235752  0.87311436  1
  Te  Te177  1  0.95219469  0.73944702  0.24052607  1
  Te  Te178  1  0.90590254  0.76100289  0.59791339  1
  Te  Te179  1  0.92926981  0.77258974  0.91709122  1
