# generated using pymatgen
data_In2Te3
_symmetry_space_group_name_H-M   'P 1'
_cell_length_a   18.75859835
_cell_length_b   18.76634410
_cell_length_c   18.76880662
_cell_angle_alpha   90.01075892
_cell_angle_beta   90.07619716
_cell_angle_gamma   89.94374443
_symmetry_Int_Tables_number   1
_chemical_formula_structural   In2Te3
_chemical_formula_sum   'In72 Te108'
_cell_volume   6607.17970076
_cell_formula_units_Z   36
loop_
 _symmetry_equiv_pos_site_id
 _symmetry_equiv_pos_as_xyz
  1  'x, y, z'
loop_
 _atom_site_type_symbol
 _atom_site_label
 _atom_site_symmetry_multiplicity
 _atom_site_fract_x
 _atom_site_fract_y
 _atom_site_fract_z
 _atom_site_occupancy
  In  In0  1  0.66575649  0.33512616  0.00407752  1
  In  In1  1  0.01002464  -0.00321465  0.35650841  1
  In  In2  1  0.47921213  0.20213244  0.32424178  1
  In  In3  1  -0.00728101  0.79543268  0.84048726  1
  In  In4  1  0.81782964  0.21167721  0.31934319  1
  In  In5  1  0.85486806  -0.00975128  0.50449304  1
  In  In6  1  0.32966287  -0.00674289  0.33398290  1
  In  In7  1  0.83618276  0.19172588  0.68652570  1
  In  In8  1  0.33882303  -0.01940034  -0.02125522  1
  In  In9  1  0.84947385  0.16200414  0.01997905  1
  In  In10  1  -0.00153148  0.19160506  0.84856084  1
  In  In11  1  0.00921149  -0.01155379  0.01660496  1
  In  In12  1  0.50773791  0.35423369  0.50446707  1
  In  In13  1  0.16027834  0.49733609  0.33409879  1
  In  In14  1  0.16604137  0.01168383  0.13926041  1
  In  In15  1  0.16823819  0.66382684  0.15692051  1
  In  In16  1  0.49729133  0.35892741  0.85312767  1
  In  In17  1  0.85316917  0.36437994  0.82614747  1
  In  In18  1  0.62837856  0.79711108  0.84111920  1
  In  In19  1  0.49891723  0.80861754  0.34352543  1
  In  In20  1  0.01274653  0.83795623  0.50678691  1
  In  In21  1  0.50106213  0.50219447  0.32464741  1
  In  In22  1  0.85630316  0.65633777  0.48502694  1
  In  In23  1  0.85837237  0.49953383  0.67780407  1
  In  In24  1  0.16718045  0.33272456  0.16005549  1
  In  In25  1  0.82517300  0.00113127  0.15917064  1
  In  In26  1  0.31394739  0.33761022  0.67586111  1
  In  In27  1  0.66948101  0.64037502  0.32713396  1
  In  In28  1  0.33117869  0.79839524  0.50583159  1
  In  In29  1  -0.00071173  0.33538988  0.00398483  1
  In  In30  1  0.80687550  -0.01876416  0.84159796  1
  In  In31  1  0.32357493  -0.01745667  0.66328234  1
  In  In32  1  -0.02105774  0.78214681  0.17397231  1
  In  In33  1  0.16090312  0.64299691  0.83200560  1
  In  In34  1  0.67967555  -0.01936325  -0.00433220  1
  In  In35  1  0.29776843  0.19148941  0.81072174  1
  In  In36  1  0.51431359  0.00148125  0.50995399  1
  In  In37  1  0.67592916  0.18154024  0.50411912  1
  In  In38  1  0.33685182  0.81131480  0.14561542  1
  In  In39  1  0.83953778  0.51682576  0.32430461  1
  In  In40  1  0.35719264  0.18926914  0.16466271  1
  In  In41  1  0.53099413  -0.00876557  0.16208277  1
  In  In42  1  0.83124631  0.64519743  0.83720231  1
  In  In43  1  0.64305863  0.64866315  0.68998073  1
  In  In44  1  0.67393023  0.80155976  0.12399338  1
  In  In45  1  0.49524212  -0.03000937  0.83240017  1
  In  In46  1  0.67455045  0.79594821  0.52188955  1
  In  In47  1  0.67891254  -0.00271775  0.32240097  1
  In  In48  1  0.29934790  0.16609128  0.49409019  1
  In  In49  1  0.16238901  0.18697185  0.33735516  1
  In  In50  1  0.35343027  0.53412803  0.52864394  1
  In  In51  1  0.17056832  -0.01350449  0.82504602  1
  In  In52  1  0.67830868  0.49840990  0.50448946  1
  In  In53  1  0.15890555  0.00617689  0.51490114  1
  In  In54  1  0.66481668  0.17150081  0.84066910  1
  In  In55  1  0.65998462  0.52325129  0.14724997  1
  In  In56  1  0.50768203  0.19066670  0.01850092  1
  In  In57  1  0.84351517  0.35047198  0.49524501  1
  In  In58  1  0.49509975  0.18294786  0.68390954  1
  In  In59  1  0.15703472  0.34304378  0.50853208  1
  In  In60  1  0.83916997  0.82439287  0.64422639  1
  In  In61  1  0.00614269  0.17008708  0.17625804  1
  In  In62  1  0.15827300  0.81984791  0.31649218  1
  In  In63  1  0.48226566  0.79695656  0.71849842  1
  In  In64  1  -0.01853931  0.50110198  0.16424463  1
  In  In65  1  0.34172455  0.65820465  -0.01517609  1
  In  In66  1  -0.00434471  0.00291208  0.65383462  1
  In  In67  1  0.35240735  0.51081492  0.14753997  1
  In  In68  1  0.82933793  0.51748632  -0.00300582  1
  In  In69  1  0.15584247  0.65011977  0.51344809  1
  In  In70  1  0.33032730  0.50426413  0.83150851  1
  In  In71  1  0.32240973  0.36521463  -0.00701836  1
  Te  Te72  1  0.08607359  0.11438963  0.05811795  1
  Te  Te73  1  0.07619557  0.10882042  0.43663625  1
  Te  Te74  1  0.06807228  0.08232059  0.76233726  1
  Te  Te75  1  0.09036939  0.43492290  0.07785276  1
  Te  Te76  1  0.06475671  0.42276305  0.42151522  1
  Te  Te77  1  0.05126578  0.47440247  0.72454740  1
  Te  Te78  1  0.08542594  0.75648792  0.07619802  1
  Te  Te79  1  0.07513274  0.73564998  0.41111632  1
  Te  Te80  1  0.08577400  0.73878266  0.74203599  1
  Te  Te81  1  0.41502968  0.06957734  0.08609391  1
  Te  Te82  1  0.42216129  0.08974217  0.42495067  1
  Te  Te83  1  0.41012548  0.07896871  0.75776259  1
  Te  Te84  1  0.43755152  0.41936758  0.06669946  1
  Te  Te85  1  0.40560653  0.43292679  0.42461121  1
  Te  Te86  1  0.42502124  0.42160535  0.73436261  1
  Te  Te87  1  0.43686296  0.71478619  0.09020451  1
  Te  Te88  1  0.40915081  0.71463272  0.41234271  1
  Te  Te89  1  0.35666160  0.72903256  0.76512396  1
  Te  Te90  1  0.72833300  0.09487697  0.08620290  1
  Te  Te91  1  0.76153929  0.08486508  0.41743794  1
  Te  Te92  1  0.74417370  0.08148553  0.74468555  1
  Te  Te93  1  0.76180601  0.41839682  0.08955332  1
  Te  Te94  1  0.74576333  0.41609866  0.39612110  1
  Te  Te95  1  0.74633082  0.43845990  0.75494878  1
  Te  Te96  1  0.77972040  0.74073542  0.03921292  1
  Te  Te97  1  0.75708116  0.74407604  0.40579472  1
  Te  Te98  1  0.75261339  0.75035960  0.74684690  1
  Te  Te99  1  0.06733009  0.28039207  0.26365711  1
  Te  Te100  1  0.11333973  0.24042474  0.60370458  1
  Te  Te101  1  0.10212234  0.27807920  0.91179930  1
  Te  Te102  1  0.07234636  0.59140521  0.25128248  1
  Te  Te103  1  0.07499765  0.54793735  0.59746361  1
  Te  Te104  1  0.06260306  0.55957175  0.90491085  1
  Te  Te105  1  0.08104485  0.92781973  0.23909849  1
  Te  Te106  1  0.10339184  0.90275607  0.61267670  1
  Te  Te107  1  0.08040242  0.90000530  0.91508004  1
  Te  Te108  1  0.42233001  0.30294495  0.23253638  1
  Te  Te109  1  0.40565196  0.25050566  0.57885243  1
  Te  Te110  1  0.41183376  0.24296921  0.90715521  1
  Te  Te111  1  0.42583014  0.59993265  0.24090254  1
  Te  Te112  1  0.45234373  0.60022192  0.61563976  1
  Te  Te113  1  0.44356709  0.58017379  0.90215556  1
  Te  Te114  1  0.42187570  0.90811233  0.24219498  1
  Te  Te115  1  0.42598628  0.90075673  0.58374869  1
  Te  Te116  1  0.42271671  0.87445197  0.91844092  1
  Te  Te117  1  0.72257475  0.24138004  0.21473927  1
  Te  Te118  1  0.74909985  0.27915349  0.59594813  1
  Te  Te119  1  0.77289631  0.25281040  0.91314014  1
  Te  Te120  1  0.77083436  0.60481259  0.21936950  1
  Te  Te121  1  0.75884368  0.59819919  0.59250938  1
  Te  Te122  1  0.72220526  0.56498428  0.90148700  1
  Te  Te123  1  0.74345576  0.89472034  0.23203241  1
  Te  Te124  1  0.74023304  0.92253289  0.58055524  1
  Te  Te125  1  0.75199806  0.86624484  0.92409370  1
  Te  Te126  1  0.25517424  0.24851503  0.06796454  1
  Te  Te127  1  0.26210597  0.28015475  0.40269141  1
  Te  Te128  1  0.19138911  0.27243318  0.73739401  1
  Te  Te129  1  0.24126265  0.57076700  0.06018245  1
  Te  Te130  1  0.25465627  0.58295735  0.41786118  1
  Te  Te131  1  0.27149343  0.60090499  0.72978604  1
  Te  Te132  1  0.23996194  0.89969288  0.06612336  1
  Te  Te133  1  0.23551746  0.90529033  0.42711823  1
  Te  Te134  1  0.27049114  0.89096640  0.76767055  1
  Te  Te135  1  0.59653876  0.26163734  0.11799608  1
  Te  Te136  1  0.59049869  0.26668532  0.40952043  1
  Te  Te137  1  0.59163026  0.27467469  0.75678885  1
  Te  Te138  1  0.57802767  0.62357660  0.07116091  1
  Te  Te139  1  0.57565931  0.58567323  0.43277313  1
  Te  Te140  1  0.52058922  0.59471840  0.75694492  1
  Te  Te141  1  0.56835743  0.89126662  0.05438375  1
  Te  Te142  1  0.59369307  0.90779712  0.41701909  1
  Te  Te143  1  0.59496471  0.90736631  0.73840837  1
  Te  Te144  1  0.90839229  0.26966778  0.10829245  1
  Te  Te145  1  0.91694987  0.24299840  0.42203645  1
  Te  Te146  1  0.94817286  0.28335007  0.73652715  1
  Te  Te147  1  0.91749330  0.60856910  0.07968641  1
  Te  Te148  1  0.94584679  0.55546246  0.42332075  1
  Te  Te149  1  0.95219648  0.59025713  0.76017859  1
  Te  Te150  1  0.91112392  0.89813520  0.08767209  1
  Te  Te151  1  0.90753663  0.88861789  0.39985155  1
  Te  Te152  1  0.91305601  0.91141305  0.75157803  1
  Te  Te153  1  0.24367303  0.09567715  0.24405514  1
  Te  Te154  1  0.23368339  0.09788938  0.61396549  1
  Te  Te155  1  0.24780984  0.08542669  0.91350579  1
  Te  Te156  1  0.25673440  0.42755360  0.23886549  1
  Te  Te157  1  0.24634711  0.44264267  0.58782273  1
  Te  Te158  1  0.22774454  0.41367394  0.88962464  1
  Te  Te159  1  0.26653214  0.73195805  0.25578480  1
  Te  Te160  1  0.24066145  0.73466126  0.60348558  1
  Te  Te161  1  0.24896121  0.74321712  0.90444627  1
  Te  Te162  1  0.57691617  0.09404072  0.26336487  1
  Te  Te163  1  0.59195958  0.09552966  0.60050954  1
  Te  Te164  1  0.57579692  0.07680934  0.92167400  1
  Te  Te165  1  0.60871254  0.43094841  0.25222621  1
  Te  Te166  1  0.59520632  0.42215121  0.60095350  1
  Te  Te167  1  0.60359509  0.44155871  0.91933100  1
  Te  Te168  1  0.59072373  0.74232966  0.24264226  1
  Te  Te169  1  0.55338739  0.73677506  0.58787684  1
  Te  Te170  1  0.57105685  0.69449462  0.93103216  1
  Te  Te171  1  0.91418323  0.07829141  0.25816938  1
  Te  Te172  1  0.91421320  0.10928663  0.58110134  1
  Te  Te173  1  0.91230509  0.06841081  0.91376780  1
  Te  Te174  1  0.90629301  0.40620251  0.24974172  1
  Te  Te175  1  0.94594998  0.42215156  0.58207907  1
  Te  Te176  1  0.94847944  0.45178452  0.91175724  1
  Te  Te177  1  0.89993847  0.75791282  0.29269752  1
  Te  Te178  1  0.94275861  0.72894415  0.59063235  1
  Te  Te179  1  0.90719531  0.72457768  0.94561368  1
