# generated using pymatgen
data_In2Te3
_symmetry_space_group_name_H-M   'P 1'
_cell_length_a   18.91186110
_cell_length_b   18.90819227
_cell_length_c   18.88850677
_cell_angle_alpha   89.91138264
_cell_angle_beta   89.97958550
_cell_angle_gamma   89.89620564
_symmetry_Int_Tables_number   1
_chemical_formula_structural   In2Te3
_chemical_formula_sum   'In72 Te108'
_cell_volume   6754.30466194
_cell_formula_units_Z   36
loop_
 _symmetry_equiv_pos_site_id
 _symmetry_equiv_pos_as_xyz
  1  'x, y, z'
loop_
 _atom_site_type_symbol
 _atom_site_label
 _atom_site_symmetry_multiplicity
 _atom_site_fract_x
 _atom_site_fract_y
 _atom_site_fract_z
 _atom_site_occupancy
  In  In0  1  0.14981376  0.12603205  0.69605279  1
  In  In1  1  0.50704561  0.69636326  0.83173539  1
  In  In2  1  0.35346686  -0.01705142  0.31146580  1
  In  In3  1  0.67088785  -0.01682119  0.67239574  1
  In  In4  1  0.15835635  0.51211872  0.66292664  1
  In  In5  1  0.36218078  0.33447689  -0.00774324  1
  In  In6  1  0.50318003  0.32512204  0.83936133  1
  In  In7  1  0.83891851  0.18154135  0.32448260  1
  In  In8  1  0.17811242  0.67611141  0.14139525  1
  In  In9  1  0.50965727  0.50896974  0.33984309  1
  In  In10  1  0.81073323  0.36156667  0.16772154  1
  In  In11  1  0.15511976  0.16144259  0.36778716  1
  In  In12  1  0.16517516  0.84262188  0.31417431  1
  In  In13  1  0.14577287  0.48928575  0.31844986  1
  In  In14  1  0.32791023  -0.03004286  -0.02151704  1
  In  In15  1  0.63402305  0.00494086  0.34761267  1
  In  In16  1  0.65566223  0.34540785  -0.00273640  1
  In  In17  1  -0.01631475  0.15127227  0.53271568  1
  In  In18  1  0.31850286  0.16439517  0.54027832  1
  In  In19  1  0.50838715  0.15520023  0.34757308  1
  In  In20  1  0.81845908  0.35414796  0.54218092  1
  In  In21  1  0.17456303  -0.01183187  0.16413188  1
  In  In22  1  0.69424786  -0.02317285  -0.00250195  1
  In  In23  1  0.83082694  -0.01907124  0.82855763  1
  In  In24  1  0.47731244  0.70049042  0.13975263  1
  In  In25  1  0.64064009  0.50451934  0.51880932  1
  In  In26  1  -0.02510627  0.68650705  0.32407241  1
  In  In27  1  0.84509469  0.64583905  0.14183933  1
  In  In28  1  0.35678511  0.49894325  0.81727193  1
  In  In29  1  -0.00687838  0.34137284  0.33884293  1
  In  In30  1  0.16223794  0.34899039  0.15049570  1
  In  In31  1  0.66692199  0.83375170  0.14597575  1
  In  In32  1  0.51566161  0.15879365  0.67465304  1
  In  In33  1  0.83329231  -0.00993241  0.53245965  1
  In  In34  1  0.50420387  0.49663067  -0.01303112  1
  In  In35  1  0.18216147  0.35630819  0.50303506  1
  In  In36  1  0.81891383  0.68016983  0.51636107  1
  In  In37  1  0.34477648  0.65968093  0.35217041  1
  In  In38  1  -0.00410669  0.51235902  0.81420855  1
  In  In39  1  0.18929882  0.14410805  -0.03400149  1
  In  In40  1  0.00497024  0.31760054  0.65998655  1
  In  In41  1  0.67618847  0.18843690  0.49532663  1
  In  In42  1  0.85012813  0.15766729  -0.01878570  1
  In  In43  1  0.01357285  0.17256346  0.13425817  1
  In  In44  1  -0.01198025  0.82584310  0.52040751  1
  In  In45  1  0.34468022  0.17029074  0.16843040  1
  In  In46  1  0.51281578  0.16221132  -0.01499159  1
  In  In47  1  0.33585182  0.83792580  0.52061615  1
  In  In48  1  0.17395838  0.85193454  0.69038900  1
  In  In49  1  0.83201183  0.83820976  -0.01885676  1
  In  In50  1  0.65872266  0.52605479  0.15999742  1
  In  In51  1  0.80387956  0.65184025  0.84430674  1
  In  In52  1  0.83730703  -0.00250140  0.15596925  1
  In  In53  1  0.47829901  -0.02041649  0.52132249  1
  In  In54  1  0.34617231  0.36690603  0.32297795  1
  In  In55  1  0.81661866  0.53066610  0.33016739  1
  In  In56  1  0.16437094  0.66038324  0.51241919  1
  In  In57  1  0.35898376  0.54870614  0.53381576  1
  In  In58  1  0.18508390  0.69783548  0.84583517  1
  In  In59  1  0.83816444  0.32981663  0.80988439  1
  In  In60  1  -0.00016122  0.83389987  0.83741895  1
  In  In61  1  0.81282637  0.82789233  0.35385497  1
  In  In62  1  0.02151642  0.35303935  -0.01010525  1
  In  In63  1  0.18029398  0.51574321  -0.00738487  1
  In  In64  1  0.64787598  0.67163001  0.66655437  1
  In  In65  1  0.49578418  -0.03118759  0.15860864  1
  In  In66  1  0.15595899  0.01700281  0.50639480  1
  In  In67  1  0.66359312  0.33856983  0.66762165  1
  In  In68  1  0.66140502  0.32576873  0.33764817  1
  In  In69  1  0.51285788  -0.02289248  0.83402268  1
  In  In70  1  0.18393306  0.29370652  0.82788046  1
  In  In71  1  0.01651446  0.82504082  0.14078471  1
  Te  Te72  1  0.09585189  0.06690122  0.06094907  1
  Te  Te73  1  0.04494824  0.07181112  0.41582630  1
  Te  Te74  1  0.07615074  0.03466058  0.78408874  1
  Te  Te75  1  0.06578463  0.45588980  0.09683549  1
  Te  Te76  1  0.06718238  0.43154024  0.43660280  1
  Te  Te77  1  0.09901281  0.40238514  0.75797556  1
  Te  Te78  1  0.10443344  0.76024424  0.04432693  1
  Te  Te79  1  0.08578873  0.75957365  0.41570287  1
  Te  Te80  1  0.08212729  0.74412694  0.74279989  1
  Te  Te81  1  0.40962730  0.07324462  0.07028803  1
  Te  Te82  1  0.39744113  0.08055706  0.42226127  1
  Te  Te83  1  0.43029910  0.07240892  0.75760263  1
  Te  Te84  1  0.43645604  0.41280435  0.08900437  1
  Te  Te85  1  0.41439383  0.43996841  0.43559088  1
  Te  Te86  1  0.42456833  0.39737593  0.73666038  1
  Te  Te87  1  0.37355672  0.77580852  0.06187929  1
  Te  Te88  1  0.42456823  0.73982234  0.44907396  1
  Te  Te89  1  0.41378927  0.72808535  0.71826488  1
  Te  Te90  1  0.74993111  0.09519151  0.07824156  1
  Te  Te91  1  0.75612930  0.08712752  0.41125884  1
  Te  Te92  1  0.73920313  0.07511842  0.76377070  1
  Te  Te93  1  0.75544430  0.45612125  0.05745513  1
  Te  Te94  1  0.75557772  0.41657599  0.41419886  1
  Te  Te95  1  0.75829290  0.42842597  0.73572715  1
  Te  Te96  1  0.75133022  0.73592328  0.06344794  1
  Te  Te97  1  0.71818870  0.74786799  0.43107049  1
  Te  Te98  1  0.72794622  0.75337684  0.76280122  1
  Te  Te99  1  0.08666040  0.25562121  0.25255132  1
  Te  Te100  1  0.10364185  0.23977047  0.56839153  1
  Te  Te101  1  0.07397397  0.23268173  0.91339578  1
  Te  Te102  1  0.08500080  0.61229163  0.25194380  1
  Te  Te103  1  0.06038173  0.59635185  0.59306806  1
  Te  Te104  1  0.08604864  0.59480712  0.90673060  1
  Te  Te105  1  0.06198870  0.92945688  0.24689321  1
  Te  Te106  1  0.07569646  0.92434260  0.59658395  1
  Te  Te107  1  0.12434132  0.91538429  0.87072798  1
  Te  Te108  1  0.42988001  0.25680090  0.25781063  1
  Te  Te109  1  0.42856985  0.24483666  0.58853955  1
  Te  Te110  1  0.40348603  0.22456360  0.89860612  1
  Te  Te111  1  0.42820688  0.59376444  0.24416732  1
  Te  Te112  1  0.45146171  0.60007255  0.64591517  1
  Te  Te113  1  0.41461616  0.59563415  0.91530810  1
  Te  Te114  1  0.44301078  0.87595456  0.26281468  1
  Te  Te115  1  0.42489894  0.89151339  0.63076842  1
  Te  Te116  1  0.39930425  0.87669353  0.88049528  1
  Te  Te117  1  0.73522671  0.24445063  0.23280536  1
  Te  Te118  1  0.76513966  0.23074888  0.60850191  1
  Te  Te119  1  0.75446433  0.25813207  0.91967010  1
  Te  Te120  1  0.73301280  0.62428463  0.24863993  1
  Te  Te121  1  0.74824827  0.57307727  0.59911561  1
  Te  Te122  1  0.74886973  0.57941508  0.95997544  1
  Te  Te123  1  0.73779642  0.92946090  0.25035495  1
  Te  Te124  1  0.72450065  0.89791192  0.56343397  1
  Te  Te125  1  0.71031031  0.86660018  0.88531972  1
  Te  Te126  1  0.24530075  0.24505101  0.07585516  1
  Te  Te127  1  0.26197303  0.26666081  0.40502875  1
  Te  Te128  1  0.25253763  0.23010872  0.71421092  1
  Te  Te129  1  0.27619493  0.58713031  0.07558505  1
  Te  Te130  1  0.24033558  0.56732310  0.41796092  1
  Te  Te131  1  0.24950954  0.58827600  0.75795849  1
  Te  Te132  1  0.28054715  0.90117937  0.10544322  1
  Te  Te133  1  0.24558658  0.92337336  0.41753330  1
  Te  Te134  1  0.26631479  0.90817670  0.79338653  1
  Te  Te135  1  0.56296566  0.26461481  0.07793088  1
  Te  Te136  1  0.56123936  0.26927864  0.43589935  1
  Te  Te137  1  0.60533257  0.23932296  0.76718355  1
  Te  Te138  1  0.57480653  0.60805908  0.06451692  1
  Te  Te139  1  0.59172256  0.60135655  0.41962737  1
  Te  Te140  1  0.58388889  0.58449273  0.76980886  1
  Te  Te141  1  0.56668774  0.89568389  0.04445759  1
  Te  Te142  1  0.56459394  0.90467833  0.42815489  1
  Te  Te143  1  0.56443047  0.89122692  0.72185776  1
  Te  Te144  1  0.91546076  0.27822810  0.08528942  1
  Te  Te145  1  0.91214169  0.25598543  0.43587282  1
  Te  Te146  1  0.93491101  0.23275370  0.75624168  1
  Te  Te147  1  0.95583615  0.56858102  0.09334345  1
  Te  Te148  1  0.91422626  0.59541275  0.42685898  1
  Te  Te149  1  0.90369025  0.60285015  0.74617715  1
  Te  Te150  1  0.92963333  0.92511430  0.06051836  1
  Te  Te151  1  0.91330780  0.91631897  0.42192361  1
  Te  Te152  1  0.89396322  0.87923778  0.74066341  1
  Te  Te153  1  0.24394943  0.09087185  0.25577481  1
  Te  Te154  1  0.25958834  0.04841141  0.61296732  1
  Te  Te155  1  0.27326746  0.06335745  0.87394784  1
  Te  Te156  1  0.25760548  0.44189511  0.22472317  1
  Te  Te157  1  0.27099151  0.43412061  0.59546656  1
  Te  Te158  1  0.25272082  0.40547262  0.91324840  1
  Te  Te159  1  0.26148997  0.74434128  0.25565084  1
  Te  Te160  1  0.25098020  0.74400282  0.60349558  1
  Te  Te161  1  0.29139825  0.75976460  0.92945211  1
  Te  Te162  1  0.57289178  0.08104121  0.23040060  1
  Te  Te163  1  0.59109732  0.08050162  0.56215805  1
  Te  Te164  1  0.60799747  0.07182810  0.91108604  1
  Te  Te165  1  0.58774726  0.41997529  0.24356474  1
  Te  Te166  1  0.55688641  0.41736354  0.60174086  1
  Te  Te167  1  0.59947315  0.43353793  0.88680653  1
  Te  Te168  1  0.57273634  0.76303462  0.23713797  1
  Te  Te169  1  0.53244477  0.70998013  0.57736005  1
  Te  Te170  1  0.58947786  0.77777323  0.92518181  1
  Te  Te171  1  0.92550106  0.09564204  0.23342659  1
  Te  Te172  1  0.91527097  0.06431650  0.62819759  1
  Te  Te173  1  0.92875651  0.05761205  0.90831149  1
  Te  Te174  1  0.91190982  0.43774198  0.25321318  1
  Te  Te175  1  0.92858931  0.42840187  0.60076201  1
  Te  Te176  1  0.91656771  0.42339193  0.90846291  1
  Te  Te177  1  0.89823038  0.77684690  0.22926156  1
  Te  Te178  1  0.89141292  0.76594452  0.61501810  1
  Te  Te179  1  0.91902280  0.73304809  0.91829427  1
