# generated using pymatgen
data_In2Te3
_symmetry_space_group_name_H-M   'P 1'
_cell_length_a   18.77135959
_cell_length_b   18.77069947
_cell_length_c   18.76415870
_cell_angle_alpha   90.01823515
_cell_angle_beta   90.02292465
_cell_angle_gamma   89.95102804
_symmetry_Int_Tables_number   1
_chemical_formula_structural   In2Te3
_chemical_formula_sum   'In72 Te108'
_cell_volume   6611.57711599
_cell_formula_units_Z   36
loop_
 _symmetry_equiv_pos_site_id
 _symmetry_equiv_pos_as_xyz
  1  'x, y, z'
loop_
 _atom_site_type_symbol
 _atom_site_label
 _atom_site_symmetry_multiplicity
 _atom_site_fract_x
 _atom_site_fract_y
 _atom_site_fract_z
 _atom_site_occupancy
  In  In0  1  0.86208752  0.37005194  0.85752407  1
  In  In1  1  0.66963142  0.81643888  0.49693567  1
  In  In2  1  0.31877277  0.51846194  0.16826453  1
  In  In3  1  0.34817035  -0.02836841  0.67956851  1
  In  In4  1  0.67002712  0.49370546  0.15889163  1
  In  In5  1  0.85989320  0.65499764  0.15371066  1
  In  In6  1  0.83816744  0.17048270  0.02027745  1
  In  In7  1  0.03266260  0.35399314  0.69201792  1
  In  In8  1  0.01369976  0.82740586  0.14538834  1
  In  In9  1  0.51108414  0.17239948  0.33736389  1
  In  In10  1  0.50329637  -0.01348702  0.14061738  1
  In  In11  1  0.30664069  0.65615158  0.69575465  1
  In  In12  1  0.68309978  0.00708801  0.32857973  1
  In  In13  1  0.49697626  0.33351626  0.83342001  1
  In  In14  1  0.31447655  0.00038520  -0.00911001  1
  In  In15  1  0.66046246  0.82616289  0.84098925  1
  In  In16  1  0.83714261  0.84356593  0.01125869  1
  In  In17  1  0.17817196  0.83383090  0.68898011  1
  In  In18  1  0.01825013  0.64526335  -0.00978874  1
  In  In19  1  0.31084436  -0.01281941  0.34298906  1
  In  In20  1  0.30851194  0.34994743  0.66210139  1
  In  In21  1  0.85544716  0.83874423  0.67186978  1
  In  In22  1  0.81110372  0.83893653  0.33731208  1
  In  In23  1  0.83967216  0.16767032  0.65411269  1
  In  In24  1  -0.00315418  0.63289166  0.31475132  1
  In  In25  1  0.67570496  0.33534509  0.01184407  1
  In  In26  1  0.17783235  -0.02760564  0.48482023  1
  In  In27  1  0.69163082  0.33482977  0.68575374  1
  In  In28  1  0.02741173  -0.01997453  -0.02728918  1
  In  In29  1  0.49785789  0.51048352  0.69279589  1
  In  In30  1  0.84979616  -0.02413095  0.83426776  1
  In  In31  1  0.00622992  0.19645786  0.15774808  1
  In  In32  1  0.31102717  0.65722583  -0.00835340  1
  In  In33  1  0.50021960  -0.00951384  0.53890417  1
  In  In34  1  0.48608470  0.00412980  0.84142802  1
  In  In35  1  0.84753469  0.48542890  0.67355834  1
  In  In36  1  0.31291807  0.79280462  0.16709688  1
  In  In37  1  0.83551149  0.64437981  0.85696741  1
  In  In38  1  0.48325750  0.82483000  0.33966894  1
  In  In39  1  0.32511442  0.82068487  0.82887928  1
  In  In40  1  0.31936176  0.36350462  0.32702280  1
  In  In41  1  0.83510581  0.01863776  0.49272969  1
  In  In42  1  -0.01853906  0.17691626  0.49808473  1
  In  In43  1  0.48578091  0.49306271  0.31448237  1
  In  In44  1  0.65629378  0.84811999  0.18494743  1
  In  In45  1  0.65554996  0.15920224  0.84887070  1
  In  In46  1  0.15411731  0.50286931  0.32614212  1
  In  In47  1  0.01772889  0.19778191  0.84968560  1
  In  In48  1  0.16447295  0.35720192  0.48899565  1
  In  In49  1  0.29573984  0.34683238  -0.02574896  1
  In  In50  1  0.15669703  -0.00274443  0.15245323  1
  In  In51  1  0.31776237  0.19508105  0.13757545  1
  In  In52  1  0.17279808  0.64893309  0.49434160  1
  In  In53  1  0.32689476  0.15889530  0.84167306  1
  In  In54  1  0.87879389  0.48724659  0.31471528  1
  In  In55  1  0.49147684  0.66462396  0.50650091  1
  In  In56  1  0.65383665  0.65436612  0.66929275  1
  In  In57  1  0.02190657  0.81697678  0.50424018  1
  In  In58  1  -0.00820011  0.01250780  0.30888567  1
  In  In59  1  0.65854057  0.65958800  -0.00366402  1
  In  In60  1  0.33516051  0.17545145  0.50188238  1
  In  In61  1  0.47587606  0.51114446  -0.01340171  1
  In  In62  1  0.66466789  0.68586411  0.32981362  1
  In  In63  1  0.84740225  0.33292544  0.49115675  1
  In  In64  1  0.69675080  0.19679455  0.17288348  1
  In  In65  1  0.64667930  0.00911799  0.66784684  1
  In  In66  1  0.17066247  0.15985488  0.68547142  1
  In  In67  1  0.67800098  0.49070144  0.50678110  1
  In  In68  1  0.51031599  0.33808752  0.15914068  1
  In  In69  1  0.49496632  0.32906842  0.48656291  1
  In  In70  1  0.13384865  0.17367891  0.30048726  1
  In  In71  1  0.04402683  0.65963927  0.68100243  1
  Te  Te72  1  0.07875166  0.09430998  0.06641329  1
  Te  Te73  1  0.08503489  0.08044620  0.42038798  1
  Te  Te74  1  0.07107213  0.08699456  0.76674653  1
  Te  Te75  1  0.04867885  0.38648197  0.04254966  1
  Te  Te76  1  0.05986304  0.41498588  0.40250784  1
  Te  Te77  1  0.12095629  0.44027445  0.77321927  1
  Te  Te78  1  0.10445669  0.72805426  0.08412767  1
  Te  Te79  1  0.08618227  0.73191693  0.39738487  1
  Te  Te80  1  0.09760661  0.75309772  0.79083507  1
  Te  Te81  1  0.40713617  0.08965396  0.07462958  1
  Te  Te82  1  0.41932533  0.07592954  0.41699213  1
  Te  Te83  1  0.41930261  0.09365061  0.73669174  1
  Te  Te84  1  0.40012410  0.41216032  0.08428245  1
  Te  Te85  1  0.40253332  0.43717273  0.43233767  1
  Te  Te86  1  0.39457301  0.42485620  0.76659032  1
  Te  Te87  1  0.40829045  0.73998307  0.06944241  1
  Te  Te88  1  0.39995203  0.72014233  0.40346040  1
  Te  Te89  1  0.41828357  0.73702100  0.74981742  1
  Te  Te90  1  0.73675686  0.08499752  0.08298347  1
  Te  Te91  1  0.75600063  0.10835127  0.40763229  1
  Te  Te92  1  0.75763195  0.07886971  0.75065229  1
  Te  Te93  1  0.77326478  0.40589773  0.09802727  1
  Te  Te94  1  0.76326725  0.42318757  0.40130797  1
  Te  Te95  1  0.74510052  0.44175737  0.77763910  1
  Te  Te96  1  0.75027534  0.74848000  0.09637253  1
  Te  Te97  1  0.77363921  0.72565770  0.43333138  1
  Te  Te98  1  0.76058880  0.74625955  0.75394338  1
  Te  Te99  1  0.06430931  0.30108120  0.25537308  1
  Te  Te100  1  0.09163195  0.24824955  0.58390336  1
  Te  Te101  1  0.09657147  0.29343665  0.93105367  1
  Te  Te102  1  0.08752919  0.57470012  0.21176333  1
  Te  Te103  1  0.09172267  0.55836374  0.58187904  1
  Te  Te104  1  0.11197070  0.56694275  0.89869186  1
  Te  Te105  1  0.09036514  0.90875492  0.25775678  1
  Te  Te106  1  0.08751121  0.91848048  0.59664231  1
  Te  Te107  1  0.09887509  0.87111592  0.90314457  1
  Te  Te108  1  0.40977083  0.25470312  0.25335903  1
  Te  Te109  1  0.41723439  0.25879156  0.59856805  1
  Te  Te110  1  0.41137097  0.25207923  0.92967859  1
  Te  Te111  1  0.40680296  0.60213144  0.25322550  1
  Te  Te112  1  0.40294779  0.57943226  0.59604226  1
  Te  Te113  1  0.39679580  0.58848581  0.88906169  1
  Te  Te114  1  0.40598802  0.91837581  0.23927496  1
  Te  Te115  1  0.39668325  0.89124566  0.56609179  1
  Te  Te116  1  0.41205248  0.90192710  0.92653763  1
  Te  Te117  1  0.80116581  0.24005439  0.26714819  1
  Te  Te118  1  0.74424173  0.24989835  0.56930668  1
  Te  Te119  1  0.76088621  0.25634885  0.90396997  1
  Te  Te120  1  0.75393530  0.58862904  0.25055598  1
  Te  Te121  1  0.76416806  0.58488103  0.58978817  1
  Te  Te122  1  0.75887480  0.56081576  0.95127587  1
  Te  Te123  1  0.77356381  0.93759589  0.22694607  1
  Te  Te124  1  0.75108929  0.91584100  0.58269932  1
  Te  Te125  1  0.73975588  0.92659478  0.92693660  1
  Te  Te126  1  0.20778621  0.26299576  0.06375434  1
  Te  Te127  1  0.24278356  0.24682540  0.40352806  1
  Te  Te128  1  0.23996831  0.26592428  0.77018345  1
  Te  Te129  1  0.21381482  0.59635320  0.09357136  1
  Te  Te130  1  0.26038889  0.57770557  0.39704586  1
  Te  Te131  1  0.21278199  0.56851178  0.77355591  1
  Te  Te132  1  0.23952407  0.89785205  0.07521867  1
  Te  Te133  1  0.25007673  0.86432655  0.40544007  1
  Te  Te134  1  0.23872943  0.94371017  0.77765558  1
  Te  Te135  1  0.57860258  0.23514481  0.07279674  1
  Te  Te136  1  0.60112795  0.26601185  0.40662101  1
  Te  Te137  1  0.58286579  0.24312970  0.74369066  1
  Te  Te138  1  0.56461488  0.58014932  0.09200895  1
  Te  Te139  1  0.58681522  0.57809839  0.41616354  1
  Te  Te140  1  0.58611329  0.58905640  0.78232105  1
  Te  Te141  1  0.58445341  0.89147620  0.06347322  1
  Te  Te142  1  0.58859864  0.91450799  0.41109373  1
  Te  Te143  1  0.56707286  0.90991793  0.74962693  1
  Te  Te144  1  0.91477895  0.28901493  0.07481992  1
  Te  Te145  1  0.91223811  0.24592585  0.38395425  1
  Te  Te146  1  0.91066138  0.26749204  0.74529740  1
  Te  Te147  1  0.92913231  0.55397174  0.07109905  1
  Te  Te148  1  0.92073286  0.57498237  0.42674716  1
  Te  Te149  1  0.93245779  0.57989169  0.75800895  1
  Te  Te150  1  0.93014105  0.94032798  0.08505869  1
  Te  Te151  1  0.92456396  0.91407878  0.42039864  1
  Te  Te152  1  0.95391130  0.90060510  0.76325945  1
  Te  Te153  1  0.25415820  0.08885113  0.23918963  1
  Te  Te154  1  0.25292185  0.07379283  0.58154171  1
  Te  Te155  1  0.22147641  0.09162439  0.92099143  1
  Te  Te156  1  0.22722239  0.40668646  0.21791867  1
  Te  Te157  1  0.23026301  0.45110313  0.58394989  1
  Te  Te158  1  0.23644085  0.47215837  0.91927501  1
  Te  Te159  1  0.22326780  0.77134770  0.28054070  1
  Te  Te160  1  0.24926980  0.74681368  0.58646304  1
  Te  Te161  1  0.21913610  0.75278523  0.91244438  1
  Te  Te162  1  0.58321596  0.08186054  0.23613010  1
  Te  Te163  1  0.59262434  0.10045039  0.56541007  1
  Te  Te164  1  0.57724503  0.07181733  0.93629467  1
  Te  Te165  1  0.59976721  0.40303736  0.26273814  1
  Te  Te166  1  0.58211428  0.41620268  0.59979283  1
  Te  Te167  1  0.58401762  0.42094356  0.92341469  1
  Te  Te168  1  0.55965696  0.74066313  0.23488639  1
  Te  Te169  1  0.57013662  0.76057913  0.59695768  1
  Te  Te170  1  0.56575254  0.73880406  0.91314054  1
  Te  Te171  1  0.90685624  0.11183132  0.23821104  1
  Te  Te172  1  0.93689281  0.06560655  0.59720509  1
  Te  Te173  1  0.91829747  0.08935116  0.91471971  1
  Te  Te174  1  0.94741351  0.39941693  0.21846469  1
  Te  Te175  1  0.94271080  0.41240767  0.58004251  1
  Te  Te176  1  0.96596857  0.44987916  0.92706309  1
  Te  Te177  1  0.91610273  0.76264041  0.25237465  1
  Te  Te178  1  0.93355510  0.73282948  0.59446919  1
  Te  Te179  1  0.92123708  0.75092510  0.92627386  1
