# generated using pymatgen
data_In2Te3
_symmetry_space_group_name_H-M   'P 1'
_cell_length_a   19.07457633
_cell_length_b   19.05216613
_cell_length_c   19.04103932
_cell_angle_alpha   89.87438476
_cell_angle_beta   89.91286520
_cell_angle_gamma   89.84250503
_symmetry_Int_Tables_number   1
_chemical_formula_structural   In2Te3
_chemical_formula_sum   'In72 Te108'
_cell_volume   6919.69141384
_cell_formula_units_Z   36
loop_
 _symmetry_equiv_pos_site_id
 _symmetry_equiv_pos_as_xyz
  1  'x, y, z'
loop_
 _atom_site_type_symbol
 _atom_site_label
 _atom_site_symmetry_multiplicity
 _atom_site_fract_x
 _atom_site_fract_y
 _atom_site_fract_z
 _atom_site_occupancy
  In  In0  1  0.49342696  0.81023899  -0.00016999  1
  In  In1  1  0.51039938  0.35933384  0.51608441  1
  In  In2  1  0.16183710  0.01657828  0.81767046  1
  In  In3  1  0.68359002  0.01184196  0.67232241  1
  In  In4  1  0.50682367  0.31931850  0.14075296  1
  In  In5  1  0.49647072  0.49735633  0.67696781  1
  In  In6  1  0.33828549  0.84400862  0.51150449  1
  In  In7  1  0.13118005  0.63347428  0.76860766  1
  In  In8  1  0.84391737  0.50015013  0.35882649  1
  In  In9  1  0.15520709  0.35125584  0.79999642  1
  In  In10  1  -0.01819617  0.64438856  0.36319357  1
  In  In11  1  0.00471393  0.17506756  0.18075846  1
  In  In12  1  0.16186994  0.15780339  0.66170954  1
  In  In13  1  0.00602709  0.32419093  0.36763479  1
  In  In14  1  0.14094738  0.01891421  0.50593717  1
  In  In15  1  0.51002024  0.14892666  0.32665598  1
  In  In16  1  0.48986341  0.69084526  0.17445823  1
  In  In17  1  0.84587672  0.17850883  -0.01772996  1
  In  In18  1  0.68942535  0.16234924  0.50528802  1
  In  In19  1  0.82502352  0.31880480  0.15294083  1
  In  In20  1  0.33367257  0.65364672  0.66536140  1
  In  In21  1  0.49763915  0.82268534  0.33958019  1
  In  In22  1  0.86144151  0.64759227  0.79427278  1
  In  In23  1  0.47474294  -0.00055750  0.18209412  1
  In  In24  1  0.49705292  -0.00622204  0.84614012  1
  In  In25  1  0.32613330  0.81751910  0.14196559  1
  In  In26  1  0.67799303  0.48736552  0.80478007  1
  In  In27  1  0.15576015  0.51702034  -0.02673197  1
  In  In28  1  0.33788684  0.14735718  0.16773767  1
  In  In29  1  0.67374461  0.10521311  0.01826492  1
  In  In30  1  0.65527197  0.65228244  -0.01669250  1
  In  In31  1  0.01099192  0.84840882  0.15249255  1
  In  In32  1  0.82660292  0.01156927  0.86025124  1
  In  In33  1  0.84512397  0.01579060  0.51537078  1
  In  In34  1  0.84918221  0.84644314  0.34548902  1
  In  In35  1  0.70084310  0.82729290  0.83312748  1
  In  In36  1  0.13838938  0.80488121  0.33477764  1
  In  In37  1  0.16439169  0.17931667  0.36045754  1
  In  In38  1  0.01604926  0.35706465  -0.03871375  1
  In  In39  1  0.66896758  -0.04086185  0.32759554  1
  In  In40  1  0.66012915  0.50679557  0.18503193  1
  In  In41  1  0.15115620  0.86119471  0.66576164  1
  In  In42  1  0.65574646  0.58233149  0.51904381  1
  In  In43  1  0.83831963  0.49267611  0.00743402  1
  In  In44  1  0.15433820  0.18625391  0.00582269  1
  In  In45  1  0.66904506  0.32981938  0.32374282  1
  In  In46  1  0.46299216  0.49607537  -0.08882325  1
  In  In47  1  0.31364827  0.50937224  0.14853417  1
  In  In48  1  0.32493764  0.00189074  0.00558667  1
  In  In49  1  0.84233547  0.81319412  0.65593873  1
  In  In50  1  0.85187838  0.66745882  0.14896142  1
  In  In51  1  0.67170346  0.80756956  0.48163471  1
  In  In52  1  0.84632345  0.18514708  0.33225239  1
  In  In53  1  0.00998723  0.47336023  0.17303640  1
  In  In54  1  0.84744520  0.36408531  0.54210478  1
  In  In55  1  0.17640032  0.33610187  0.52463668  1
  In  In56  1  0.84166840  0.19135654  0.67734119  1
  In  In57  1  -0.00696383  0.84483869  0.83946779  1
  In  In58  1  0.31696151  0.01743372  0.36343808  1
  In  In59  1  0.17506937  0.82024541  -0.00691359  1
  In  In60  1  0.52770946  0.32994397  0.83680106  1
  In  In61  1  0.32976329  0.48042490  0.50315857  1
  In  In62  1  0.84534811  0.84189854  0.00160279  1
  In  In63  1  0.32876462  0.68683804  0.32458044  1
  In  In64  1  0.17326810  0.48133140  0.33081624  1
  In  In65  1  0.51248092  0.19381284  0.67093256  1
  In  In66  1  0.30139143  0.81766966  0.81111891  1
  In  In67  1  0.33775808  0.33620614  -0.00658735  1
  In  In68  1  0.35072573  0.18950913  0.82492958  1
  In  In69  1  0.15465238  0.63889145  0.52641787  1
  In  In70  1  0.51629803  0.82302751  0.64668832  1
  In  In71  1  0.65665150  0.82340683  0.18604082  1
  Te  Te72  1  0.08412495  0.09196184  0.08950965  1
  Te  Te73  1  0.05557287  0.09923682  0.41761410  1
  Te  Te74  1  0.06031056  0.07249374  0.72812237  1
  Te  Te75  1  0.10254140  0.40994325  0.07317703  1
  Te  Te76  1  0.08379591  0.42859933  0.43974118  1
  Te  Te77  1  0.03965360  0.43335310  0.75197570  1
  Te  Te78  1  0.07005341  0.74937743  0.06368246  1
  Te  Te79  1  0.06629719  0.73531254  0.44901298  1
  Te  Te80  1  0.05534615  0.76391140  0.72928152  1
  Te  Te81  1  0.43323292  0.08644669  0.06602627  1
  Te  Te82  1  0.42489168  0.08716915  0.42788860  1
  Te  Te83  1  0.42752194  0.08626260  0.74821119  1
  Te  Te84  1  0.42695189  0.43115121  0.06840965  1
  Te  Te85  1  0.42867133  0.42348711  0.41361071  1
  Te  Te86  1  0.42101166  0.42204723  0.78337226  1
  Te  Te87  1  0.38862768  0.71031302  0.05038910  1
  Te  Te88  1  0.41736811  0.73889278  0.43554951  1
  Te  Te89  1  0.41788571  0.75202463  0.74180664  1
  Te  Te90  1  0.80120433  0.08565996  0.08767243  1
  Te  Te91  1  0.75058708  0.06795846  0.40252291  1
  Te  Te92  1  0.74971489  0.10418314  0.76712137  1
  Te  Te93  1  0.73332236  0.41751006  0.08537401  1
  Te  Te94  1  0.75073489  0.40324942  0.42560103  1
  Te  Te95  1  0.78961832  0.40484770  0.75826848  1
  Te  Te96  1  0.73713054  0.74162328  0.08045854  1
  Te  Te97  1  0.77950957  0.73303156  0.41262410  1
  Te  Te98  1  0.74553571  0.72445793  0.73298118  1
  Te  Te99  1  0.09322617  0.26966898  0.25804833  1
  Te  Te100  1  0.07053039  0.25537683  0.59255676  1
  Te  Te101  1  0.08519933  0.24526330  0.88536887  1
  Te  Te102  1  0.07427833  0.57504680  0.26340247  1
  Te  Te103  1  0.06436085  0.59147158  0.63364828  1
  Te  Te104  1  0.05526680  0.56229513  0.87574002  1
  Te  Te105  1  0.06881401  0.91374675  0.26914884  1
  Te  Te106  1  0.05552180  0.91544267  0.56770633  1
  Te  Te107  1  0.09335161  0.92568658  0.91585362  1
  Te  Te108  1  0.42496380  0.24267711  0.24468834  1
  Te  Te109  1  0.42072572  0.27820469  0.59641861  1
  Te  Te110  1  0.44090348  0.24657236  0.93001964  1
  Te  Te111  1  0.41032434  0.58822365  0.24683220  1
  Te  Te112  1  0.42297640  0.57828926  0.57121475  1
  Te  Te113  1  0.40514986  0.62658841  0.92037491  1
  Te  Te114  1  0.39447749  0.89684875  0.25685801  1
  Te  Te115  1  0.42876623  0.92417120  0.59076347  1
  Te  Te116  1  0.39116359  0.89699953  0.91820585  1
  Te  Te117  1  0.73806612  0.22793551  0.23653820  1
  Te  Te118  1  0.73939150  0.26995632  0.59640032  1
  Te  Te119  1  0.71227230  0.23768004  0.95509293  1
  Te  Te120  1  0.77650760  0.57886956  0.24690245  1
  Te  Te121  1  0.79444957  0.57743632  0.57113655  1
  Te  Te122  1  0.76890720  0.58652911  0.90845262  1
  Te  Te123  1  0.77310801  0.90984043  0.22934016  1
  Te  Te124  1  0.74400329  0.90862673  0.57702683  1
  Te  Te125  1  0.73054631  0.92168194  0.94395786  1
  Te  Te126  1  0.25921491  0.25237934  0.09095473  1
  Te  Te127  1  0.25847495  0.26698134  0.42610014  1
  Te  Te128  1  0.25442090  0.25736135  0.73259969  1
  Te  Te129  1  0.21714448  0.59516246  0.08068696  1
  Te  Te130  1  0.24776054  0.59305236  0.41393899  1
  Te  Te131  1  0.25283890  0.55261495  0.73493411  1
  Te  Te132  1  0.23281071  0.92594537  0.09441374  1
  Te  Te133  1  0.23933779  0.89678863  0.41032624  1
  Te  Te134  1  0.26065187  0.94025515  0.73255484  1
  Te  Te135  1  0.60556400  0.23088364  0.07846698  1
  Te  Te136  1  0.58950185  0.24432328  0.42200922  1
  Te  Te137  1  0.61605452  0.27294036  0.73657396  1
  Te  Te138  1  0.57339157  0.59197424  0.09432667  1
  Te  Te139  1  0.60371574  0.60030784  0.38601389  1
  Te  Te140  1  0.58223668  0.58542767  0.75650945  1
  Te  Te141  1  0.55995196  0.90133315  0.09844675  1
  Te  Te142  1  0.57063625  0.91573098  0.43166061  1
  Te  Te143  1  0.59726424  0.91316519  0.75252391  1
  Te  Te144  1  0.94238017  0.27435717  0.07101993  1
  Te  Te145  1  0.90489869  0.25109504  0.45190847  1
  Te  Te146  1  0.87923150  0.28195798  0.78884989  1
  Te  Te147  1  0.94503970  0.57283097  0.07661572  1
  Te  Te148  1  0.92713413  0.55365161  0.46913703  1
  Te  Te149  1  0.93215464  0.54780385  0.71076248  1
  Te  Te150  1  0.92662304  0.93834949  0.07189310  1
  Te  Te151  1  0.92855785  0.91241338  0.45004044  1
  Te  Te152  1  0.88938661  0.91503602  0.75559617  1
  Te  Te153  1  0.23637293  0.08282638  0.25746467  1
  Te  Te154  1  0.25118480  0.08319669  0.57300939  1
  Te  Te155  1  0.25750686  0.09944509  0.91122599  1
  Te  Te156  1  0.26730850  0.41140573  0.24570205  1
  Te  Te157  1  0.23633523  0.44158712  0.61069705  1
  Te  Te158  1  0.24566167  0.41550970  0.90443665  1
  Te  Te159  1  0.22735928  0.74086702  0.22758487  1
  Te  Te160  1  0.23888532  0.75363547  0.59252763  1
  Te  Te161  1  0.21138834  0.72636344  0.88185503  1
  Te  Te162  1  0.59793265  0.06224936  0.24012607  1
  Te  Te163  1  0.58761240  0.08611121  0.58451382  1
  Te  Te164  1  0.58779168  0.09508203  0.89262411  1
  Te  Te165  1  0.56537071  0.40950001  0.24979248  1
  Te  Te166  1  0.60670162  0.44970242  0.58514730  1
  Te  Te167  1  0.59915654  0.43271934  0.92251771  1
  Te  Te168  1  0.60181523  0.71859372  0.28455923  1
  Te  Te169  1  0.59503478  0.71832136  0.57371417  1
  Te  Te170  1  0.58266271  0.75002892  0.89502690  1
  Te  Te171  1  0.94077001  0.08670849  0.28076684  1
  Te  Te172  1  0.92413040  0.08358377  0.61877425  1
  Te  Te173  1  0.93571173  0.09788117  0.89953386  1
  Te  Te174  1  0.90920740  0.39708224  0.25941544  1
  Te  Te175  1  0.97027164  0.36932911  0.62713459  1
  Te  Te176  1  0.88323178  0.39827601  0.89891851  1
  Te  Te177  1  0.92708244  0.74314026  0.25517789  1
  Te  Te178  1  0.86477875  0.71116019  0.54983423  1
  Te  Te179  1  0.90736400  0.74194392  0.90912322  1
