# generated using pymatgen
data_In2Te3
_symmetry_space_group_name_H-M   'P 1'
_cell_length_a   18.95166054
_cell_length_b   18.92409549
_cell_length_c   18.94679654
_cell_angle_alpha   89.98716213
_cell_angle_beta   89.98567475
_cell_angle_gamma   89.99686168
_symmetry_Int_Tables_number   1
_chemical_formula_structural   In2Te3
_chemical_formula_sum   'In72 Te108'
_cell_volume   6795.13619802
_cell_formula_units_Z   36
loop_
 _symmetry_equiv_pos_site_id
 _symmetry_equiv_pos_as_xyz
  1  'x, y, z'
loop_
 _atom_site_type_symbol
 _atom_site_label
 _atom_site_symmetry_multiplicity
 _atom_site_fract_x
 _atom_site_fract_y
 _atom_site_fract_z
 _atom_site_occupancy
  In  In0  1  0.00655424  0.16134188  0.17326649  1
  In  In1  1  0.48897557  0.14546564  0.01605289  1
  In  In2  1  0.33663967  0.79907813  0.11980048  1
  In  In3  1  0.67132122  0.82458544  0.51337842  1
  In  In4  1  -0.02269488  0.36416447  0.00914143  1
  In  In5  1  0.16509979  0.14793591  0.63518723  1
  In  In6  1  0.01638139  0.32759597  0.66482118  1
  In  In7  1  0.76912499  0.65378319  0.84640584  1
  In  In8  1  0.32661889  0.52785619  0.15604982  1
  In  In9  1  0.48997345  0.49617557  0.32812065  1
  In  In10  1  0.17456807  0.52065696  0.00764192  1
  In  In11  1  0.51504368  -0.00311157  0.17334642  1
  In  In12  1  0.50697594  0.67340375  0.83328876  1
  In  In13  1  0.00478937  -0.01629685  -0.00159623  1
  In  In14  1  0.33654487  0.15089184  0.49601661  1
  In  In15  1  0.65456074  0.50484304  0.49971469  1
  In  In16  1  0.65985248  0.15660405  0.49835308  1
  In  In17  1  0.31417869  0.34041662  0.00759081  1
  In  In18  1  0.00433667  -0.00964344  0.67278752  1
  In  In19  1  0.15586500  0.83524903  0.32784332  1
  In  In20  1  0.48146621  0.32742705  0.19790576  1
  In  In21  1  0.14328105  0.15285524  -0.02031019  1
  In  In22  1  -0.02698809  0.16790898  0.85591482  1
  In  In23  1  0.50275041  0.32239363  0.84134079  1
  In  In24  1  0.49669653  -0.03455896  0.82757377  1
  In  In25  1  0.65799138  0.83418355  0.13833754  1
  In  In26  1  0.34927643  0.66180946  0.32933095  1
  In  In27  1  0.33307273  0.83167059  0.80523658  1
  In  In28  1  0.35386293  0.54144089  0.53884530  1
  In  In29  1  0.16307748  0.51793719  0.33118711  1
  In  In30  1  0.33539700  0.81754855  0.54562724  1
  In  In31  1  0.32061294  0.51879062  0.80591092  1
  In  In32  1  0.85144088  -0.00587438  0.49888016  1
  In  In33  1  0.65419342  0.66452321  0.67554717  1
  In  In34  1  0.00984669  0.51006993  0.18547447  1
  In  In35  1  0.15102559  0.50842503  0.67161088  1
  In  In36  1  0.00869447  0.15427768  0.48896754  1
  In  In37  1  0.02893940  0.70306341  0.01753212  1
  In  In38  1  0.82965514  0.34369388  0.83647361  1
  In  In39  1  0.81098211  0.51183430  0.67420570  1
  In  In40  1  0.32666145  0.33897614  0.66301319  1
  In  In41  1  0.34999755  0.12821891  0.81640817  1
  In  In42  1  0.84905127  0.30533216  0.50442851  1
  In  In43  1  -0.00701957  0.49471276  0.48127225  1
  In  In44  1  0.65632315  0.32131563  0.64225975  1
  In  In45  1  0.14961528  0.68500367  0.82501348  1
  In  In46  1  0.67345221  0.65599834  0.32719704  1
  In  In47  1  0.01320398  0.83131876  0.48716958  1
  In  In48  1  0.66549051  0.34190045  0.01079372  1
  In  In49  1  0.83453402  0.31610692  0.16535848  1
  In  In50  1  0.50142988  0.33086698  0.50032108  1
  In  In51  1  0.67273629  0.14956124  0.17843733  1
  In  In52  1  -0.00733822  0.67244086  0.66393304  1
  In  In53  1  0.15028878  0.33757365  0.79179905  1
  In  In54  1  0.65515545  -0.00063217  0.34033819  1
  In  In55  1  -0.00700972  0.82622357  0.81782660  1
  In  In56  1  0.67457171  0.00593526  -0.02141988  1
  In  In57  1  0.19044753  0.32447827  0.18498525  1
  In  In58  1  0.33833864  0.15312135  0.20290480  1
  In  In59  1  0.80767208  0.83285748  -0.02019901  1
  In  In60  1  0.86067830  0.69104306  0.48156509  1
  In  In61  1  0.48404051  0.53045706  -0.01035269  1
  In  In62  1  0.17376364  -0.00082040  0.81708075  1
  In  In63  1  0.65512089  0.00359716  0.67718664  1
  In  In64  1  0.83824832  0.48748255  0.34173634  1
  In  In65  1  0.87286108  0.70785098  0.18100348  1
  In  In66  1  0.64766161  0.49871498  0.15368458  1
  In  In67  1  0.67984484  0.18251350  0.81709419  1
  In  In68  1  0.34135927  -0.01424446  0.35853358  1
  In  In69  1  0.85105017  -0.00506736  0.17905542  1
  In  In70  1  0.17927341  0.13882955  0.35586607  1
  In  In71  1  0.51263951  0.83026544  0.34666402  1
  Te  Te72  1  0.09381179  0.06511997  0.09190163  1
  Te  Te73  1  0.09374572  0.04485756  0.43417800  1
  Te  Te74  1  0.08176002  0.10813260  0.75770445  1
  Te  Te75  1  0.10179629  0.41022806  0.09279066  1
  Te  Te76  1  0.08346321  0.41509073  0.39973436  1
  Te  Te77  1  0.04696407  0.44446136  0.76102212  1
  Te  Te78  1  0.09122541  0.80384281  0.10999721  1
  Te  Te79  1  0.10302650  0.73533964  0.42232770  1
  Te  Te80  1  0.09559998  0.77607340  0.71349886  1
  Te  Te81  1  0.39614519  0.05944793  0.09615898  1
  Te  Te82  1  0.43806049  0.07777564  0.41787248  1
  Te  Te83  1  0.43508187  0.05330086  0.72003622  1
  Te  Te84  1  0.42222118  0.41704073  0.08290117  1
  Te  Te85  1  0.40863251  0.43423082  0.43838267  1
  Te  Te86  1  0.41966712  0.41854424  0.75302539  1
  Te  Te87  1  0.45773689  0.76472657  0.04497030  1
  Te  Te88  1  0.41832189  0.74943021  0.43188910  1
  Te  Te89  1  0.42531566  0.74069012  0.72538437  1
  Te  Te90  1  0.76032198  0.07743121  0.08088158  1
  Te  Te91  1  0.76104372  0.08034546  0.41144359  1
  Te  Te92  1  0.75734072  0.07614457  0.75599148  1
  Te  Te93  1  0.76611240  0.42711896  0.08539012  1
  Te  Te94  1  0.75261905  0.40738114  0.43745523  1
  Te  Te95  1  0.72620417  0.40903084  0.74676007  1
  Te  Te96  1  0.75798038  0.73259106  0.08476244  1
  Te  Te97  1  0.75262557  0.76233525  0.40048612  1
  Te  Te98  1  0.74606462  0.75589146  0.74567335  1
  Te  Te99  1  0.09894062  0.23780898  0.26656002  1
  Te  Te100  1  0.10121529  0.26130614  0.55982923  1
  Te  Te101  1  0.07560625  0.27482769  0.91804389  1
  Te  Te102  1  0.11258020  0.60609958  0.22458686  1
  Te  Te103  1  0.07533359  0.58947239  0.56784998  1
  Te  Te104  1  0.07563837  0.59041368  0.91778545  1
  Te  Te105  1  0.05276376  0.89388239  0.23587966  1
  Te  Te106  1  0.08692804  0.94016938  0.56059804  1
  Te  Te107  1  0.09292862  0.90499739  0.90338437  1
  Te  Te108  1  0.38858811  0.26033556  0.29086121  1
  Te  Te109  1  0.41591523  0.24292466  0.59015986  1
  Te  Te110  1  0.40114439  0.24307296  0.92379684  1
  Te  Te111  1  0.44176856  0.59716228  0.22538527  1
  Te  Te112  1  0.44291776  0.62637854  0.62034848  1
  Te  Te113  1  0.38316788  0.60789107  0.90995936  1
  Te  Te114  1  0.42270783  0.90540382  0.25049179  1
  Te  Te115  1  0.39361544  0.93575542  0.61662674  1
  Te  Te116  1  0.39472997  0.90965402  0.91596722  1
  Te  Te117  1  0.74946598  0.24344688  0.25867811  1
  Te  Te118  1  0.75990183  0.22310946  0.59474808  1
  Te  Te119  1  0.75590613  0.24975000  0.93104430  1
  Te  Te120  1  0.76049934  0.56887658  0.23941984  1
  Te  Te121  1  0.76212495  0.59930025  0.55676790  1
  Te  Te122  1  0.77071613  0.53730576  0.93118932  1
  Te  Te123  1  0.73489258  0.91625053  0.24143196  1
  Te  Te124  1  0.75785465  0.92020591  0.59127946  1
  Te  Te125  1  0.71211901  0.89630225  0.88646729  1
  Te  Te126  1  0.24842013  0.22543382  0.08318913  1
  Te  Te127  1  0.26138402  0.24795355  0.41291549  1
  Te  Te128  1  0.25586552  0.23178646  0.74995902  1
  Te  Te129  1  0.24578823  0.62560191  0.08208421  1
  Te  Te130  1  0.25958282  0.58969669  0.42724070  1
  Te  Te131  1  0.24943128  0.62010519  0.71697736  1
  Te  Te132  1  0.22197166  0.87463682  0.07145128  1
  Te  Te133  1  0.25498590  0.88887927  0.43337323  1
  Te  Te134  1  0.25809652  0.92972555  0.71581719  1
  Te  Te135  1  0.56939938  0.24999566  0.09195288  1
  Te  Te136  1  0.59852740  0.26255283  0.41582434  1
  Te  Te137  1  0.56593983  0.23778549  0.73370134  1
  Te  Te138  1  0.59489158  0.60226887  0.05982093  1
  Te  Te139  1  0.56674289  0.59480325  0.41585518  1
  Te  Te140  1  0.59693991  0.57217610  0.77395484  1
  Te  Te141  1  0.56943878  0.92296150  0.05287500  1
  Te  Te142  1  0.57619719  0.92473421  0.44635070  1
  Te  Te143  1  0.59329345  0.88783922  0.74893681  1
  Te  Te144  1  0.92185229  0.23681751  0.06931235  1
  Te  Te145  1  0.92678583  0.23883633  0.40112254  1
  Te  Te146  1  0.91094108  0.25237988  0.74627969  1
  Te  Te147  1  0.93517565  0.60243236  0.09169990  1
  Te  Te148  1  0.93300216  0.59826059  0.38596232  1
  Te  Te149  1  0.89357113  0.60658119  0.75671633  1
  Te  Te150  1  0.90692666  0.89796736  0.07668064  1
  Te  Te151  1  0.91056055  0.89907829  0.39961923  1
  Te  Te152  1  0.90921280  0.94000623  0.77416432  1
  Te  Te153  1  0.24439069  0.04673416  0.25385591  1
  Te  Te154  1  0.26852376  0.05304152  0.58790441  1
  Te  Te155  1  0.25786634  0.06925978  0.92326700  1
  Te  Te156  1  0.26976711  0.43115525  0.25618860  1
  Te  Te157  1  0.24474970  0.43265093  0.57993010  1
  Te  Te158  1  0.24171871  0.42100402  0.90050967  1
  Te  Te159  1  0.26658883  0.75828319  0.24940878  1
  Te  Te160  1  0.23431075  0.73433588  0.61170166  1
  Te  Te161  1  0.24296715  0.76444782  0.90467166  1
  Te  Te162  1  0.56280551  0.10198290  0.27098983  1
  Te  Te163  1  0.56899838  0.08534144  0.58941434  1
  Te  Te164  1  0.57513179  0.09650022  0.90236241  1
  Te  Te165  1  0.59431814  0.40649235  0.26265569  1
  Te  Te166  1  0.56420576  0.43352253  0.59660553  1
  Te  Te167  1  0.57744761  0.42617371  0.92126123  1
  Te  Te168  1  0.58599481  0.74758832  0.24222681  1
  Te  Te169  1  0.56914148  0.73494159  0.57601589  1
  Te  Te170  1  0.57654300  0.72894442  0.95232313  1
  Te  Te171  1  0.92813719  0.08126353  0.26791515  1
  Te  Te172  1  0.92054726  0.09030267  0.59432101  1
  Te  Te173  1  0.90259821  0.05419092  0.91484909  1
  Te  Te174  1  0.92794165  0.40238793  0.25264875  1
  Te  Te175  1  0.90945031  0.42343086  0.59316610  1
  Te  Te176  1  0.90113454  0.45120866  0.91519391  1
  Te  Te177  1  0.94051807  0.79403753  0.27820864  1
  Te  Te178  1  0.91150307  0.77895690  0.59330657  1
  Te  Te179  1  0.91745495  0.74280348  0.91973938  1
