# generated using pymatgen
data_In2Te3
_symmetry_space_group_name_H-M   'P 1'
_cell_length_a   18.97902588
_cell_length_b   18.96243992
_cell_length_c   18.96955863
_cell_angle_alpha   90.02794564
_cell_angle_beta   89.96241323
_cell_angle_gamma   90.02755678
_symmetry_Int_Tables_number   1
_chemical_formula_structural   In2Te3
_chemical_formula_sum   'In72 Te108'
_cell_volume   6826.92555104
_cell_formula_units_Z   36
loop_
 _symmetry_equiv_pos_site_id
 _symmetry_equiv_pos_as_xyz
  1  'x, y, z'
loop_
 _atom_site_type_symbol
 _atom_site_label
 _atom_site_symmetry_multiplicity
 _atom_site_fract_x
 _atom_site_fract_y
 _atom_site_fract_z
 _atom_site_occupancy
  In  In0  1  0.66066801  0.85005639  0.80853406  1
  In  In1  1  0.84558670  -0.00610700  0.83233930  1
  In  In2  1  0.50116547  0.33924942  0.19735661  1
  In  In3  1  0.30834937  0.50092870  0.13834761  1
  In  In4  1  0.50618720  0.16674836  0.68142277  1
  In  In5  1  0.00655392  0.49073825  0.81096902  1
  In  In6  1  0.00740067  0.85970787  0.50500967  1
  In  In7  1  0.33348730  0.32418423  0.66262799  1
  In  In8  1  0.31870200  0.32684497  -0.03356468  1
  In  In9  1  0.66463229  0.32358516  0.67048721  1
  In  In10  1  0.49149333  0.48671287  0.36255987  1
  In  In11  1  0.33696608  -0.00629865  -0.00026452  1
  In  In12  1  0.86987151  0.47485817  0.64571945  1
  In  In13  1  0.19287319  0.64838435  0.80200760  1
  In  In14  1  0.83224729  0.82202941  0.68309880  1
  In  In15  1  0.34496062  0.64870528  0.01430919  1
  In  In16  1  -0.02726378  0.83797684  0.86141152  1
  In  In17  1  0.01117006  0.67369703  0.67230774  1
  In  In18  1  0.81944191  0.85011885  0.34206038  1
  In  In19  1  0.14653943  0.47896468  0.35528257  1
  In  In20  1  0.82952846  0.18230067  0.65754864  1
  In  In21  1  0.48139831  0.65206404  0.84596196  1
  In  In22  1  0.34642704  0.17115981  0.82865390  1
  In  In23  1  0.34162326  0.66757327  0.33179285  1
  In  In24  1  0.28162005  0.85825602  0.21601747  1
  In  In25  1  0.65016770  0.48515257  0.13358936  1
  In  In26  1  0.84470778  0.83396803  0.02191902  1
  In  In27  1  0.18508823  0.66011673  0.51416250  1
  In  In28  1  0.82950037  0.49075921  0.00088488  1
  In  In29  1  0.49812441  0.18775030  0.33199279  1
  In  In30  1  0.68220449  0.00845304  0.64827899  1
  In  In31  1  0.15612813  0.84249532  0.66412200  1
  In  In32  1  0.64932782  0.49245579  0.50397951  1
  In  In33  1  0.68313804  0.65576317  0.00233761  1
  In  In34  1  0.03557615  0.89230944  0.19231929  1
  In  In35  1  0.66627280  0.63061970  0.31965228  1
  In  In36  1  0.16044598  0.32304570  0.16015458  1
  In  In37  1  0.62291201  0.67661128  0.65616547  1
  In  In38  1  -0.00692118  0.67130330  0.35788682  1
  In  In39  1  0.84189477  0.01566745  0.49295585  1
  In  In40  1  0.50004385  0.00006756  0.50805280  1
  In  In41  1  0.14931698  -0.00568976  0.83144448  1
  In  In42  1  0.45895541  0.68596670  0.16701551  1
  In  In43  1  0.34892043  0.82769293  0.83995760  1
  In  In44  1  0.02410476  0.15393049  0.49710086  1
  In  In45  1  0.00797924  0.47597257  0.18350255  1
  In  In46  1  0.82553523  0.64623009  0.49178741  1
  In  In47  1  0.64333168  0.86018289  0.20659096  1
  In  In48  1  0.82340067  0.31964369  0.82842672  1
  In  In49  1  0.50294013  0.48178026  -0.01613966  1
  In  In50  1  0.84555491  0.67441539  0.14225697  1
  In  In51  1  0.47890998  0.84015977  0.37604530  1
  In  In52  1  0.48370693  0.02819050  0.17223959  1
  In  In53  1  0.20484198  0.17968795  0.37433249  1
  In  In54  1  0.64030143  0.05131452  -0.03007516  1
  In  In55  1  0.17318322  0.84108711  0.01106911  1
  In  In56  1  0.18237151  0.49311060  0.65997371  1
  In  In57  1  0.01939663  0.68342908  -0.01128784  1
  In  In58  1  0.81968087  0.47078713  0.33345076  1
  In  In59  1  0.20545115  0.13751413  0.64977528  1
  In  In60  1  0.66644182  0.30668700  -0.00994287  1
  In  In61  1  0.43327461  0.52839850  0.66342360  1
  In  In62  1  0.47815236  0.31863718  0.50307143  1
  In  In63  1  -0.00718772  0.31241010  0.02837094  1
  In  In64  1  0.31717290  0.00607294  0.33960037  1
  In  In65  1  -0.00457074  0.16752559  0.83916672  1
  In  In66  1  0.67644381  0.16571357  0.15895510  1
  In  In67  1  0.48464329  0.85973533  0.63873207  1
  In  In68  1  0.14097432  0.15639052  0.01623279  1
  In  In69  1  0.83156280  0.15157794  0.31334387  1
  In  In70  1  -0.00314300  0.32482643  0.35623223  1
  In  In71  1  0.51654479  0.84938221  -0.00114472  1
  Te  Te72  1  0.06541301  0.09956581  0.13059434  1
  Te  Te73  1  0.10045345  0.07073487  0.39742582  1
  Te  Te74  1  0.08609205  0.09364840  0.73925688  1
  Te  Te75  1  0.09128732  0.42209254  0.06885214  1
  Te  Te76  1  0.06825499  0.40549404  0.46156154  1
  Te  Te77  1  0.09525055  0.40359051  0.73594799  1
  Te  Te78  1  0.07048108  0.77139969  0.10060790  1
  Te  Te79  1  0.09166744  0.75449963  0.43490948  1
  Te  Te80  1  0.07931944  0.76064142  0.77696886  1
  Te  Te81  1  0.41892342  0.09736340  0.06219344  1
  Te  Te82  1  0.41772746  0.08782086  0.41482684  1
  Te  Te83  1  0.40300458  0.07542593  0.73384345  1
  Te  Te84  1  0.41701036  0.40814102  0.08455549  1
  Te  Te85  1  0.38875314  0.39035765  0.40689016  1
  Te  Te86  1  0.43198631  0.40232870  0.73842817  1
  Te  Te87  1  0.39912719  0.78376694  0.06758329  1
  Te  Te88  1  0.40066716  0.73797185  0.45009820  1
  Te  Te89  1  0.43555462  0.75340391  0.74250381  1
  Te  Te90  1  0.75198506  0.09026508  0.05522277  1
  Te  Te91  1  0.74415201  0.08355780  0.41057912  1
  Te  Te92  1  0.75652087  0.08751673  0.75419688  1
  Te  Te93  1  0.75721424  0.39073248  0.08729469  1
  Te  Te94  1  0.75238030  0.40279837  0.44580454  1
  Te  Te95  1  0.76062143  0.42243276  0.73684505  1
  Te  Te96  1  0.72338728  0.76304778  0.10432218  1
  Te  Te97  1  0.73944152  0.73408771  0.40403313  1
  Te  Te98  1  0.73525134  0.73140938  0.75282883  1
  Te  Te99  1  0.10535089  0.25195735  0.28104905  1
  Te  Te100  1  0.13290369  0.23523391  0.56177792  1
  Te  Te101  1  0.08623261  0.25938264  0.92075805  1
  Te  Te102  1  0.07656824  0.58274195  0.26481134  1
  Te  Te103  1  0.07772602  0.57611049  0.58135271  1
  Te  Te104  1  0.09098218  0.58522706  0.89632317  1
  Te  Te105  1  0.11991295  0.94737099  0.30030594  1
  Te  Te106  1  0.11657804  0.94605076  0.56260422  1
  Te  Te107  1  0.06800572  0.92675852  0.94076967  1
  Te  Te108  1  0.39269066  0.25414669  0.25168738  1
  Te  Te109  1  0.40099046  0.21458768  0.58155690  1
  Te  Te110  1  0.43650435  0.26615431  0.89976336  1
  Te  Te111  1  0.41885746  0.56022347  0.24387292  1
  Te  Te112  1  0.43917324  0.60157072  0.53700243  1
  Te  Te113  1  0.38045083  0.54473036  0.90459035  1
  Te  Te114  1  0.42589019  0.91089179  0.24938098  1
  Te  Te115  1  0.37716486  0.93932910  0.57108199  1
  Te  Te116  1  0.43788187  0.93429842  0.90124526  1
  Te  Te117  1  0.75190666  0.25599567  0.24695209  1
  Te  Te118  1  0.74911029  0.26416962  0.56587011  1
  Te  Te119  1  0.77802994  0.22727533  0.93309389  1
  Te  Te120  1  0.76479797  0.56891287  0.21938109  1
  Te  Te121  1  0.73441468  0.58370396  0.59285334  1
  Te  Te122  1  0.73198452  0.55378151  0.90988734  1
  Te  Te123  1  0.76572842  0.93465470  0.23395521  1
  Te  Te124  1  0.76728209  0.90632037  0.57654292  1
  Te  Te125  1  0.75374719  0.90385696  0.91484335  1
  Te  Te126  1  0.25386272  0.24104259  0.07353263  1
  Te  Te127  1  0.25033827  0.29521126  0.45815271  1
  Te  Te128  1  0.24002340  0.24788712  0.75439965  1
  Te  Te129  1  0.22212690  0.60416720  0.08038079  1
  Te  Te130  1  0.25289910  0.57040977  0.41355664  1
  Te  Te131  1  0.29273506  0.58177285  0.71427899  1
  Te  Te132  1  0.23253401  0.94802268  0.10110187  1
  Te  Te133  1  0.24716798  0.87647246  0.36459292  1
  Te  Te134  1  0.25483735  0.91487303  0.75815409  1
  Te  Te135  1  0.56893731  0.25179548  0.09364152  1
  Te  Te136  1  0.58366503  0.27802055  0.40962555  1
  Te  Te137  1  0.60949298  0.22769592  0.77278907  1
  Te  Te138  1  0.55913114  0.60063980  0.07680354  1
  Te  Te139  1  0.56423312  0.60283743  0.43506756  1
  Te  Te140  1  0.56144735  0.57241461  0.74759249  1
  Te  Te141  1  0.59485180  0.94686163  0.08247374  1
  Te  Te142  1  0.59110301  0.92072338  0.42168057  1
  Te  Te143  1  0.57386901  0.94530987  0.73516382  1
  Te  Te144  1  0.95035120  0.20821979  0.12320281  1
  Te  Te145  1  0.91062050  0.22572818  0.42841088  1
  Te  Te146  1  0.93058957  0.26228864  0.73823164  1
  Te  Te147  1  0.94123936  0.57568401  0.07654995  1
  Te  Te148  1  0.91792443  0.55373428  0.41626778  1
  Te  Te149  1  0.91093658  0.58786328  0.74546652  1
  Te  Te150  1  0.91440433  0.92423890  0.11487544  1
  Te  Te151  1  0.93124973  0.93538805  0.39849225  1
  Te  Te152  1  0.93719444  0.91682950  0.73611851  1
  Te  Te153  1  0.27346869  0.11865559  0.25651330  1
  Te  Te154  1  0.24507144  0.03427675  0.55084017  1
  Te  Te155  1  0.23946043  0.08275620  0.91669032  1
  Te  Te156  1  0.23933802  0.42067095  0.24728230  1
  Te  Te157  1  0.26391303  0.41257912  0.56154579  1
  Te  Te158  1  0.26356662  0.44587837  0.90853516  1
  Te  Te159  1  0.24113878  0.71855499  0.23686835  1
  Te  Te160  1  0.25393309  0.74911458  0.60875528  1
  Te  Te161  1  0.24658808  0.74398983  0.91588711  1
  Te  Te162  1  0.58908677  0.08901467  0.25918710  1
  Te  Te163  1  0.59328611  0.10307399  0.57264230  1
  Te  Te164  1  0.55705797  0.14544868  0.89623596  1
  Te  Te165  1  0.60002404  0.43208071  0.26563973  1
  Te  Te166  1  0.56262677  0.40848258  0.59590818  1
  Te  Te167  1  0.61018859  0.41757781  0.90794252  1
  Te  Te168  1  0.56843565  0.73658488  0.25939966  1
  Te  Te169  1  0.59107402  0.78790065  0.56705320  1
  Te  Te170  1  0.58607686  0.74672721  0.91155100  1
  Te  Te171  1  0.94862325  0.09885248  0.23807353  1
  Te  Te172  1  0.92790913  0.08423042  0.59588634  1
  Te  Te173  1  0.93492600  0.06519046  0.92528300  1
  Te  Te174  1  0.90824151  0.38326107  0.24488297  1
  Te  Te175  1  0.94303084  0.39264553  0.55293051  1
  Te  Te176  1  0.92386106  0.40563702  0.91762125  1
  Te  Te177  1  0.90396759  0.74719706  0.26164731  1
  Te  Te178  1  0.91607844  0.74562589  0.57002759  1
  Te  Te179  1  0.89003443  0.72658688  0.92245260  1
