# generated using pymatgen
data_In2Te3
_symmetry_space_group_name_H-M   'P 1'
_cell_length_a   18.89937977
_cell_length_b   18.88266195
_cell_length_c   18.87972648
_cell_angle_alpha   89.98412269
_cell_angle_beta   89.98583450
_cell_angle_gamma   90.04460686
_symmetry_Int_Tables_number   1
_chemical_formula_structural   In2Te3
_chemical_formula_sum   'In72 Te108'
_cell_volume   6737.61679722
_cell_formula_units_Z   36
loop_
 _symmetry_equiv_pos_site_id
 _symmetry_equiv_pos_as_xyz
  1  'x, y, z'
loop_
 _atom_site_type_symbol
 _atom_site_label
 _atom_site_symmetry_multiplicity
 _atom_site_fract_x
 _atom_site_fract_y
 _atom_site_fract_z
 _atom_site_occupancy
  In  In0  1  0.17314073  0.48897856  -0.02939008  1
  In  In1  1  0.18367950  0.50821791  0.34058650  1
  In  In2  1  0.16286641  0.16488055  0.33438542  1
  In  In3  1  0.81744581  0.47599917  0.00385555  1
  In  In4  1  0.15916511  -0.01734649  0.15741408  1
  In  In5  1  0.82621533  0.66137395  0.83098493  1
  In  In6  1  0.67830759  0.17185678  0.16276931  1
  In  In7  1  0.02716108  0.66642313  0.68499836  1
  In  In8  1  0.66002808  0.00031284  0.01584851  1
  In  In9  1  0.02164756  0.33459339  0.01539910  1
  In  In10  1  0.65359323  0.34468892  0.68962605  1
  In  In11  1  0.84519075  0.02601656  0.52054881  1
  In  In12  1  -0.00501069  0.49935009  0.16875144  1
  In  In13  1  0.46232841  0.48513558  0.62709626  1
  In  In14  1  0.33090328  0.68811539  0.35326375  1
  In  In15  1  0.02739099  0.50245645  0.82913741  1
  In  In16  1  0.86667732  0.83127593  -0.00864848  1
  In  In17  1  0.48946784  0.21450694  0.63584232  1
  In  In18  1  0.20069796  0.33793422  0.82338494  1
  In  In19  1  0.80779674  0.68077988  0.19045458  1
  In  In20  1  0.47450543  0.81681713  -0.03715487  1
  In  In21  1  0.34684308  0.19112190  0.15406075  1
  In  In22  1  0.01237897  0.83099669  0.49479988  1
  In  In23  1  0.63058174  0.85128630  0.84780402  1
  In  In24  1  0.65218545  0.51034203  0.80800985  1
  In  In25  1  0.34591326  0.86083781  0.17520024  1
  In  In26  1  0.62926940  0.37197358  0.33056014  1
  In  In27  1  0.82845733  0.03207265  0.84097397  1
  In  In28  1  0.33938852  0.01016706  0.33824860  1
  In  In29  1  0.48236364  -0.02779771  0.51169045  1
  In  In30  1  0.18372772  0.63132785  0.16776196  1
  In  In31  1  0.20041169  0.49505847  0.65654590  1
  In  In32  1  0.03149015  0.83532907  0.81395106  1
  In  In33  1  0.84724122  0.26136402  0.85013683  1
  In  In34  1  0.62348513  0.67968158  0.03519917  1
  In  In35  1  0.00095850  0.00140919  -0.02058691  1
  In  In36  1  0.66469980  -0.00251917  0.67312868  1
  In  In37  1  0.00485075  0.49272990  0.51373040  1
  In  In38  1  0.21456553  0.01287867  0.75047363  1
  In  In39  1  0.02696612  0.62628882  0.01156327  1
  In  In40  1  0.35018316  0.17363794  0.81834658  1
  In  In41  1  0.02405978  0.14977362  0.50881136  1
  In  In42  1  -0.00427318  0.81970776  0.16395525  1
  In  In43  1  0.19018126  0.17612125  -0.01442427  1
  In  In44  1  0.64499406  0.82356658  0.18650280  1
  In  In45  1  0.61328313  0.66611245  0.64961741  1
  In  In46  1  0.01479700  0.02124536  0.65360182  1
  In  In47  1  0.47891895  0.16540850  0.33518807  1
  In  In48  1  0.14969207  0.82300734  0.33745660  1
  In  In49  1  0.64408610  0.34756192  -0.00412154  1
  In  In50  1  0.84162680  0.32146648  0.49021874  1
  In  In51  1  0.82687062  0.66393043  0.52117266  1
  In  In52  1  0.33526694  0.67253663  0.67051076  1
  In  In53  1  0.82308698  0.32983387  0.16716553  1
  In  In54  1  0.63755040  0.81481882  0.49860796  1
  In  In55  1  0.62016490  0.52871158  0.46392084  1
  In  In56  1  0.20739971  -0.00998326  0.52753791  1
  In  In57  1  0.82168551  0.84082871  0.69086982  1
  In  In58  1  0.82696581  0.50225063  0.32236015  1
  In  In59  1  0.52074788  0.16182802  -0.00654941  1
  In  In60  1  0.81686944  0.84653112  0.34135056  1
  In  In61  1  0.47772731  -0.00595981  0.80348178  1
  In  In62  1  0.82835740  0.47087822  0.64857069  1
  In  In63  1  0.66911977  0.17429440  0.49527096  1
  In  In64  1  0.48611571  0.33996641  0.81037802  1
  In  In65  1  0.16853862  0.31560552  0.48952856  1
  In  In66  1  0.84093810  0.16543505  0.34534839  1
  In  In67  1  0.21453249  0.80078714  -0.02156857  1
  In  In68  1  0.32470493  0.48373747  0.16437617  1
  In  In69  1  0.47620757  0.64512149  0.17959264  1
  In  In70  1  0.49314287  0.01432588  0.16695629  1
  In  In71  1  0.00148664  0.17655646  0.18797618  1
  Te  Te72  1  0.08946736  0.09030456  0.07474242  1
  Te  Te73  1  0.10732580  0.05565015  0.42589101  1
  Te  Te74  1  0.08112908  0.07428294  0.77275166  1
  Te  Te75  1  0.10818691  0.42798175  0.09775616  1
  Te  Te76  1  0.08279837  0.41575212  0.40963178  1
  Te  Te77  1  0.09690020  0.41160831  0.73341444  1
  Te  Te78  1  0.09778987  0.74454449  0.07915765  1
  Te  Te79  1  0.08914874  0.72588095  0.42863866  1
  Te  Te80  1  0.13030228  0.75261242  0.74330510  1
  Te  Te81  1  0.40939737  0.08332605  0.06343906  1
  Te  Te82  1  0.40642196  0.09053181  0.44871222  1
  Te  Te83  1  0.42026588  0.09470786  0.70642250  1
  Te  Te84  1  0.45224151  0.42649776  0.11461093  1
  Te  Te85  1  0.45827452  0.42255421  0.48065121  1
  Te  Te86  1  0.38462241  0.42488321  0.74297894  1
  Te  Te87  1  0.41083445  0.75094262  0.08998787  1
  Te  Te88  1  0.44004768  0.75708644  0.42744156  1
  Te  Te89  1  0.39864989  0.77307333  0.76441136  1
  Te  Te90  1  0.76035508  0.08815141  0.07468647  1
  Te  Te91  1  0.74408414  0.06997768  0.41455948  1
  Te  Te92  1  0.74240316  0.10003072  0.74349715  1
  Te  Te93  1  0.72106407  0.42459552  0.10839415  1
  Te  Te94  1  0.74599016  0.42363540  0.42760491  1
  Te  Te95  1  0.76374400  0.40860658  0.77365620  1
  Te  Te96  1  0.75150070  0.75902687  0.06626322  1
  Te  Te97  1  0.74148845  0.73677463  0.41890647  1
  Te  Te98  1  0.72622902  0.73370273  0.74023697  1
  Te  Te99  1  0.10745342  0.26212295  0.23918769  1
  Te  Te100  1  0.11221261  0.22906255  0.59829713  1
  Te  Te101  1  0.09295650  0.26137978  0.90427080  1
  Te  Te102  1  0.07367677  0.59066399  0.26140877  1
  Te  Te103  1  0.10313939  0.58726119  0.58104382  1
  Te  Te104  1  0.11767638  0.60776451  0.89060074  1
  Te  Te105  1  0.06452148  0.92009575  0.25797483  1
  Te  Te106  1  0.09587768  0.90619356  0.59591952  1
  Te  Te107  1  0.10416996  0.90129962  0.92899556  1
  Te  Te108  1  0.39344704  0.26864445  0.27178760  1
  Te  Te109  1  0.39762750  0.29921664  0.55179849  1
  Te  Te110  1  0.42351836  0.25559165  0.92309172  1
  Te  Te111  1  0.39026561  0.56756140  0.27851312  1
  Te  Te112  1  0.38309605  0.58955046  0.55295954  1
  Te  Te113  1  0.39824273  0.62613334  0.96872686  1
  Te  Te114  1  0.44401156  0.91676074  0.27465908  1
  Te  Te115  1  0.36221557  0.91257357  0.58370156  1
  Te  Te116  1  0.39787356  0.92930199  0.90880465  1
  Te  Te117  1  0.74119732  0.26256486  0.27821683  1
  Te  Te118  1  0.74310393  0.26376365  0.59132750  1
  Te  Te119  1  0.73280094  0.24380737  0.93790859  1
  Te  Te120  1  0.72282644  0.58025747  0.25422877  1
  Te  Te121  1  0.72824520  0.57340700  0.59424444  1
  Te  Te122  1  0.73721203  0.57825623  0.92344595  1
  Te  Te123  1  0.74438126  0.91811230  0.23540046  1
  Te  Te124  1  0.75193490  0.90937703  0.57455280  1
  Te  Te125  1  0.75951694  0.90529593  0.90487408  1
  Te  Te126  1  0.25880194  0.27410077  0.07058808  1
  Te  Te127  1  0.26491780  0.22286718  0.42324125  1
  Te  Te128  1  0.26093451  0.24570721  0.72320223  1
  Te  Te129  1  0.27394444  0.58644873  0.05041767  1
  Te  Te130  1  0.26250439  0.58760023  0.44141617  1
  Te  Te131  1  0.28548432  0.56046507  0.76011236  1
  Te  Te132  1  0.26184798  0.92073518  0.06394504  1
  Te  Te133  1  0.25713761  0.90322711  0.40871133  1
  Te  Te134  1  0.29364165  0.88528539  0.72462756  1
  Te  Te135  1  0.57034717  0.25727325  0.10120195  1
  Te  Te136  1  0.57127227  0.25827218  0.41575499  1
  Te  Te137  1  0.58087446  0.23262400  0.75932352  1
  Te  Te138  1  0.55650831  0.55746966  0.08612859  1
  Te  Te139  1  0.53685425  0.63573358  0.40673861  1
  Te  Te140  1  0.53405093  0.57548632  0.74003752  1
  Te  Te141  1  0.56247292  0.90288001  0.07782685  1
  Te  Te142  1  0.58347122  0.92389756  0.41648170  1
  Te  Te143  1  0.56326665  0.89407626  0.72027999  1
  Te  Te144  1  0.91548325  0.24739852  0.08168133  1
  Te  Te145  1  0.94932031  0.24497227  0.41486592  1
  Te  Te146  1  0.92488186  0.23439761  0.73266185  1
  Te  Te147  1  0.89702868  0.58746862  0.08892520  1
  Te  Te148  1  0.91105107  0.57789891  0.42902954  1
  Te  Te149  1  0.91280987  0.57097767  0.73877553  1
  Te  Te150  1  0.91996221  0.93132060  0.09034786  1
  Te  Te151  1  0.91680731  0.92684728  0.42744134  1
  Te  Te152  1  0.92451484  0.93086446  0.75700768  1
  Te  Te153  1  0.25683818  0.07758877  0.22913171  1
  Te  Te154  1  0.22956740  0.10233235  0.62627083  1
  Te  Te155  1  0.25490596  0.07896126  0.88848876  1
  Te  Te156  1  0.26543961  0.40315643  0.27493365  1
  Te  Te157  1  0.26813001  0.40598890  0.55710421  1
  Te  Te158  1  0.28549542  0.40829829  0.92215458  1
  Te  Te159  1  0.24766637  0.75522828  0.23333151  1
  Te  Te160  1  0.27267599  0.78468932  0.59097017  1
  Te  Te161  1  0.31421676  0.72483575  0.89007267  1
  Te  Te162  1  0.58773485  0.09082091  0.25604399  1
  Te  Te163  1  0.57888166  0.08473607  0.57982738  1
  Te  Te164  1  0.58387676  0.05983185  0.90004094  1
  Te  Te165  1  0.52275835  0.43601146  0.25358556  1
  Te  Te166  1  0.58968112  0.41577423  0.57171589  1
  Te  Te167  1  0.55970137  0.43578454  0.90526924  1
  Te  Te168  1  0.57267639  0.72370466  0.26739555  1
  Te  Te169  1  0.52088265  0.75315883  0.57087171  1
  Te  Te170  1  0.57338438  0.71990421  0.89664933  1
  Te  Te171  1  0.91909485  0.07835950  0.25772765  1
  Te  Te172  1  0.90443793  0.13034395  0.61617850  1
  Te  Te173  1  0.92783737  0.11436961  0.91383268  1
  Te  Te174  1  0.92175971  0.40128700  0.25852041  1
  Te  Te175  1  0.93829159  0.38137326  0.59417714  1
  Te  Te176  1  0.93475996  0.42236453  0.92291623  1
  Te  Te177  1  0.91590931  0.74777460  0.27188889  1
  Te  Te178  1  0.91820051  0.75392520  0.60612653  1
  Te  Te179  1  0.94046716  0.73379846  0.90189575  1
