# generated using pymatgen
data_In2Te3
_symmetry_space_group_name_H-M   'P 1'
_cell_length_a   18.94503432
_cell_length_b   18.93717958
_cell_length_c   18.97624580
_cell_angle_alpha   89.97997652
_cell_angle_beta   89.92736997
_cell_angle_gamma   90.05381780
_symmetry_Int_Tables_number   1
_chemical_formula_structural   In2Te3
_chemical_formula_sum   'In72 Te108'
_cell_volume   6808.01374760
_cell_formula_units_Z   36
loop_
 _symmetry_equiv_pos_site_id
 _symmetry_equiv_pos_as_xyz
  1  'x, y, z'
loop_
 _atom_site_type_symbol
 _atom_site_label
 _atom_site_symmetry_multiplicity
 _atom_site_fract_x
 _atom_site_fract_y
 _atom_site_fract_z
 _atom_site_occupancy
  In  In0  1  0.85324052  0.81964903  0.35599491  1
  In  In1  1  0.33777816  0.70054468  0.64684637  1
  In  In2  1  0.66865613  0.47861883  0.52666486  1
  In  In3  1  0.85490019  0.82821410  0.65411745  1
  In  In4  1  0.50034086  0.48475172  -0.00373872  1
  In  In5  1  0.00265717  0.15783921  0.50852820  1
  In  In6  1  0.84314386  0.49397834  0.36808142  1
  In  In7  1  0.51371288  0.32316119  0.49728122  1
  In  In8  1  0.16141527  0.72820627  0.86782386  1
  In  In9  1  0.32689132  0.31830603  0.69294859  1
  In  In10  1  0.19389175  0.32969229  0.16440749  1
  In  In11  1  0.07038361  0.68208100  0.34830698  1
  In  In12  1  0.33534297  0.33601130  0.33447687  1
  In  In13  1  0.17786716  0.13651445  -0.02829914  1
  In  In14  1  0.15811046  0.32790206  0.51415059  1
  In  In15  1  0.48405780  0.84618974  0.31519310  1
  In  In16  1  0.00340939  0.50709065  0.50611124  1
  In  In17  1  0.61444089  0.27246146  -0.07169093  1
  In  In18  1  0.01085464  -0.04105801  0.34227573  1
  In  In19  1  0.64582617  0.64122986  -0.00848649  1
  In  In20  1  0.19959059  0.68659553  0.16549598  1
  In  In21  1  0.34453833  0.13420007  0.13048069  1
  In  In22  1  0.34034463  0.57588892  0.42794851  1
  In  In23  1  -0.04646767  0.48637323  0.81434570  1
  In  In24  1  0.01369911  0.36289632  0.33095754  1
  In  In25  1  0.01216989  0.82901483  0.17349067  1
  In  In26  1  0.79312292  0.30841142  0.12959944  1
  In  In27  1  0.65632576  0.68952028  0.33852766  1
  In  In28  1  0.68471992  0.66489491  0.65434334  1
  In  In29  1  0.67753999  0.01869172  0.32816841  1
  In  In30  1  0.85018488  0.17835045  0.66296632  1
  In  In31  1  0.01877541  0.67582972  0.67913589  1
  In  In32  1  0.03788940  -0.03106464  0.66024514  1
  In  In33  1  0.53017538  0.66332107  0.52435763  1
  In  In34  1  0.04910623  -0.02245058  -0.02060941  1
  In  In35  1  0.42615742  0.92564765  0.73806897  1
  In  In36  1  0.83193215  0.00456827  0.18864278  1
  In  In37  1  0.66946896  0.01234854  0.68392603  1
  In  In38  1  0.51700689  0.00065857  0.52693059  1
  In  In39  1  0.83038347  -0.00751687  0.82334644  1
  In  In40  1  0.33948595  0.12503475  0.57161465  1
  In  In41  1  -0.01432632  0.15801269  0.82658352  1
  In  In42  1  0.15873289  0.17748288  0.34389226  1
  In  In43  1  0.15828139  0.50347702  0.66947759  1
  In  In44  1  0.49559987  0.47422791  0.65755019  1
  In  In45  1  0.32450017  0.68545271  0.00239800  1
  In  In46  1  0.32815464  0.82702779  0.48263232  1
  In  In47  1  0.17449169  0.15140700  0.67881767  1
  In  In48  1  0.83935916  0.16484927  0.32475255  1
  In  In49  1  0.00578957  0.67023019  -0.00553939  1
  In  In50  1  0.83347003  0.33689711  0.51101918  1
  In  In51  1  0.30713323  0.50824665  0.83656133  1
  In  In52  1  0.64151581  0.86113929  0.15069762  1
  In  In53  1  0.66944620  0.83460335  0.51458986  1
  In  In54  1  0.48448727  0.49981467  0.32373790  1
  In  In55  1  0.63109515  0.50654032  0.18374742  1
  In  In56  1  0.63396762  0.16953581  0.15279222  1
  In  In57  1  0.41549446  0.29352628  0.00730905  1
  In  In58  1  0.66005837  0.82402761  0.84656422  1
  In  In59  1  0.85075568  0.82770266  -0.01194017  1
  In  In60  1  0.49906026  0.67190080  0.80916520  1
  In  In61  1  0.49419326  0.17227420  0.32875472  1
  In  In62  1  0.15483899  0.51370669  0.00972681  1
  In  In63  1  0.80866422  0.47629753  -0.03378673  1
  In  In64  1  0.70850054  0.47276644  0.80055647  1
  In  In65  1  0.33165668  0.00629261  0.33458904  1
  In  In66  1  0.16419064  0.32187180  0.83976707  1
  In  In67  1  0.80638870  0.65659976  0.15444757  1
  In  In68  1  0.59289145  0.03726657  -0.00388103  1
  In  In69  1  -0.00748417  0.49425449  0.16424706  1
  In  In70  1  0.19695006  -0.01332287  0.12514724  1
  In  In71  1  0.80711232  0.15675444  -0.01014739  1
  Te  Te72  1  0.08561906  0.08083377  0.08241734  1
  Te  Te73  1  0.08914662  0.06927658  0.42332568  1
  Te  Te74  1  0.08886990  0.06340027  0.76934364  1
  Te  Te75  1  0.08240238  0.40284317  0.08419268  1
  Te  Te76  1  0.11063639  0.43660265  0.41923816  1
  Te  Te77  1  0.07713502  0.41056791  0.75431275  1
  Te  Te78  1  0.10095292  0.75840430  0.07384426  1
  Te  Te79  1  0.06598198  0.82178564  0.40130844  1
  Te  Te80  1  0.11064235  0.77814299  0.73770562  1
  Te  Te81  1  0.45452256  0.06945863  0.05836919  1
  Te  Te82  1  0.41720296  0.08428177  0.43372265  1
  Te  Te83  1  0.38763313  0.07384438  0.70467658  1
  Te  Te84  1  0.40895447  0.41549100  0.08730470  1
  Te  Te85  1  0.41137292  0.42045181  0.43841783  1
  Te  Te86  1  0.41121204  0.41815793  0.77119671  1
  Te  Te87  1  0.36589857  0.75336790  0.13040210  1
  Te  Te88  1  0.44877372  0.75109472  0.42865049  1
  Te  Te89  1  0.39619841  0.77161151  0.76644526  1
  Te  Te90  1  0.72929197  0.06453752  0.09229355  1
  Te  Te91  1  0.77267601  0.07674648  0.42439808  1
  Te  Te92  1  0.75600481  0.10862922  0.76415774  1
  Te  Te93  1  0.72400824  0.43360744  0.08329870  1
  Te  Te94  1  0.73450071  0.39982430  0.41334833  1
  Te  Te95  1  0.82313647  0.41142652  0.73066523  1
  Te  Te96  1  0.73002480  0.75356004  0.06769903  1
  Te  Te97  1  0.75799520  0.73494771  0.44121444  1
  Te  Te98  1  0.75617168  0.75826896  0.74976862  1
  Te  Te99  1  0.08076913  0.25907704  0.24331338  1
  Te  Te100  1  0.07566910  0.24499307  0.60993421  1
  Te  Te101  1  0.07200385  0.23667450  0.92430862  1
  Te  Te102  1  0.08890093  0.59169898  0.22428416  1
  Te  Te103  1  0.10221225  0.60205494  0.57041693  1
  Te  Te104  1  0.09421794  0.59126266  0.89600219  1
  Te  Te105  1  0.11752276  0.91748886  0.23400615  1
  Te  Te106  1  0.04168186  0.87018273  0.54845287  1
  Te  Te107  1  0.09814144  0.86812690  0.89749602  1
  Te  Te108  1  0.39684768  0.23852926  0.23594523  1
  Te  Te109  1  0.42445236  0.25016333  0.60006557  1
  Te  Te110  1  0.41021612  0.21058217  0.88756804  1
  Te  Te111  1  0.38863943  0.60683655  0.28898795  1
  Te  Te112  1  0.41373970  0.58024705  0.58244129  1
  Te  Te113  1  0.41316409  0.58934125  0.91098373  1
  Te  Te114  1  0.40128451  0.93110635  0.22604744  1
  Te  Te115  1  0.41065380  0.91201229  0.58112037  1
  Te  Te116  1  0.40741826  0.98632646  0.87773263  1
  Te  Te117  1  0.72997175  0.23964057  0.24883126  1
  Te  Te118  1  0.75003315  0.23342774  0.57131358  1
  Te  Te119  1  0.76357060  0.27790356  0.92132141  1
  Te  Te120  1  0.74583487  0.57847617  0.26983894  1
  Te  Te121  1  0.76773777  0.57570331  0.57318708  1
  Te  Te122  1  0.74774145  0.59279291  0.89190359  1
  Te  Te123  1  0.74696014  0.89179195  0.25789269  1
  Te  Te124  1  0.75820101  0.92846004  0.59242610  1
  Te  Te125  1  0.74564802  0.92103187  0.92723127  1
  Te  Te126  1  0.25765433  0.23648639  0.05548404  1
  Te  Te127  1  0.25832474  0.24537878  0.43522194  1
  Te  Te128  1  0.26492968  0.21892088  0.79057344  1
  Te  Te129  1  0.26821794  0.57179667  0.08926998  1
  Te  Te130  1  0.21498531  0.65660969  0.39572522  1
  Te  Te131  1  0.25319415  0.60269529  0.73466030  1
  Te  Te132  1  0.30397199  0.89101158  0.09274507  1
  Te  Te133  1  0.24042511  0.91374537  0.40241741  1
  Te  Te134  1  0.28336594  0.98145452  0.77473578  1
  Te  Te135  1  0.55556195  0.26638697  0.07137110  1
  Te  Te136  1  0.59353989  0.23009032  0.41836114  1
  Te  Te137  1  0.52889395  0.24947387  0.80355311  1
  Te  Te138  1  0.54505276  0.59410093  0.09597032  1
  Te  Te139  1  0.58994638  0.57101574  0.41939867  1
  Te  Te140  1  0.58859857  0.57311709  0.73636490  1
  Te  Te141  1  0.54037427  0.91215773  0.05730521  1
  Te  Te142  1  0.59062526  0.91578573  0.41206461  1
  Te  Te143  1  0.58104986  0.92779041  0.77176001  1
  Te  Te144  1  0.89930014  0.22007092  0.08665540  1
  Te  Te145  1  0.93555666  0.25863824  0.41346555  1
  Te  Te146  1  0.90876679  0.26909301  0.76512298  1
  Te  Te147  1  0.90506557  0.57850842  0.06915259  1
  Te  Te148  1  0.94723786  0.59744949  0.39743254  1
  Te  Te149  1  0.90640668  0.59334377  0.72771238  1
  Te  Te150  1  0.91744777  0.91693559  0.09242071  1
  Te  Te151  1  0.88570514  0.94594565  0.42375085  1
  Te  Te152  1  0.93348794  0.90560973  0.75776295  1
  Te  Te153  1  0.24099623  0.09799988  0.24292937  1
  Te  Te154  1  0.21133665  0.05153293  0.57606550  1
  Te  Te155  1  0.26620439  0.02527777  0.92866757  1
  Te  Te156  1  0.24608417  0.42566690  0.26115130  1
  Te  Te157  1  0.25488511  0.41197065  0.59633503  1
  Te  Te158  1  0.24337180  0.41191017  0.93230107  1
  Te  Te159  1  0.27968903  0.73891606  0.27952616  1
  Te  Te160  1  0.23359669  0.78642347  0.58999770  1
  Te  Te161  1  0.27500231  0.80295100  0.92727153  1
  Te  Te162  1  0.56401961  0.06775621  0.24262955  1
  Te  Te163  1  0.58784268  0.10315137  0.60221093  1
  Te  Te164  1  0.59504824  0.12650486  0.87832488  1
  Te  Te165  1  0.56454207  0.39887900  0.25602921  1
  Te  Te166  1  0.60315412  0.37670630  0.61714961  1
  Te  Te167  1  0.59564140  0.42739166  0.89706302  1
  Te  Te168  1  0.57055442  0.74998904  0.23150277  1
  Te  Te169  1  0.57821350  0.77156962  0.61770885  1
  Te  Te170  1  0.55640213  0.74782223  0.92809633  1
  Te  Te171  1  0.94282555  0.07681039  0.25860786  1
  Te  Te172  1  0.93191654  0.06451750  0.60356352  1
  Te  Te173  1  0.92324206  0.05771718  0.92891775  1
  Te  Te174  1  0.89484967  0.41076588  0.24647851  1
  Te  Te175  1  0.92739412  0.41544084  0.59471956  1
  Te  Te176  1  0.93503037  0.41076710  0.93771770  1
  Te  Te177  1  0.90607567  0.73949513  0.23582218  1
  Te  Te178  1  0.94418850  0.74793402  0.56578956  1
  Te  Te179  1  0.91863308  0.73662707  0.89765501  1
