# generated using pymatgen
data_In2Te3
_symmetry_space_group_name_H-M   'P 1'
_cell_length_a   19.00641219
_cell_length_b   19.02996228
_cell_length_c   18.94835406
_cell_angle_alpha   89.99234243
_cell_angle_beta   89.95178213
_cell_angle_gamma   89.84656119
_symmetry_Int_Tables_number   1
_chemical_formula_structural   In2Te3
_chemical_formula_sum   'In72 Te108'
_cell_volume   6853.42788463
_cell_formula_units_Z   36
loop_
 _symmetry_equiv_pos_site_id
 _symmetry_equiv_pos_as_xyz
  1  'x, y, z'
loop_
 _atom_site_type_symbol
 _atom_site_label
 _atom_site_symmetry_multiplicity
 _atom_site_fract_x
 _atom_site_fract_y
 _atom_site_fract_z
 _atom_site_occupancy
  In  In0  1  -0.00786096  0.48609494  0.51561032  1
  In  In1  1  0.32531108  0.69670574  0.35210161  1
  In  In2  1  0.17273063  0.20063998  0.18409699  1
  In  In3  1  0.15068841  0.50798834  0.01731762  1
  In  In4  1  0.52174607  0.81731696  0.33400100  1
  In  In5  1  0.80688405  0.50086372  0.32522788  1
  In  In6  1  0.16164934  0.86773687  0.32659318  1
  In  In7  1  0.68253435  0.31210303  -0.01291665  1
  In  In8  1  0.17066438  -0.00324510  0.15496630  1
  In  In9  1  0.82500744  0.66101751  0.51651209  1
  In  In10  1  0.81861993  0.48640949  -0.02617580  1
  In  In11  1  0.33200494  0.64450874  -0.01565682  1
  In  In12  1  0.13374695  0.49840458  0.68591336  1
  In  In13  1  0.29042728  0.30343964  0.32642600  1
  In  In14  1  -0.02042019  0.66579378  0.66092352  1
  In  In15  1  0.70217733  0.83007697  0.86988380  1
  In  In16  1  0.69601616  0.03529949  0.67331471  1
  In  In17  1  0.16603523  0.00537720  0.48671146  1
  In  In18  1  0.82499680  0.47413100  0.66743010  1
  In  In19  1  0.15559958  0.83288922  -0.01139128  1
  In  In20  1  0.00908650  0.04013063  0.30298205  1
  In  In21  1  -0.02147253  0.03025528  0.67314679  1
  In  In22  1  -0.01429263  0.52084029  0.16241633  1
  In  In23  1  0.33777896  0.47515894  0.83269494  1
  In  In24  1  0.52971385  0.01511634  0.84903397  1
  In  In25  1  0.66500053  0.66138914  0.32599252  1
  In  In26  1  0.67429481  0.00108070  0.29891441  1
  In  In27  1  0.85945659  0.84936495  0.65832371  1
  In  In28  1  0.85029434  0.17613650  0.32133482  1
  In  In29  1  0.00228261  0.67552662  -0.01648808  1
  In  In30  1  0.51105586  0.00702147  0.46890193  1
  In  In31  1  0.53129999  0.65476090  0.14491297  1
  In  In32  1  0.18752625  0.51630633  0.34530178  1
  In  In33  1  0.64766249  0.36039338  0.33944732  1
  In  In34  1  0.35016982  0.01615488  -0.00638354  1
  In  In35  1  0.51866684  0.04895133  0.08958719  1
  In  In36  1  0.83123196  0.84002779  0.32926593  1
  In  In37  1  0.37604275  0.49717665  0.53071917  1
  In  In38  1  0.82631191  0.64820091  0.83841807  1
  In  In39  1  0.66518775  0.65176910  0.68301076  1
  In  In40  1  0.51803532  0.65600301  0.53645119  1
  In  In41  1  0.82757566  0.16631860  -0.02527748  1
  In  In42  1  0.68277600  0.15807728  0.14812529  1
  In  In43  1  0.18285279  0.84629863  0.66798433  1
  In  In44  1  0.34052353  0.51955368  0.18887491  1
  In  In45  1  0.01270821  0.67434108  0.34529371  1
  In  In46  1  -0.02085774  0.34612129  -0.00946304  1
  In  In47  1  0.65813268  0.32336257  0.68419371  1
  In  In48  1  0.33240372  0.32065752  0.65434343  1
  In  In49  1  0.15052890  0.65240747  0.85166079  1
  In  In50  1  0.53402936  0.79860109  0.73436977  1
  In  In51  1  0.33417161  -0.00402718  0.33369978  1
  In  In52  1  0.83310154  0.04128099  0.51421369  1
  In  In53  1  0.32794111  0.15520872  0.85945255  1
  In  In54  1  0.50958389  0.50050730  -0.00724958  1
  In  In55  1  0.16045276  0.16893745  0.65107331  1
  In  In56  1  -0.01771092  0.18696761  0.82839915  1
  In  In57  1  0.49248394  0.34132990  0.18061412  1
  In  In58  1  0.02579792  0.87114328  0.45755523  1
  In  In59  1  0.82695484  0.72405836  0.12845098  1
  In  In60  1  0.15618506  0.35052918  0.83534541  1
  In  In61  1  0.48261261  0.49366906  0.34353196  1
  In  In62  1  0.16375677  0.33481059  0.50233937  1
  In  In63  1  0.84236183  0.33909117  0.17136082  1
  In  In64  1  0.02306767  0.86324079  0.82863584  1
  In  In65  1  0.35768592  0.81704193  0.16527336  1
  In  In66  1  0.49424319  0.28585814  0.85234754  1
  In  In67  1  0.33836289  -0.01247124  0.69912467  1
  In  In68  1  0.52997357  0.84881022  -0.02360356  1
  In  In69  1  0.66813947  0.19815176  0.50301537  1
  In  In70  1  0.49887269  0.32060264  0.52231299  1
  In  In71  1  0.36388079  0.82367771  0.57282698  1
  Te  Te72  1  0.10075008  0.10885453  0.09361547  1
  Te  Te73  1  0.07278508  0.10378879  0.42245358  1
  Te  Te74  1  0.08541130  0.09381589  0.75806072  1
  Te  Te75  1  0.06849378  0.41000567  0.09808360  1
  Te  Te76  1  0.08567212  0.42528836  0.40982021  1
  Te  Te77  1  0.05098568  0.38775167  0.73720950  1
  Te  Te78  1  0.08701343  0.74274467  0.08015219  1
  Te  Te79  1  0.11427759  0.75397103  0.42288187  1
  Te  Te80  1  0.08144575  0.74279056  0.74379298  1
  Te  Te81  1  0.37524000  0.10812095  0.11202260  1
  Te  Te82  1  0.40604931  0.09310871  0.41612743  1
  Te  Te83  1  0.42751177  0.09053130  0.76346488  1
  Te  Te84  1  0.41220012  0.43274934  0.08759798  1
  Te  Te85  1  0.39329087  0.39841278  0.41664588  1
  Te  Te86  1  0.42665018  0.38449149  0.75290572  1
  Te  Te87  1  0.43340863  0.73764818  0.05825878  1
  Te  Te88  1  0.43602527  0.75546803  0.44444056  1
  Te  Te89  1  0.39201356  0.76904195  0.71150353  1
  Te  Te90  1  0.75320604  0.06136703  0.05776585  1
  Te  Te91  1  0.73976180  0.09932446  0.40578093  1
  Te  Te92  1  0.77515581  0.09179898  0.78572240  1
  Te  Te93  1  0.74408962  0.41266303  0.08381537  1
  Te  Te94  1  0.75850762  0.40382527  0.42375702  1
  Te  Te95  1  0.75474122  0.39613762  0.77242176  1
  Te  Te96  1  0.73714278  0.76467821  0.00885616  1
  Te  Te97  1  0.74782790  0.74763619  0.41904906  1
  Te  Te98  1  0.77218685  0.75216822  0.73461338  1
  Te  Te99  1  0.06075895  0.21533573  0.29039723  1
  Te  Te100  1  0.07318646  0.27991800  0.60699116  1
  Te  Te101  1  0.08290011  0.25607964  0.92667615  1
  Te  Te102  1  0.09173519  0.58828183  0.24958737  1
  Te  Te103  1  0.08186584  0.59131593  0.57686967  1
  Te  Te104  1  0.05449570  0.55097040  0.90912948  1
  Te  Te105  1  0.05839943  0.91675903  0.22855766  1
  Te  Te106  1  0.07156617  0.92900057  0.59122977  1
  Te  Te107  1  0.05460049  0.93403237  0.95305739  1
  Te  Te108  1  0.40240830  0.24863209  0.24888700  1
  Te  Te109  1  0.40871336  0.22205911  0.57902231  1
  Te  Te110  1  0.38999322  0.25097292  0.95438276  1
  Te  Te111  1  0.42710287  0.62097049  0.26260419  1
  Te  Te112  1  0.43330656  0.58430991  0.63877788  1
  Te  Te113  1  0.42994035  0.58155760  0.88873824  1
  Te  Te114  1  0.43381660  0.91139766  0.25411695  1
  Te  Te115  1  0.44476614  0.94682542  0.59468629  1
  Te  Te116  1  0.42213559  0.91903178  0.89950170  1
  Te  Te117  1  0.73492541  0.26348179  0.25150511  1
  Te  Te118  1  0.76155653  0.24113300  0.60974842  1
  Te  Te119  1  0.70036620  0.19188251  0.89575778  1
  Te  Te120  1  0.76085245  0.60331489  0.22711556  1
  Te  Te121  1  0.73525538  0.56212767  0.58029336  1
  Te  Te122  1  0.71987206  0.56628138  0.89711095  1
  Te  Te123  1  0.77366835  0.92399347  0.22299040  1
  Te  Te124  1  0.75723457  0.92804953  0.58004005  1
  Te  Te125  1  0.74819945  0.94078728  0.95664624  1
  Te  Te126  1  0.27975545  0.21966665  0.07850078  1
  Te  Te127  1  0.23927476  0.22682715  0.43956180  1
  Te  Te128  1  0.24553794  0.24958280  0.75924684  1
  Te  Te129  1  0.24542086  0.59625968  0.09744481  1
  Te  Te130  1  0.28160149  0.58471848  0.44195994  1
  Te  Te131  1  0.24240722  0.57199800  0.76184048  1
  Te  Te132  1  0.27235093  0.90525715  0.07686818  1
  Te  Te133  1  0.26587736  0.90390048  0.43377141  1
  Te  Te134  1  0.23015182  0.92893584  0.77983523  1
  Te  Te135  1  0.58282490  0.25891709  0.08940178  1
  Te  Te136  1  0.56600916  0.25201532  0.40397437  1
  Te  Te137  1  0.57663789  0.21924510  0.75000630  1
  Te  Te138  1  0.61489384  0.59095300  0.04314825  1
  Te  Te139  1  0.58187049  0.57687184  0.42254516  1
  Te  Te140  1  0.56503951  0.55110715  0.71326149  1
  Te  Te141  1  0.58336588  0.91782879  0.09229129  1
  Te  Te142  1  0.61261642  0.91239645  0.40713818  1
  Te  Te143  1  0.62003689  0.93047714  0.76104815  1
  Te  Te144  1  0.91197247  0.24383429  0.08073955  1
  Te  Te145  1  0.95736190  0.24490264  0.39344438  1
  Te  Te146  1  0.86499799  0.20034967  0.73341865  1
  Te  Te147  1  0.89438758  0.59163537  0.06255734  1
  Te  Te148  1  0.91206894  0.58435987  0.41614157  1
  Te  Te149  1  0.91724540  0.56365738  0.75059654  1
  Te  Te150  1  0.86148266  0.84282354  0.04240480  1
  Te  Te151  1  0.90590303  0.94818063  0.41121278  1
  Te  Te152  1  0.90413488  0.93952016  0.77019813  1
  Te  Te153  1  0.23180238  0.08012004  0.26505469  1
  Te  Te154  1  0.25359681  0.06436423  0.59460671  1
  Te  Te155  1  0.23375894  0.05558616  0.91188839  1
  Te  Te156  1  0.23991925  0.41884892  0.24067162  1
  Te  Te157  1  0.24717677  0.43423882  0.59624009  1
  Te  Te158  1  0.24566823  0.41814580  0.93884446  1
  Te  Te159  1  0.24189166  0.76262334  0.24574062  1
  Te  Te160  1  0.25211960  0.73358564  0.60462645  1
  Te  Te161  1  0.25464197  0.74759373  0.90553356  1
  Te  Te162  1  0.57435959  0.09103013  0.23225071  1
  Te  Te163  1  0.59433746  0.08738803  0.57365006  1
  Te  Te164  1  0.56722047  0.10437890  0.96054757  1
  Te  Te165  1  0.58256412  0.45153763  0.23762107  1
  Te  Te166  1  0.58497813  0.41523502  0.59127220  1
  Te  Te167  1  0.58206740  0.39563782  0.90947673  1
  Te  Te168  1  0.60804200  0.75964388  0.22329959  1
  Te  Te169  1  0.59958384  0.76427426  0.59989939  1
  Te  Te170  1  0.57343600  0.74729231  0.87165247  1
  Te  Te171  1  0.89295850  0.07760622  0.22189327  1
  Te  Te172  1  0.93358155  0.12939676  0.57380148  1
  Te  Te173  1  0.94156728  0.08540242  0.92743366  1
  Te  Te174  1  0.92445181  0.42500832  0.26356986  1
  Te  Te175  1  0.89469650  0.39143134  0.56660280  1
  Te  Te176  1  0.87491416  0.37804586  0.88915148  1
  Te  Te177  1  0.92199522  0.74748502  0.24997606  1
  Te  Te178  1  0.93175807  0.76688328  0.55083676  1
  Te  Te179  1  0.92640039  0.75483474  0.88169392  1
