# generated using pymatgen
data_In2Te3
_symmetry_space_group_name_H-M   'P 1'
_cell_length_a   18.93887359
_cell_length_b   18.95582042
_cell_length_c   18.95907755
_cell_angle_alpha   90.05536410
_cell_angle_beta   90.18329053
_cell_angle_gamma   90.03123190
_symmetry_Int_Tables_number   1
_chemical_formula_structural   In2Te3
_chemical_formula_sum   'In72 Te108'
_cell_volume   6806.30558411
_cell_formula_units_Z   36
loop_
 _symmetry_equiv_pos_site_id
 _symmetry_equiv_pos_as_xyz
  1  'x, y, z'
loop_
 _atom_site_type_symbol
 _atom_site_label
 _atom_site_symmetry_multiplicity
 _atom_site_fract_x
 _atom_site_fract_y
 _atom_site_fract_z
 _atom_site_occupancy
  In  In0  1  0.34228499  0.49887512  0.51394537  1
  In  In1  1  -0.01012002  0.81876098  0.20358824  1
  In  In2  1  0.86142531  0.51858951  -0.00052257  1
  In  In3  1  0.48978574  0.50284005  -0.02148050  1
  In  In4  1  0.02661468  0.86024577  0.52964113  1
  In  In5  1  -0.00531922  0.34456414  0.64925929  1
  In  In6  1  0.48867114  0.83111323  0.66306544  1
  In  In7  1  0.18998641  0.65743573  0.15392028  1
  In  In8  1  0.17091317  0.30426496  0.50507366  1
  In  In9  1  0.83148684  0.00103033  0.17824113  1
  In  In10  1  0.48548257  0.01348587  0.83129725  1
  In  In11  1  0.16762480  0.47695695  -0.03153258  1
  In  In12  1  0.50458487  0.32934415  0.52433240  1
  In  In13  1  0.64743478  0.64426011  0.66024178  1
  In  In14  1  0.36502279  0.81809975  0.18735767  1
  In  In15  1  0.00614717  0.15575821  0.15907072  1
  In  In16  1  0.67939447  0.15625513  0.16331673  1
  In  In17  1  -0.00813855  0.66292894  0.68351073  1
  In  In18  1  0.66250370  -0.03102732  0.31503560  1
  In  In19  1  0.17526616  0.66298211  0.81828441  1
  In  In20  1  0.31281492  0.35251577  0.33067886  1
  In  In21  1  0.50267247  0.17858180  -0.02898190  1
  In  In22  1  0.66667765  0.49812938  0.50177945  1
  In  In23  1  0.82060278  0.51276690  0.35370108  1
  In  In24  1  0.66984820  0.17072236  0.50674545  1
  In  In25  1  0.16622543  0.82553638  0.32545249  1
  In  In26  1  0.81919457  0.17949890  0.32845176  1
  In  In27  1  0.33868249  0.16047790  0.16105544  1
  In  In28  1  0.33335698  0.81832758  0.86568100  1
  In  In29  1  0.02358274  0.68492343  -0.00034797  1
  In  In30  1  0.02472037  0.52351296  0.14273339  1
  In  In31  1  0.18049205  0.23882473  -0.03666930  1
  In  In32  1  -0.02234677  0.33932182  0.34286716  1
  In  In33  1  0.84653773  0.15541373  0.65558036  1
  In  In34  1  0.01813839  0.87324371  0.81865548  1
  In  In35  1  0.84530046  0.65356598  0.84039363  1
  In  In36  1  0.85862501  0.00916613  0.83745412  1
  In  In37  1  0.49422195  0.37597904  0.17122918  1
  In  In38  1  0.48600816  0.16414920  0.35410920  1
  In  In39  1  0.68058592  0.32028135  0.00591437  1
  In  In40  1  -0.01015312  0.50445750  0.50958790  1
  In  In41  1  0.17057668  0.02416355  0.82629360  1
  In  In42  1  -0.00362019  0.47465738  0.80203201  1
  In  In43  1  0.50008561  0.82898285  0.34851498  1
  In  In44  1  0.67018816  0.50962759  0.82751930  1
  In  In45  1  0.85610726  0.31779724  0.17519723  1
  In  In46  1  0.84142528  0.81230966  0.67481664  1
  In  In47  1  0.14938566  0.35221253  0.18258105  1
  In  In48  1  0.82502317  0.81185724  0.01142622  1
  In  In49  1  0.50438285  -0.04054257  0.16661940  1
  In  In50  1  0.66750384  0.48705096  0.17837120  1
  In  In51  1  0.48886058  0.34587275  0.80287123  1
  In  In52  1  0.34299976  0.81441963  0.50144871  1
  In  In53  1  0.83744154  -0.00075650  0.50814065  1
  In  In54  1  0.26925002  0.05334975  0.39950176  1
  In  In55  1  0.49802502  0.63417644  0.18656717  1
  In  In56  1  0.16309148  -0.02444507  0.16933249  1
  In  In57  1  0.31259424  0.01494499  0.65826176  1
  In  In58  1  0.32184908  0.64145222  0.66687317  1
  In  In59  1  0.56022330  0.78677651  0.04296153  1
  In  In60  1  0.15885440  0.66402931  0.51708283  1
  In  In61  1  0.17189883  0.51042756  0.33447890  1
  In  In62  1  0.65126002  0.18824927  0.82505865  1
  In  In63  1  0.81345466  0.34065747  0.81072176  1
  In  In64  1  0.67129103  0.66130066  0.33898395  1
  In  In65  1  0.65821154  0.82862570  0.85981252  1
  In  In66  1  0.32396828  0.33391663  0.66307990  1
  In  In67  1  0.33398805  -0.01061917  0.00526955  1
  In  In68  1  0.31714307  0.19684085  0.80683962  1
  In  In69  1  0.66083734  0.01143106  0.64848662  1
  In  In70  1  0.00892853  -0.00147861  -0.00152088  1
  In  In71  1  0.65874191  0.82388556  0.47438077  1
  Te  Te72  1  0.11086349  0.08233983  0.07591630  1
  Te  Te73  1  0.13882843  0.10301320  0.44781875  1
  Te  Te74  1  0.08804852  0.06188794  0.71007789  1
  Te  Te75  1  0.07118763  0.40462871  0.06250701  1
  Te  Te76  1  0.09039420  0.41516597  0.41837934  1
  Te  Te77  1  0.09984306  0.38298636  0.74960385  1
  Te  Te78  1  0.09426473  0.76652649  0.10474922  1
  Te  Te79  1  0.07847743  0.75371798  0.42608391  1
  Te  Te80  1  0.08996594  0.76393486  0.74156049  1
  Te  Te81  1  0.43867198  0.07933053  0.07853066  1
  Te  Te82  1  0.39324675  0.11462850  0.45868227  1
  Te  Te83  1  0.41311723  0.10325138  0.73452561  1
  Te  Te84  1  0.40251740  0.42979161  0.07149526  1
  Te  Te85  1  0.41878794  0.40829917  0.42054815  1
  Te  Te86  1  0.38770786  0.43844077  0.74816298  1
  Te  Te87  1  0.42591900  0.72865256  0.08411046  1
  Te  Te88  1  0.42390594  0.72592632  0.41772937  1
  Te  Te89  1  0.40174680  0.74640681  0.75117164  1
  Te  Te90  1  0.77733535  0.09240200  0.07662713  1
  Te  Te91  1  0.74214341  0.06781800  0.40314901  1
  Te  Te92  1  0.74577060  0.07801422  0.75635163  1
  Te  Te93  1  0.76996844  0.41988711  0.07857227  1
  Te  Te94  1  0.76825328  0.40684265  0.43936350  1
  Te  Te95  1  0.71558138  0.41206008  0.72519059  1
  Te  Te96  1  0.70770530  0.76166485  0.08182340  1
  Te  Te97  1  0.76945784  0.74797123  0.41268367  1
  Te  Te98  1  0.73961211  0.74046785  0.76229544  1
  Te  Te99  1  0.07257985  0.24913812  0.26032735  1
  Te  Te100  1  0.04552455  0.24129385  0.55374996  1
  Te  Te101  1  0.06350080  0.21597825  0.88059771  1
  Te  Te102  1  0.08520231  0.60566603  0.25425823  1
  Te  Te103  1  0.08576483  0.56961920  0.61009010  1
  Te  Te104  1  0.06286846  0.57869697  0.89879811  1
  Te  Te105  1  0.06639562  0.93020894  0.27542211  1
  Te  Te106  1  0.11811127  0.94833238  0.60836412  1
  Te  Te107  1  0.11372422  0.91636403  0.92658927  1
  Te  Te108  1  0.41549123  0.25995769  0.25113361  1
  Te  Te109  1  0.38664726  0.24530071  0.56128472  1
  Te  Te110  1  0.40635040  0.27444171  0.91143204  1
  Te  Te111  1  0.38895579  0.54901581  0.22998538  1
  Te  Te112  1  0.43291904  0.58375059  0.59148610  1
  Te  Te113  1  0.45162654  0.61186486  0.88856859  1
  Te  Te114  1  0.40881324  0.93216494  0.27874397  1
  Te  Te115  1  0.41109575  0.92889668  0.57822154  1
  Te  Te116  1  0.43877378  0.90883190  0.93113046  1
  Te  Te117  1  0.73082144  0.27285299  0.24761123  1
  Te  Te118  1  0.75334077  0.25051441  0.59560904  1
  Te  Te119  1  0.76471701  0.23578621  0.91421963  1
  Te  Te120  1  0.76064375  0.58989663  0.23690124  1
  Te  Te121  1  0.75077860  0.60000030  0.56963188  1
  Te  Te122  1  0.74554340  0.59280008  0.93518118  1
  Te  Te123  1  0.77190236  0.88614221  0.25552442  1
  Te  Te124  1  0.74193044  0.89675698  0.58818599  1
  Te  Te125  1  0.76746513  0.91906940  0.91825710  1
  Te  Te126  1  0.24565048  0.26305875  0.10241566  1
  Te  Te127  1  0.23302344  0.23997447  0.38566686  1
  Te  Te128  1  0.21066057  0.25641632  0.72396629  1
  Te  Te129  1  0.24506632  0.58652520  0.03467412  1
  Te  Te130  1  0.25803242  0.59359990  0.42698612  1
  Te  Te131  1  0.26041401  0.55285852  0.76975707  1
  Te  Te132  1  0.26507495  0.89147163  0.09533765  1
  Te  Te133  1  0.24401797  0.90423207  0.42810422  1
  Te  Te134  1  0.26937090  0.92249286  0.77068452  1
  Te  Te135  1  0.57125333  0.25592557  0.08930295  1
  Te  Te136  1  0.58749483  0.25867394  0.41407165  1
  Te  Te137  1  0.55873283  0.24193760  0.72627247  1
  Te  Te138  1  0.58551466  0.56745915  0.08080658  1
  Te  Te139  1  0.57949703  0.56086656  0.39702725  1
  Te  Te140  1  0.55766513  0.58457747  0.76336757  1
  Te  Te141  1  0.61953902  0.91643854  0.08837449  1
  Te  Te142  1  0.56947395  0.93819523  0.43049206  1
  Te  Te143  1  0.58227209  0.91514843  0.75196717  1
  Te  Te144  1  0.92201052  0.23866740  0.07266610  1
  Te  Te145  1  0.91020109  0.24010885  0.42799493  1
  Te  Te146  1  0.91894508  0.25196779  0.74798016  1
  Te  Te147  1  0.91912698  0.62417891  0.09213103  1
  Te  Te148  1  0.93673279  0.58715551  0.40180151  1
  Te  Te149  1  0.89017348  0.55991605  0.73172806  1
  Te  Te150  1  0.92494161  0.90805564  0.08664721  1
  Te  Te151  1  0.93199311  0.91781518  0.43194260  1
  Te  Te152  1  0.91958084  0.93446114  0.72046311  1
  Te  Te153  1  0.25072630  0.07342566  0.24576256  1
  Te  Te154  1  0.19797954  0.08911338  0.59226632  1
  Te  Te155  1  0.27325527  0.09824328  0.92080641  1
  Te  Te156  1  0.26222431  0.45676024  0.22134367  1
  Te  Te157  1  0.23030879  0.42263886  0.57916536  1
  Te  Te158  1  0.23827749  0.36337861  0.90920169  1
  Te  Te159  1  0.26752939  0.73143913  0.26328859  1
  Te  Te160  1  0.24471794  0.75642408  0.60090983  1
  Te  Te161  1  0.24069236  0.72663155  0.93575819  1
  Te  Te162  1  0.57721441  0.08480968  0.25172908  1
  Te  Te163  1  0.56578383  0.09744080  0.58115679  1
  Te  Te164  1  0.59662704  0.07456397  0.91632413  1
  Te  Te165  1  0.57330597  0.43748442  0.28089405  1
  Te  Te166  1  0.58720571  0.42278142  0.60397851  1
  Te  Te167  1  0.59371135  0.40081863  0.91146647  1
  Te  Te168  1  0.58184341  0.74846410  0.25220015  1
  Te  Te169  1  0.57252258  0.74429231  0.57194788  1
  Te  Te170  1  0.56265883  0.72344321  0.90552592  1
  Te  Te171  1  0.92156369  0.08595840  0.26552074  1
  Te  Te172  1  0.94068263  0.09041251  0.56216353  1
  Te  Te173  1  0.96084234  0.10073975  0.89850640  1
  Te  Te174  1  0.93219718  0.43575193  0.23334485  1
  Te  Te175  1  0.89011896  0.41190266  0.56619613  1
  Te  Te176  1  0.91227878  0.40880142  0.90937191  1
  Te  Te177  1  0.87642951  0.77202782  0.28264851  1
  Te  Te178  1  0.92748020  0.74372939  0.57367090  1
  Te  Te179  1  0.92974176  0.76627825  0.89948550  1
