# generated using pymatgen
data_In2Te3
_symmetry_space_group_name_H-M   'P 1'
_cell_length_a   18.95790295
_cell_length_b   18.95986723
_cell_length_c   18.95669068
_cell_angle_alpha   89.96283509
_cell_angle_beta   90.06090297
_cell_angle_gamma   90.07809265
_symmetry_Int_Tables_number   1
_chemical_formula_structural   In2Te3
_chemical_formula_sum   'In72 Te108'
_cell_volume   6813.76845817
_cell_formula_units_Z   36
loop_
 _symmetry_equiv_pos_site_id
 _symmetry_equiv_pos_as_xyz
  1  'x, y, z'
loop_
 _atom_site_type_symbol
 _atom_site_label
 _atom_site_symmetry_multiplicity
 _atom_site_fract_x
 _atom_site_fract_y
 _atom_site_fract_z
 _atom_site_occupancy
  In  In0  1  0.34297768  0.02597172  0.01509975  1
  In  In1  1  0.34236648  -0.01164212  0.65846346  1
  In  In2  1  0.70140458  0.84207674  0.50502566  1
  In  In3  1  0.28475746  0.21110123  0.89719812  1
  In  In4  1  0.66456946  0.67912336  0.35510855  1
  In  In5  1  0.12883212  0.46264400  0.37384215  1
  In  In6  1  0.81768482  0.49294023  0.34190429  1
  In  In7  1  0.50562378  0.48529951  0.62763369  1
  In  In8  1  0.51394544  0.32729618  0.15611814  1
  In  In9  1  0.14930067  0.03085871  0.13235857  1
  In  In10  1  0.84963719  0.49779161  -0.01678184  1
  In  In11  1  0.65935155  0.68886515  0.68748363  1
  In  In12  1  0.50547804  0.15837006  0.66316622  1
  In  In13  1  0.83513149  0.01134394  0.49873809  1
  In  In14  1  0.84482929  0.84813768  0.01660721  1
  In  In15  1  0.68485265  0.47321014  0.49529956  1
  In  In16  1  0.66097804  0.04493518  0.32173554  1
  In  In17  1  0.67840678  0.48650625  0.82832441  1
  In  In18  1  0.51525753  0.64483383  0.86997784  1
  In  In19  1  0.34198103  0.67572806  -0.00936583  1
  In  In20  1  0.66221418  0.14676694  0.51446823  1
  In  In21  1  0.09022684  0.03021102  0.89069993  1
  In  In22  1  -0.00526713  0.03243935  0.67318158  1
  In  In23  1  0.14728446  0.82434554  0.64952371  1
  In  In24  1  -0.00178996  0.66613814  0.66172369  1
  In  In25  1  0.64507993  0.29854041  0.33509688  1
  In  In26  1  0.67384568  -0.00507046  0.00664358  1
  In  In27  1  0.33129763  0.30657428  0.67168810  1
  In  In28  1  0.66423340  0.85116386  0.18385150  1
  In  In29  1  0.86596887  0.03266590  0.85157812  1
  In  In30  1  0.67774647  0.15860975  0.84752953  1
  In  In31  1  0.15601464  0.67625767  0.15407113  1
  In  In32  1  0.82513626  0.65328018  0.82338583  1
  In  In33  1  0.48856990  0.83577386  0.67048502  1
  In  In34  1  0.82342014  0.16372080  0.66838004  1
  In  In35  1  0.29298551  0.67968577  0.67751200  1
  In  In36  1  0.48168959  0.48528084  0.01510862  1
  In  In37  1  0.51060151  -0.00075075  0.81329399  1
  In  In38  1  0.33153494  0.86315021  0.19359449  1
  In  In39  1  0.01207643  0.67943081  -0.00766381  1
  In  In40  1  0.15952220  0.65619879  0.83382855  1
  In  In41  1  -0.00949899  0.50140057  0.16534319  1
  In  In42  1  0.16867453  0.17511797  0.32822640  1
  In  In43  1  0.83579869  0.67417386  0.50874748  1
  In  In44  1  -0.00212090  0.31511378  0.66316137  1
  In  In45  1  -0.00715092  0.02291416  0.33925911  1
  In  In46  1  0.31100337  0.49407686  0.17906975  1
  In  In47  1  0.51595064  0.85188060  0.33651155  1
  In  In48  1  0.34197207  0.16867276  0.17800734  1
  In  In49  1  0.18637962  0.68147362  0.47938930  1
  In  In50  1  0.33225970  0.82597112  0.83172013  1
  In  In51  1  0.15827792  0.47748892  0.67390585  1
  In  In52  1  0.02310694  0.47473505  0.50436320  1
  In  In53  1  -0.01826711  0.67401712  0.31811789  1
  In  In54  1  0.33148091  0.47811732  0.50170967  1
  In  In55  1  0.82284102  0.70353989  0.17820344  1
  In  In56  1  0.14995814  0.86648690  0.34933872  1
  In  In57  1  0.47483320  0.31449769  0.82890667  1
  In  In58  1  0.36133280  0.14220438  0.49330965  1
  In  In59  1  0.34615866  0.66536157  0.31601403  1
  In  In60  1  0.15000727  0.29691007  0.15336832  1
  In  In61  1  0.83738850  0.01869193  0.15471606  1
  In  In62  1  0.68592703  0.33124435  -0.00569117  1
  In  In63  1  0.48880286  0.66191257  0.48750804  1
  In  In64  1  0.50019636  0.81435756  -0.00507414  1
  In  In65  1  0.17443898  0.00361348  0.51016594  1
  In  In66  1  0.83849661  0.32102424  0.21119019  1
  In  In67  1  0.65475141  0.50267557  0.13516193  1
  In  In68  1  0.83640743  0.49419311  0.66094102  1
  In  In69  1  -0.01753218  0.33905230  -0.00304838  1
  In  In70  1  0.34332352  0.34582828  0.33232321  1
  In  In71  1  0.18598612  0.46775321  -0.03649596  1
  Te  Te72  1  0.06777077  0.12252065  0.04646847  1
  Te  Te73  1  0.08731634  0.10050600  0.43202798  1
  Te  Te74  1  0.10602028  0.08345747  0.75462170  1
  Te  Te75  1  0.09289408  0.42533759  0.08270731  1
  Te  Te76  1  0.07821464  0.33505791  0.45062410  1
  Te  Te77  1  0.06392641  0.40717612  0.75835854  1
  Te  Te78  1  0.08433982  0.77882034  0.07545832  1
  Te  Te79  1  0.07046763  0.75531042  0.41836279  1
  Te  Te80  1  0.07087750  0.75583193  0.76251052  1
  Te  Te81  1  0.44549803  0.08904615  0.10276239  1
  Te  Te82  1  0.39272464  0.03296206  0.40060480  1
  Te  Te83  1  0.40453779  0.08880962  0.75419152  1
  Te  Te84  1  0.38933300  0.39594085  0.09391438  1
  Te  Te85  1  0.43587225  0.42099556  0.41818596  1
  Te  Te86  1  0.41793924  0.41818495  0.73182488  1
  Te  Te87  1  0.40210580  0.76078644  0.09987310  1
  Te  Te88  1  0.41160236  0.76612627  0.40861093  1
  Te  Te89  1  0.41895058  0.72545004  0.75884643  1
  Te  Te90  1  0.74650678  0.10251456  0.07505022  1
  Te  Te91  1  0.76669668  0.11250770  0.40796698  1
  Te  Te92  1  0.74800664  0.06374046  0.75428354  1
  Te  Te93  1  0.77673575  0.42192377  0.09588164  1
  Te  Te94  1  0.75930374  0.37217769  0.41118886  1
  Te  Te95  1  0.74639118  0.40264903  0.73149638  1
  Te  Te96  1  0.73082838  0.76573847  0.07621158  1
  Te  Te97  1  0.77990861  0.76419793  0.39856850  1
  Te  Te98  1  0.77886865  0.75948392  0.73212192  1
  Te  Te99  1  0.04962026  0.22754636  0.24506471  1
  Te  Te100  1  0.08936550  0.24790482  0.57154364  1
  Te  Te101  1  0.07714552  0.23730508  0.94154328  1
  Te  Te102  1  0.08918685  0.58312831  0.25650034  1
  Te  Te103  1  0.10716107  0.59492665  0.57903147  1
  Te  Te104  1  0.07441981  0.56325616  0.91860906  1
  Te  Te105  1  0.08197276  0.94110656  0.23820809  1
  Te  Te106  1  0.06422342  0.92478653  0.57751184  1
  Te  Te107  1  0.05248360  0.90866002  0.96856335  1
  Te  Te108  1  0.43748774  0.24881490  0.26376059  1
  Te  Te109  1  0.43370153  0.25371041  0.57131816  1
  Te  Te110  1  0.42640716  0.22962697  0.93541424  1
  Te  Te111  1  0.42201651  0.57043231  0.23658053  1
  Te  Te112  1  0.39118660  0.59497275  0.58522110  1
  Te  Te113  1  0.39763766  0.55981915  0.91054528  1
  Te  Te114  1  0.44066803  0.95291139  0.25142501  1
  Te  Te115  1  0.45074155  0.93841706  0.57001316  1
  Te  Te116  1  0.41475493  0.91938938  0.91764078  1
  Te  Te117  1  0.72806066  0.22676779  0.23597013  1
  Te  Te118  1  0.72547560  0.25089191  0.59824136  1
  Te  Te119  1  0.77450212  0.25431394  0.90627377  1
  Te  Te120  1  0.74649470  0.59058716  0.24908046  1
  Te  Te121  1  0.73340297  0.59155423  0.58588523  1
  Te  Te122  1  0.73756725  0.58447447  0.92738685  1
  Te  Te123  1  0.75907622  0.94107668  0.25757436  1
  Te  Te124  1  0.77020124  0.92676314  0.60093698  1
  Te  Te125  1  0.76861274  0.92680956  0.91162188  1
  Te  Te126  1  0.25716742  0.23479580  0.07514745  1
  Te  Te127  1  0.27201914  0.24285568  0.41680829  1
  Te  Te128  1  0.22602680  0.25845751  0.76470174  1
  Te  Te129  1  0.24340420  0.58143644  0.07171489  1
  Te  Te130  1  0.25212589  0.56858179  0.40111596  1
  Te  Te131  1  0.25221630  0.56074655  0.76179641  1
  Te  Te132  1  0.25182330  0.92394590  0.08121119  1
  Te  Te133  1  0.26807608  0.93719109  0.41224569  1
  Te  Te134  1  0.24357507  0.90558512  0.73938880  1
  Te  Te135  1  0.61156504  0.24268511  0.08500494  1
  Te  Te136  1  0.56732460  0.20209903  0.41396201  1
  Te  Te137  1  0.58730224  0.24394348  0.75759340  1
  Te  Te138  1  0.56732385  0.59516433  0.06351312  1
  Te  Te139  1  0.58643954  0.56759535  0.42028898  1
  Te  Te140  1  0.57524987  0.57222569  0.74057675  1
  Te  Te141  1  0.56967467  0.91494070  0.08435144  1
  Te  Te142  1  0.61568564  0.93176581  0.41534500  1
  Te  Te143  1  0.59242090  0.88915222  0.76002040  1
  Te  Te144  1  0.91099319  0.26188254  0.09941479  1
  Te  Te145  1  0.95426484  0.27993114  0.35404601  1
  Te  Te146  1  0.91036953  0.24295196  0.75772911  1
  Te  Te147  1  0.90989106  0.60446820  0.08868903  1
  Te  Te148  1  0.92004729  0.57745479  0.42764268  1
  Te  Te149  1  0.93004678  0.56800567  0.75448027  1
  Te  Te150  1  0.94196787  0.95698957  0.05672331  1
  Te  Te151  1  0.92094657  0.92335875  0.41786841  1
  Te  Te152  1  0.94496845  0.93652984  0.77359786  1
  Te  Te153  1  0.24361436  0.07454593  0.24400153  1
  Te  Te154  1  0.25721711  0.09782744  0.59514087  1
  Te  Te155  1  0.24052150  0.06462473  0.91101927  1
  Te  Te156  1  0.21499997  0.39568461  0.25955768  1
  Te  Te157  1  0.23930471  0.39016554  0.58038573  1
  Te  Te158  1  0.25742574  0.36484547  0.88949687  1
  Te  Te159  1  0.23231340  0.75958392  0.26038237  1
  Te  Te160  1  0.26667169  0.77797385  0.56543559  1
  Te  Te161  1  0.23311983  0.75648474  0.92278614  1
  Te  Te162  1  0.55555011  0.06048810  0.22015713  1
  Te  Te163  1  0.57517218  0.05098329  0.59058254  1
  Te  Te164  1  0.57400926  0.07941150  0.92457197  1
  Te  Te165  1  0.59745520  0.41850970  0.24459698  1
  Te  Te166  1  0.60230535  0.38600847  0.58164012  1
  Te  Te167  1  0.57502929  0.41177154  0.91573181  1
  Te  Te168  1  0.57724619  0.74312995  0.24933309  1
  Te  Te169  1  0.58156327  0.75314645  0.56640630  1
  Te  Te170  1  0.59627327  0.76370128  0.89414189  1
  Te  Te171  1  0.92476171  0.10700730  0.23729665  1
  Te  Te172  1  0.92438948  0.11518083  0.56592880  1
  Te  Te173  1  0.96677074  0.12650712  0.91759521  1
  Te  Te174  1  0.94571116  0.42036679  0.28641407  1
  Te  Te175  1  0.90524868  0.40193589  0.56444391  1
  Te  Te176  1  0.89721681  0.39618518  0.88973787  1
  Te  Te177  1  0.93622522  0.78009612  0.22842315  1
  Te  Te178  1  0.91495033  0.76457230  0.59274607  1
  Te  Te179  1  0.90386391  0.74967576  0.91525799  1
