# generated using pymatgen
data_In2Te3
_symmetry_space_group_name_H-M   'P 1'
_cell_length_a   18.79136468
_cell_length_b   18.79209446
_cell_length_c   18.78966361
_cell_angle_alpha   89.95077733
_cell_angle_beta   90.04000617
_cell_angle_gamma   90.11359516
_symmetry_Int_Tables_number   1
_chemical_formula_structural   In2Te3
_chemical_formula_sum   'In72 Te108'
_cell_volume   6635.15990310
_cell_formula_units_Z   36
loop_
 _symmetry_equiv_pos_site_id
 _symmetry_equiv_pos_as_xyz
  1  'x, y, z'
loop_
 _atom_site_type_symbol
 _atom_site_label
 _atom_site_symmetry_multiplicity
 _atom_site_fract_x
 _atom_site_fract_y
 _atom_site_fract_z
 _atom_site_occupancy
  In  In0  1  0.34587875  0.16780492  0.16226355  1
  In  In1  1  0.17010335  0.20056195  0.32906550  1
  In  In2  1  0.30857377  0.84818305  0.83956627  1
  In  In3  1  0.82903469  0.69610453  0.46582753  1
  In  In4  1  0.49026126  0.67891214  0.83817934  1
  In  In5  1  0.00250955  0.50026541  0.17311939  1
  In  In6  1  0.33336638  0.01831685  -0.00646109  1
  In  In7  1  0.16646318  0.15442814  0.66867197  1
  In  In8  1  0.14415954  -0.00976197  0.18274859  1
  In  In9  1  0.82924163  0.16904611  0.31667154  1
  In  In10  1  -0.00301421  0.67217776  0.00851629  1
  In  In11  1  0.66625092  0.66829416  0.64603265  1
  In  In12  1  0.15512005  0.52051257  0.32910554  1
  In  In13  1  0.01389201  0.81831525  0.83308232  1
  In  In14  1  0.52976015  0.01297294  0.18971063  1
  In  In15  1  0.69453146  0.66586027  0.01710358  1
  In  In16  1  0.16094381  0.67356284  0.16627242  1
  In  In17  1  0.35105899  0.32984050  0.33182360  1
  In  In18  1  0.34503168  0.34485558  -0.01670968  1
  In  In19  1  0.15495332  0.51187156  0.64862831  1
  In  In20  1  0.65273812  -0.00065526  0.62478959  1
  In  In21  1  0.48688830  0.85767925  0.01277130  1
  In  In22  1  0.34007570  0.15877261  0.83231710  1
  In  In23  1  -0.01254244  0.50743412  0.85664097  1
  In  In24  1  0.63628575  0.47065191  0.83319672  1
  In  In25  1  0.35833277  0.53666236  0.20292292  1
  In  In26  1  0.15411979  0.14210575  0.01450892  1
  In  In27  1  0.51163153  0.81222757  0.64387498  1
  In  In28  1  0.30729401  0.66484180  0.64211390  1
  In  In29  1  0.67251485  0.16869995  0.85872152  1
  In  In30  1  0.33378519  -0.00659036  0.67450598  1
  In  In31  1  0.15252292  0.84594322  0.00021675  1
  In  In32  1  0.50585643  0.46102676  0.65926366  1
  In  In33  1  0.15399857  0.67474719  0.50108677  1
  In  In34  1  0.14177793  0.33663735  0.16278207  1
  In  In35  1  -0.02928370  -0.01875778  0.31739344  1
  In  In36  1  0.32262563  0.83120403  0.50894045  1
  In  In37  1  0.36926836  0.32648823  0.64394111  1
  In  In38  1  -0.02114053  0.33711385  0.66457099  1
  In  In39  1  0.52576602  0.83292960  0.32274107  1
  In  In40  1  0.33056457  0.49181420  0.48939412  1
  In  In41  1  0.83896303  0.15891290  0.64424895  1
  In  In42  1  0.32128563  0.65933847  0.02608267  1
  In  In43  1  0.15751849  0.31959530  0.46321984  1
  In  In44  1  -0.01562231  0.14905447  0.48914621  1
  In  In45  1  0.00007214  0.15731624  0.84181365  1
  In  In46  1  0.49835392  0.48191440  -0.00065076  1
  In  In47  1  0.51434228  0.66275383  0.48546960  1
  In  In48  1  0.84907584  0.69283434  0.19173230  1
  In  In49  1  0.82760612  0.51453352  0.65575115  1
  In  In50  1  0.67593736  0.01647954  0.02141114  1
  In  In51  1  0.00954162  0.33243889  0.32291468  1
  In  In52  1  0.66942866  0.85647641  0.84215090  1
  In  In53  1  0.82663106  0.00660822  0.83330541  1
  In  In54  1  0.33456731  0.81375493  0.17871681  1
  In  In55  1  0.35174159  0.02011494  0.36345226  1
  In  In56  1  0.52649741  0.32441882  0.84521782  1
  In  In57  1  0.15370007  0.31361322  0.84651019  1
  In  In58  1  0.68532167  0.50416764  0.17781559  1
  In  In59  1  0.15673171  -0.00845460  0.49964571  1
  In  In60  1  0.67781076  0.33908753  0.32999218  1
  In  In61  1  -0.01162980  0.83609522  0.49094865  1
  In  In62  1  0.81710024  0.47253580  0.00841517  1
  In  In63  1  0.69163834  -0.00047798  0.32362783  1
  In  In64  1  0.29715098  0.50930244  0.80635081  1
  In  In65  1  0.68461195  0.32109200  0.65136216  1
  In  In66  1  0.51625166  0.30679888  0.49547416  1
  In  In67  1  0.81647300  0.83801300  0.65291398  1
  In  In68  1  0.83993803  0.50028120  0.33349050  1
  In  In69  1  0.85137407  0.66357846  0.84461618  1
  In  In70  1  0.84294492  0.18880582  0.02753805  1
  In  In71  1  0.52616265  0.31133464  0.15727434  1
  Te  Te72  1  0.06064558  0.04260669  0.07324909  1
  Te  Te73  1  0.08571335  0.08745907  0.39354888  1
  Te  Te74  1  0.07069296  0.07181116  0.74385085  1
  Te  Te75  1  0.07237059  0.42473291  0.06758186  1
  Te  Te76  1  0.06764466  0.43521478  0.42180559  1
  Te  Te77  1  0.08303233  0.41316577  0.75065405  1
  Te  Te78  1  0.06455185  0.77326012  0.10186850  1
  Te  Te79  1  0.08806673  0.76731488  0.40349793  1
  Te  Te80  1  0.09046475  0.73338928  0.74383871  1
  Te  Te81  1  0.44082766  0.08250788  0.08085838  1
  Te  Te82  1  0.47600533  0.07953607  0.41843463  1
  Te  Te83  1  0.42962738  0.08309618  0.74449568  1
  Te  Te84  1  0.40805201  0.41358680  0.10650226  1
  Te  Te85  1  0.44035410  0.42100903  0.41555752  1
  Te  Te86  1  0.41490815  0.41391087  0.77489704  1
  Te  Te87  1  0.43485264  0.73642940  0.09316528  1
  Te  Te88  1  0.42065579  0.76106045  0.41618829  1
  Te  Te89  1  0.39932586  0.75474552  0.74092224  1
  Te  Te90  1  0.76957653  0.08663951  0.11452122  1
  Te  Te91  1  0.77605905  0.07635639  0.42183906  1
  Te  Te92  1  0.73493646  0.07830265  0.73500342  1
  Te  Te93  1  0.75469268  0.38572890  0.11414690  1
  Te  Te94  1  0.76130496  0.41551387  0.42646033  1
  Te  Te95  1  0.75246489  0.41711335  0.75016209  1
  Te  Te96  1  0.75531792  0.77037518  0.10308220  1
  Te  Te97  1  0.72469502  0.79299446  0.42605617  1
  Te  Te98  1  0.74046897  0.74426868  0.76088399  1
  Te  Te99  1  0.05402000  0.22044138  0.21785646  1
  Te  Te100  1  0.07956610  0.24737415  0.57713953  1
  Te  Te101  1  0.06252731  0.24907039  0.94970016  1
  Te  Te102  1  0.05262967  0.61320561  0.26150053  1
  Te  Te103  1  0.05851868  0.57774999  0.56023677  1
  Te  Te104  1  0.08728498  0.58490116  0.93258731  1
  Te  Te105  1  0.08559724  0.89231278  0.27839961  1
  Te  Te106  1  0.05321350  0.93144525  0.58827893  1
  Te  Te107  1  0.06278271  0.92949140  0.91868529  1
  Te  Te108  1  0.44264127  0.23149951  0.26064628  1
  Te  Te109  1  0.44374472  0.21208720  0.58775657  1
  Te  Te110  1  0.43276706  0.23407930  0.92971428  1
  Te  Te111  1  0.46146958  0.61036375  0.27947395  1
  Te  Te112  1  0.42561358  0.57979287  0.58712883  1
  Te  Te113  1  0.40345553  0.57877548  0.91687815  1
  Te  Te114  1  0.41160157  0.92733791  0.24917162  1
  Te  Te115  1  0.42734660  0.91916692  0.57479167  1
  Te  Te116  1  0.42151258  0.93334071  0.89845175  1
  Te  Te117  1  0.75044069  0.25909372  0.22422127  1
  Te  Te118  1  0.74688967  0.22958128  0.55365974  1
  Te  Te119  1  0.77529713  0.25895279  0.91367797  1
  Te  Te120  1  0.74847898  0.60938889  0.27161049  1
  Te  Te121  1  0.74582811  0.58769784  0.54816239  1
  Te  Te122  1  0.74024804  0.57150369  0.90269796  1
  Te  Te123  1  0.76635921  0.89304379  0.23755490  1
  Te  Te124  1  0.76202982  0.92897183  0.54634913  1
  Te  Te125  1  0.76452259  0.91709824  0.94297442  1
  Te  Te126  1  0.25196840  0.25306050  0.07652539  1
  Te  Te127  1  0.28249529  0.23586753  0.43057211  1
  Te  Te128  1  0.25901826  0.26051488  0.74770077  1
  Te  Te129  1  0.24055138  0.55793690  0.10546402  1
  Te  Te130  1  0.26017083  0.59845050  0.41131677  1
  Te  Te131  1  0.20297972  0.62257388  0.75514641  1
  Te  Te132  1  0.26104036  0.91893334  0.08534442  1
  Te  Te133  1  0.24928049  0.91511987  0.40392172  1
  Te  Te134  1  0.22434913  0.92315975  0.74590171  1
  Te  Te135  1  0.59039760  0.24657792  0.04275054  1
  Te  Te136  1  0.60073500  0.23033086  0.40079480  1
  Te  Te137  1  0.59025538  0.23889226  0.74014175  1
  Te  Te138  1  0.58760886  0.57720688  0.08113656  1
  Te  Te139  1  0.58970725  0.59777188  0.37428509  1
  Te  Te140  1  0.57322194  0.58792528  0.74609091  1
  Te  Te141  1  0.59681243  0.90571904  0.10426079  1
  Te  Te142  1  0.57390815  0.94706064  0.40758404  1
  Te  Te143  1  0.57945614  0.91583479  0.73522997  1
  Te  Te144  1  0.95010838  0.25568464  0.10490188  1
  Te  Te145  1  0.91146627  0.25826434  0.41385969  1
  Te  Te146  1  0.90343467  0.24154501  0.75582363  1
  Te  Te147  1  0.89242575  0.58204124  0.08542292  1
  Te  Te148  1  0.92518991  0.60417363  0.39829251  1
  Te  Te149  1  0.93326106  0.59047146  0.74007468  1
  Te  Te150  1  0.89883011  0.90401906  0.16467919  1
  Te  Te151  1  0.88246681  0.92494332  0.42668808  1
  Te  Te152  1  0.90770557  0.90583284  0.75398929  1
  Te  Te153  1  0.25073498  0.08635955  0.24973520  1
  Te  Te154  1  0.25797401  0.08207350  0.57079443  1
  Te  Te155  1  0.22894754  0.07594638  0.89827673  1
  Te  Te156  1  0.23887195  0.40740190  0.26263853  1
  Te  Te157  1  0.24638365  0.40606200  0.58361476  1
  Te  Te158  1  0.23252737  0.42544857  0.91911528  1
  Te  Te159  1  0.25285018  0.73068103  0.26788717  1
  Te  Te160  1  0.21260239  0.77872373  0.59955082  1
  Te  Te161  1  0.23972401  0.74364405  0.92787289  1
  Te  Te162  1  0.62167412  0.11117802  0.24984259  1
  Te  Te163  1  0.56924187  0.09238695  0.54532898  1
  Te  Te164  1  0.58463635  0.06654566  0.91695252  1
  Te  Te165  1  0.57536258  0.42275985  0.24810427  1
  Te  Te166  1  0.60771792  0.42033264  0.55965048  1
  Te  Te167  1  0.61160112  0.38033635  0.96534164  1
  Te  Te168  1  0.58527249  0.71250563  0.26000891  1
  Te  Te169  1  0.61930918  0.77373996  0.53819281  1
  Te  Te170  1  0.58622573  0.75511661  0.92916370  1
  Te  Te171  1  0.89331741  0.06702072  0.22009902  1
  Te  Te172  1  0.93825179  0.05703802  0.59694785  1
  Te  Te173  1  0.90980508  0.07843214  0.93753663  1
  Te  Te174  1  0.90505766  0.40148299  0.23518327  1
  Te  Te175  1  0.89997030  0.41687974  0.56988937  1
  Te  Te176  1  0.90083448  0.40055639  0.91015292  1
  Te  Te177  1  0.89924446  0.80495947  0.28156500  1
  Te  Te178  1  0.91318737  0.74134625  0.58804999  1
  Te  Te179  1  0.90341327  0.76914589  0.93835579  1
