# generated using pymatgen
data_In2Te3
_symmetry_space_group_name_H-M   'P 1'
_cell_length_a   18.76891732
_cell_length_b   18.77856990
_cell_length_c   18.77458953
_cell_angle_alpha   89.99616983
_cell_angle_beta   90.00981459
_cell_angle_gamma   90.00944009
_symmetry_Int_Tables_number   1
_chemical_formula_structural   In2Te3
_chemical_formula_sum   'In72 Te108'
_cell_volume   6617.16819898
_cell_formula_units_Z   36
loop_
 _symmetry_equiv_pos_site_id
 _symmetry_equiv_pos_as_xyz
  1  'x, y, z'
loop_
 _atom_site_type_symbol
 _atom_site_label
 _atom_site_symmetry_multiplicity
 _atom_site_fract_x
 _atom_site_fract_y
 _atom_site_fract_z
 _atom_site_occupancy
  In  In0  1  0.85655462  0.83870439  0.30622639  1
  In  In1  1  0.14422060  0.33882212  0.85010949  1
  In  In2  1  0.32513779  0.65643526  0.00900634  1
  In  In3  1  0.48379658  -0.02027673  0.81387070  1
  In  In4  1  0.68792171  0.82648742  0.16664334  1
  In  In5  1  0.31157306  0.82844694  0.47856938  1
  In  In6  1  0.51316839  0.35209572  0.49941666  1
  In  In7  1  0.84357607  -0.01347890  0.84037789  1
  In  In8  1  0.33410908  0.67394008  0.66270744  1
  In  In9  1  0.70625700  0.13135782  0.46777852  1
  In  In10  1  0.00558393  0.33855637  0.00807121  1
  In  In11  1  0.49405982  0.31799810  0.16941963  1
  In  In12  1  0.67944503  0.66658105  0.31037631  1
  In  In13  1  0.31351854  0.84442000  0.15684887  1
  In  In14  1  0.67806377  0.00353206  -0.00210663  1
  In  In15  1  0.47734794  0.50534519  0.34188699  1
  In  In16  1  0.32230877  0.84017225  0.84783943  1
  In  In17  1  0.68108290  0.48272726  0.49970032  1
  In  In18  1  0.49571399  0.84050740  0.67214477  1
  In  In19  1  0.49773470  0.15065097  0.02287569  1
  In  In20  1  0.82498198  0.50800087  0.66645844  1
  In  In21  1  0.00845410  0.49941505  0.83988977  1
  In  In22  1  0.30800369  0.31474070  0.01783545  1
  In  In23  1  0.48960894  0.16673444  0.32197998  1
  In  In24  1  -0.00221954  0.82855779  0.48097598  1
  In  In25  1  0.30749505  0.33526416  0.65010994  1
  In  In26  1  -0.00258043  0.16380220  0.85859210  1
  In  In27  1  0.00043218  0.67835659  0.02501867  1
  In  In28  1  0.66973666  0.67497472  0.69859789  1
  In  In29  1  0.68357706  0.14684364  0.15678199  1
  In  In30  1  0.67608822  0.52339855  0.84065668  1
  In  In31  1  -0.01185972  0.13193650  0.17917762  1
  In  In32  1  0.49265565  0.35625099  0.85035512  1
  In  In33  1  0.52001682  0.00008552  0.47286768  1
  In  In34  1  0.35386193  0.16822603  0.49149452  1
  In  In35  1  0.67995053  0.17438281  0.84402203  1
  In  In36  1  0.35506413  0.33074602  0.31729627  1
  In  In37  1  0.14684015  -0.01545764  0.17129027  1
  In  In38  1  0.32581500  0.49993354  0.84149389  1
  In  In39  1  0.48726389  0.67286353  0.50393607  1
  In  In40  1  -0.00442590  0.14547404  0.49334398  1
  In  In41  1  0.32070152  0.51197266  0.16928729  1
  In  In42  1  0.33312500  0.68352575  0.31560589  1
  In  In43  1  0.47793345  0.00500741  0.16124653  1
  In  In44  1  0.52584948  0.51152869  0.01132240  1
  In  In45  1  0.15591867  0.15416844  0.31356507  1
  In  In46  1  0.48633768  0.12817309  0.69120069  1
  In  In47  1  0.15635246  0.68164912  0.84021900  1
  In  In48  1  0.32330215  -0.01112087  0.67690667  1
  In  In49  1  0.00775139  0.51749032  0.15486079  1
  In  In50  1  0.01347775  0.68384857  0.66425925  1
  In  In51  1  0.67820261  0.33712906  0.34147632  1
  In  In52  1  -0.00596187  -0.00385604  0.65512523  1
  In  In53  1  0.84719648  0.31738625  0.84767191  1
  In  In54  1  0.16933092  -0.00961860  0.88111181  1
  In  In55  1  -0.01443748  0.34035673  0.68532741  1
  In  In56  1  0.82836377  0.33444522  0.16554857  1
  In  In57  1  0.16089102  0.17924498  0.68283770  1
  In  In58  1  0.51326814  0.80961035  -0.01781235  1
  In  In59  1  0.65961086  0.32434842  0.65195370  1
  In  In60  1  0.83607694  0.33491593  0.48491774  1
  In  In61  1  0.68230203  0.51979722  0.16443616  1
  In  In62  1  0.86002746  0.83427063  0.03042293  1
  In  In63  1  0.17189860  -0.00255394  0.47904963  1
  In  In64  1  0.16547046  0.35083438  0.48717137  1
  In  In65  1  0.14977861  0.66669507  0.49292943  1
  In  In66  1  0.02286699  0.32281709  0.32625001  1
  In  In67  1  0.16398806  0.52459633  0.32442107  1
  In  In68  1  0.65220946  -0.01982252  0.67330051  1
  In  In69  1  0.82029611  0.68795211  0.84915188  1
  In  In70  1  0.87439016  0.65480397  0.46702666  1
  In  In71  1  0.68191410  0.86286625  0.49000716  1
  Te  Te72  1  0.07955999  0.07749454  0.07268918  1
  Te  Te73  1  0.06303843  0.05763906  0.38895047  1
  Te  Te74  1  0.08457252  0.07585134  0.76434835  1
  Te  Te75  1  0.09886469  0.42381087  0.08495086  1
  Te  Te76  1  0.06408482  0.44154806  0.41692400  1
  Te  Te77  1  0.09768437  0.42991843  0.73664071  1
  Te  Te78  1  0.05891768  0.77840553  0.12306889  1
  Te  Te79  1  0.08673902  0.75299257  0.39010705  1
  Te  Te80  1  0.07291653  0.77748765  0.76280278  1
  Te  Te81  1  0.38083495  0.06545252  0.06198232  1
  Te  Te82  1  0.40161858  0.06217506  0.39520473  1
  Te  Te83  1  0.36788784  0.08807185  0.78944297  1
  Te  Te84  1  0.41718111  0.42018741  0.08298068  1
  Te  Te85  1  0.39289120  0.42005226  0.43682623  1
  Te  Te86  1  0.40668339  0.41779402  0.74196275  1
  Te  Te87  1  0.41787843  0.75040125  0.08512102  1
  Te  Te88  1  0.42988639  0.76965329  0.40211707  1
  Te  Te89  1  0.41594471  0.75009781  0.76665896  1
  Te  Te90  1  0.78521798  0.07449421  0.07391840  1
  Te  Te91  1  0.78899702  0.04243164  0.38411101  1
  Te  Te92  1  0.74701087  0.07352710  0.75335823  1
  Te  Te93  1  0.73700475  0.41241485  0.07974715  1
  Te  Te94  1  0.77819221  0.44154361  0.38959514  1
  Te  Te95  1  0.75306655  0.40062612  0.74875110  1
  Te  Te96  1  0.76193196  0.73134730  0.07909815  1
  Te  Te97  1  0.76418806  0.75276406  0.40723785  1
  Te  Te98  1  0.77579370  0.76974877  0.73341369  1
  Te  Te99  1  0.09243489  0.24878209  0.21215558  1
  Te  Te100  1  0.07616176  0.25563909  0.57924170  1
  Te  Te101  1  0.10200977  0.23073568  0.94790044  1
  Te  Te102  1  0.05242264  0.61318193  0.26815649  1
  Te  Te103  1  0.07104342  0.57737725  0.58112454  1
  Te  Te104  1  0.08877723  0.58394316  0.93619561  1
  Te  Te105  1  0.03036938  0.89643572  0.22927818  1
  Te  Te106  1  0.09080936  0.90997684  0.57414998  1
  Te  Te107  1  0.06864282  0.92617024  0.96839009  1
  Te  Te108  1  0.38291705  0.21521909  0.21448233  1
  Te  Te109  1  0.43092174  0.25079685  0.59407884  1
  Te  Te110  1  0.41920771  0.25228762  0.93336330  1
  Te  Te111  1  0.43148982  0.59744136  0.23141903  1
  Te  Te112  1  0.41130252  0.57626328  0.58365484  1
  Te  Te113  1  0.42659700  0.58537512  0.91858237  1
  Te  Te114  1  0.40812440  0.91132253  0.25076670  1
  Te  Te115  1  0.41676746  0.92725078  0.57128685  1
  Te  Te116  1  0.41508761  0.91911348  0.93829120  1
  Te  Te117  1  0.75624689  0.23633757  0.26062425  1
  Te  Te118  1  0.75556551  0.23856327  0.57213210  1
  Te  Te119  1  0.76509623  0.24094474  0.94335031  1
  Te  Te120  1  0.78790127  0.59716560  0.23626222  1
  Te  Te121  1  0.74884948  0.59967090  0.57204716  1
  Te  Te122  1  0.74929609  0.59888585  0.94441067  1
  Te  Te123  1  0.78132647  0.93492914  0.21587049  1
  Te  Te124  1  0.76489120  0.93376266  0.58938408  1
  Te  Te125  1  0.75728227  0.89418743  0.92898052  1
  Te  Te126  1  0.25505464  0.23111962  0.12538775  1
  Te  Te127  1  0.24719288  0.24430088  0.40980655  1
  Te  Te128  1  0.25292193  0.26068823  0.77285310  1
  Te  Te129  1  0.22334042  0.60223881  0.10370517  1
  Te  Te130  1  0.26390443  0.59251000  0.41728127  1
  Te  Te131  1  0.24042610  0.59004774  0.75205378  1
  Te  Te132  1  0.21845530  0.91087254  0.05869990  1
  Te  Te133  1  0.22999502  0.90322349  0.38103015  1
  Te  Te134  1  0.22302946  0.90930377  0.75515072  1
  Te  Te135  1  0.59865832  0.25095626  0.08073918  1
  Te  Te136  1  0.58398426  0.24078951  0.42067537  1
  Te  Te137  1  0.57416816  0.25090599  0.75719935  1
  Te  Te138  1  0.59588290  0.61515372  0.08935461  1
  Te  Te139  1  0.58762208  0.58074438  0.41691266  1
  Te  Te140  1  0.56991808  0.58681050  0.75974133  1
  Te  Te141  1  0.58248475  0.91733120  0.08068107  1
  Te  Te142  1  0.60022486  0.91811377  0.38018086  1
  Te  Te143  1  0.60250661  0.87968005  0.78567310  1
  Te  Te144  1  0.92077251  0.24138483  0.08862354  1
  Te  Te145  1  0.91748187  0.23859839  0.39870968  1
  Te  Te146  1  0.91019093  0.22343463  0.74431792  1
  Te  Te147  1  0.89573052  0.58938120  0.08572140  1
  Te  Te148  1  0.95229185  0.56531592  0.38149168  1
  Te  Te149  1  0.91409397  0.58992955  0.75979129  1
  Te  Te150  1  0.96507800  0.92873741  0.08789247  1
  Te  Te151  1  0.89925306  0.92661161  0.42301354  1
  Te  Te152  1  0.93528285  0.90423750  0.75635203  1
  Te  Te153  1  0.24865418  0.05737959  0.25232028  1
  Te  Te154  1  0.24770025  0.09455477  0.58526631  1
  Te  Te155  1  0.27742253  0.08066521  0.92013119  1
  Te  Te156  1  0.24176691  0.41151044  0.25374500  1
  Te  Te157  1  0.23479752  0.44225399  0.57966308  1
  Te  Te158  1  0.23542471  0.42561152  0.93931206  1
  Te  Te159  1  0.22897482  0.74378945  0.22980812  1
  Te  Te160  1  0.23413434  0.76153104  0.58948173  1
  Te  Te161  1  0.23224590  0.76257038  0.94486853  1
  Te  Te162  1  0.58827228  0.07456079  0.25173179  1
  Te  Te163  1  0.58734166  0.08895051  0.57823951  1
  Te  Te164  1  0.57313129  0.07577919  0.90390276  1
  Te  Te165  1  0.57471586  0.41475164  0.25956096  1
  Te  Te166  1  0.57653111  0.44371682  0.60444426  1
  Te  Te167  1  0.60998610  0.41275782  0.92712524  1
  Te  Te168  1  0.58425570  0.76192509  0.25115955  1
  Te  Te169  1  0.58940503  0.76187337  0.57848842  1
  Te  Te170  1  0.59507953  0.75240724  0.87404569  1
  Te  Te171  1  0.88281551  0.06095819  0.25850913  1
  Te  Te172  1  0.89653652  0.07969034  0.58099731  1
  Te  Te173  1  0.90042063  0.08456595  0.93845746  1
  Te  Te174  1  0.93190743  0.41360790  0.24333938  1
  Te  Te175  1  0.91855901  0.42581351  0.57735880  1
  Te  Te176  1  0.90765192  0.43009099  0.93061653  1
  Te  Te177  1  0.94466617  0.74683348  0.22664579  1
  Te  Te178  1  0.90662362  0.75290803  0.57989781  1
  Te  Te179  1  0.93586968  0.76348047  0.91551873  1
