# generated using pymatgen
data_In2Te3
_symmetry_space_group_name_H-M   'P 1'
_cell_length_a   18.86833018
_cell_length_b   18.85196838
_cell_length_c   18.85863883
_cell_angle_alpha   90.00299027
_cell_angle_beta   89.98959768
_cell_angle_gamma   89.96466460
_symmetry_Int_Tables_number   1
_chemical_formula_structural   In2Te3
_chemical_formula_sum   'In72 Te108'
_cell_volume   6708.11382285
_cell_formula_units_Z   36
loop_
 _symmetry_equiv_pos_site_id
 _symmetry_equiv_pos_as_xyz
  1  'x, y, z'
loop_
 _atom_site_type_symbol
 _atom_site_label
 _atom_site_symmetry_multiplicity
 _atom_site_fract_x
 _atom_site_fract_y
 _atom_site_fract_z
 _atom_site_occupancy
  In  In0  1  0.14772869  0.35067194  0.17604958  1
  In  In1  1  0.49566886  0.15656748  0.65938171  1
  In  In2  1  -0.01401355  0.67685119  0.34044447  1
  In  In3  1  0.01869865  0.29776355  -0.01089790  1
  In  In4  1  0.70406492  0.66273564  -0.00269783  1
  In  In5  1  0.70092816  0.52361042  0.17547715  1
  In  In6  1  0.31874957  0.69020365  -0.01387463  1
  In  In7  1  0.00859605  0.82255595  0.53058799  1
  In  In8  1  0.66932694  0.81418191  0.84175896  1
  In  In9  1  0.32770408  0.70501640  0.66178325  1
  In  In10  1  0.65658945  0.67425745  0.65628004  1
  In  In11  1  0.34301979  0.85034677  0.15630030  1
  In  In12  1  0.50644338  0.85470051  0.36660613  1
  In  In13  1  0.84173918  0.68860488  0.16723586  1
  In  In14  1  0.86093765  -0.02695200  0.79506036  1
  In  In15  1  0.49166515  0.00438820  0.83201430  1
  In  In16  1  0.50521146  0.65557363  0.81900666  1
  In  In17  1  0.83509923  0.51422239  0.67584373  1
  In  In18  1  0.34579984  0.49383062  0.50460363  1
  In  In19  1  0.62672256  0.30052462  0.37139621  1
  In  In20  1  0.80781661  0.13209777  0.40614658  1
  In  In21  1  0.14198677  0.85038346  -0.03482352  1
  In  In22  1  0.33326962  0.50287144  0.80208226  1
  In  In23  1  0.65947245  0.31819215  0.63619310  1
  In  In24  1  0.84796215  0.32187065  0.80809230  1
  In  In25  1  0.83176596  0.68202508  0.81256162  1
  In  In26  1  0.18264671  0.67082333  0.51345158  1
  In  In27  1  0.52142788  0.69228572  0.19970633  1
  In  In28  1  -0.01171787  0.48864804  0.82948282  1
  In  In29  1  0.33248955  0.30688255  0.65098799  1
  In  In30  1  0.35697679  0.68780734  0.32226812  1
  In  In31  1  0.47959547  0.30875381  0.82627469  1
  In  In32  1  0.51379111  0.67268487  0.50960412  1
  In  In33  1  0.01294402  0.33148461  0.33946889  1
  In  In34  1  0.81139989  0.83226630  0.36210915  1
  In  In35  1  0.17873693  0.86675840  0.33355364  1
  In  In36  1  0.17662054  0.01362115  0.16387080  1
  In  In37  1  0.65782831  0.16135298  0.18641534  1
  In  In38  1  0.79006678  0.32254907  0.16291540  1
  In  In39  1  0.84098217  0.54705853  -0.04988913  1
  In  In40  1  0.16578543  0.50050778  0.66471565  1
  In  In41  1  0.00430960  0.31053705  0.66183334  1
  In  In42  1  0.83827017  -0.01306592  0.18339589  1
  In  In43  1  0.31379394  -0.02281355  0.68842019  1
  In  In44  1  0.17261431  -0.00790847  0.50540943  1
  In  In45  1  0.19647907  0.12720145  -0.02971842  1
  In  In46  1  0.18679916  0.52003550  -0.02043717  1
  In  In47  1  0.49154334  0.86703122  -0.00589785  1
  In  In48  1  0.33003138  0.32524038  -0.00536081  1
  In  In49  1  0.00885779  0.50672797  0.18158472  1
  In  In50  1  0.65357760  0.32359058  0.00482507  1
  In  In51  1  0.16142923  0.48918550  0.33773976  1
  In  In52  1  0.30411510  0.29429844  0.36958371  1
  In  In53  1  0.01117442  0.15026536  0.17703499  1
  In  In54  1  0.69581006  -0.01249603  0.65383873  1
  In  In55  1  0.66287029  0.49843576  0.50637532  1
  In  In56  1  0.49635929  0.49287535  0.33388300  1
  In  In57  1  0.83971707  0.16095376  -0.01297579  1
  In  In58  1  0.64347911  -0.00427937  0.00172629  1
  In  In59  1  0.50105769  0.82727700  0.64883275  1
  In  In60  1  0.00701970  0.01086329  0.34693519  1
  In  In61  1  0.85443772  0.50479373  0.35496050  1
  In  In62  1  0.52119423  0.30944553  0.19151582  1
  In  In63  1  0.83424842  0.83399407  0.02135768  1
  In  In64  1  0.50881155  0.48947869  0.00453539  1
  In  In65  1  0.30575787  0.50519617  0.12712442  1
  In  In66  1  0.18159736  0.15476996  0.66909218  1
  In  In67  1  0.00661757  0.68475734  -0.01980517  1
  In  In68  1  0.00178051  0.14794712  0.83002563  1
  In  In69  1  0.49075742  0.02727910  0.18516407  1
  In  In70  1  0.32306036  0.15855949  0.16753366  1
  In  In71  1  0.82337417  0.31757656  0.51714838  1
  Te  Te72  1  0.08189308  0.08087896  0.06141942  1
  Te  Te73  1  0.09575764  0.09843612  0.42792031  1
  Te  Te74  1  0.08552207  0.06100388  0.73949750  1
  Te  Te75  1  0.08423821  0.43376717  0.06415659  1
  Te  Te76  1  0.07103744  0.42730677  0.43424483  1
  Te  Te77  1  0.08617242  0.40225734  0.75281035  1
  Te  Te78  1  0.07240411  0.77523503  0.07412607  1
  Te  Te79  1  0.09893177  0.76079380  0.41208628  1
  Te  Te80  1  0.07808678  0.81421599  0.78152626  1
  Te  Te81  1  0.40660852  0.07894707  0.07637024  1
  Te  Te82  1  0.46092179  0.12408457  0.38370140  1
  Te  Te83  1  0.39482388  0.09316644  0.75448485  1
  Te  Te84  1  0.42719627  0.39854295  0.09656022  1
  Te  Te85  1  0.41837874  0.39332667  0.41588569  1
  Te  Te86  1  0.42282606  0.40913258  0.72575174  1
  Te  Te87  1  0.42441468  0.74141772  0.08495786  1
  Te  Te88  1  0.40784859  0.76062481  0.44331141  1
  Te  Te89  1  0.42014025  0.76826963  0.76583318  1
  Te  Te90  1  0.75111202  0.08581515  0.08756120  1
  Te  Te91  1  0.71647620  0.00875031  0.42302689  1
  Te  Te92  1  0.75839855  0.07139338  0.75794741  1
  Te  Te93  1  0.74770062  0.43384402  0.06070397  1
  Te  Te94  1  0.74770991  0.40847106  0.41376217  1
  Te  Te95  1  0.74612023  0.40630196  0.73469085  1
  Te  Te96  1  0.72664489  0.76765651  0.10651791  1
  Te  Te97  1  0.75687498  0.75625501  0.47514607  1
  Te  Te98  1  0.75305811  0.77603640  0.72023077  1
  Te  Te99  1  0.10332328  0.23441716  0.26380080  1
  Te  Te100  1  0.09645608  0.23503743  0.57066659  1
  Te  Te101  1  0.11267020  0.23393098  0.89102152  1
  Te  Te102  1  0.09573444  0.60202461  0.25709072  1
  Te  Te103  1  0.08187504  0.59307856  0.58567377  1
  Te  Te104  1  0.08537549  0.59105705  0.89101863  1
  Te  Te105  1  0.07547255  0.92733764  0.23939679  1
  Te  Te106  1  0.05760337  0.95038480  0.59296990  1
  Te  Te107  1  0.09307805  0.94494939  0.85672085  1
  Te  Te108  1  0.41433917  0.23748351  0.27139049  1
  Te  Te109  1  0.42206934  0.23505171  0.55506284  1
  Te  Te110  1  0.41027017  0.22450554  0.92484551  1
  Te  Te111  1  0.41541574  0.57537272  0.23334699  1
  Te  Te112  1  0.41310104  0.59538679  0.59511616  1
  Te  Te113  1  0.40944139  0.57275653  0.92203734  1
  Te  Te114  1  0.41244101  0.92524748  0.26755087  1
  Te  Te115  1  0.41426036  0.92949920  0.58778479  1
  Te  Te116  1  0.38455871  0.92712715  0.90918196  1
  Te  Te117  1  0.74319567  0.24075987  0.28419519  1
  Te  Te118  1  0.74053068  0.20602684  0.57504851  1
  Te  Te119  1  0.75048735  0.25299570  0.90810734  1
  Te  Te120  1  0.77048660  0.60905427  0.27880193  1
  Te  Te121  1  0.76106770  0.59487172  0.57002500  1
  Te  Te122  1  0.72075411  0.58591632  0.86714741  1
  Te  Te123  1  0.73593593  0.92746928  0.27213163  1
  Te  Te124  1  0.80197919  0.96389664  0.54883722  1
  Te  Te125  1  0.74762253  0.91861621  0.92011513  1
  Te  Te126  1  0.22726722  0.25284031  0.08240250  1
  Te  Te127  1  0.20210237  0.22928794  0.45168443  1
  Te  Te128  1  0.25362937  0.24725868  0.75973621  1
  Te  Te129  1  0.22090150  0.62459725  0.08496665  1
  Te  Te130  1  0.26787332  0.58544173  0.40824349  1
  Te  Te131  1  0.24109639  0.60850304  0.74438318  1
  Te  Te132  1  0.24352065  0.91776950  0.06669172  1
  Te  Te133  1  0.27673905  0.94728495  0.40792143  1
  Te  Te134  1  0.21519202  0.87416592  0.74166535  1
  Te  Te135  1  0.56763419  0.22094701  0.07742864  1
  Te  Te136  1  0.56574790  0.19881185  0.46108366  1
  Te  Te137  1  0.59023918  0.23727795  0.74680559  1
  Te  Te138  1  0.59015218  0.58721352  0.09033814  1
  Te  Te139  1  0.58931519  0.58861078  0.40599211  1
  Te  Te140  1  0.57369979  0.57075995  0.72102396  1
  Te  Te141  1  0.57432844  0.91680929  0.11090880  1
  Te  Te142  1  0.57717880  0.94724972  0.46131514  1
  Te  Te143  1  0.58602697  0.90801913  0.75489751  1
  Te  Te144  1  0.91858240  0.24858165  0.09589083  1
  Te  Te145  1  0.92050668  0.24458110  0.42002357  1
  Te  Te146  1  0.90900380  0.20984358  0.72556544  1
  Te  Te147  1  0.91696615  0.58587737  0.08399102  1
  Te  Te148  1  0.93628532  0.58686418  0.44519135  1
  Te  Te149  1  0.94154949  0.60332218  0.74052275  1
  Te  Te150  1  0.92953324  0.92550985  0.08615499  1
  Te  Te151  1  0.92959367  0.91043367  0.42805185  1
  Te  Te152  1  0.93818245  0.87978744  0.70191474  1
  Te  Te153  1  0.25650264  0.07600556  0.27132662  1
  Te  Te154  1  0.27752418  0.07889644  0.57825458  1
  Te  Te155  1  0.27395976  0.03739041  0.88470405  1
  Te  Te156  1  0.26408310  0.40895970  0.25613925  1
  Te  Te157  1  0.24287511  0.40697194  0.57303390  1
  Te  Te158  1  0.25236246  0.41182945  0.89551169  1
  Te  Te159  1  0.25238984  0.76383991  0.24339427  1
  Te  Te160  1  0.23373701  0.79108468  0.58501556  1
  Te  Te161  1  0.23324200  0.75842787  0.88811671  1
  Te  Te162  1  0.58144321  0.08499434  0.29190333  1
  Te  Te163  1  0.56679382  0.03974524  0.59275082  1
  Te  Te164  1  0.58381713  0.09095215  0.90849843  1
  Te  Te165  1  0.60875636  0.42031639  0.24999187  1
  Te  Te166  1  0.56531276  0.40694972  0.56621022  1
  Te  Te167  1  0.57934483  0.40700018  0.90043509  1
  Te  Te168  1  0.60164297  0.76339697  0.29827379  1
  Te  Te169  1  0.62128305  0.78425516  0.54807045  1
  Te  Te170  1  0.57247395  0.74311241  0.93490805  1
  Te  Te171  1  0.89981182  0.09879788  0.26876859  1
  Te  Te172  1  0.87037400  0.10336101  0.54050796  1
  Te  Te173  1  0.91871463  0.05393974  0.91663825  1
  Te  Te174  1  0.90868098  0.41018536  0.24159586  1
  Te  Te175  1  0.91598858  0.41420961  0.59069982  1
  Te  Te176  1  0.91278056  0.40051682  0.92821750  1
  Te  Te177  1  0.91808422  0.78287086  0.25598609  1
  Te  Te178  1  0.90206032  0.76132854  0.61315193  1
  Te  Te179  1  0.91213055  0.77449248  0.90322094  1
