# generated using pymatgen
data_In2Te3
_symmetry_space_group_name_H-M   'P 1'
_cell_length_a   19.03806072
_cell_length_b   19.02120466
_cell_length_c   19.02390246
_cell_angle_alpha   90.04149314
_cell_angle_beta   89.93476013
_cell_angle_gamma   89.85830632
_symmetry_Int_Tables_number   1
_chemical_formula_structural   In2Te3
_chemical_formula_sum   'In72 Te108'
_cell_volume   6889.03850669
_cell_formula_units_Z   36
loop_
 _symmetry_equiv_pos_site_id
 _symmetry_equiv_pos_as_xyz
  1  'x, y, z'
loop_
 _atom_site_type_symbol
 _atom_site_label
 _atom_site_symmetry_multiplicity
 _atom_site_fract_x
 _atom_site_fract_y
 _atom_site_fract_z
 _atom_site_occupancy
  In  In0  1  0.65506953  0.16654185  0.14646371  1
  In  In1  1  0.49668998  0.32130519  0.16470543  1
  In  In2  1  0.68196669  0.47235752  0.50584848  1
  In  In3  1  0.84114238  0.49298654  0.67951988  1
  In  In4  1  0.47796137  0.82642784  0.00395291  1
  In  In5  1  0.65073054  0.50267551  0.82985340  1
  In  In6  1  0.85558379  -0.00155838  0.82590757  1
  In  In7  1  0.49611197  0.54234902  0.33006214  1
  In  In8  1  0.01812328  0.49675316  0.13620223  1
  In  In9  1  0.84696739  0.32689885  0.13885026  1
  In  In10  1  -0.01939806  0.83286263  0.49782977  1
  In  In11  1  0.33897412  0.12546102  0.81277883  1
  In  In12  1  0.53049642  0.17366921  0.67767257  1
  In  In13  1  0.85572081  0.50976174  0.32558102  1
  In  In14  1  0.81524813  0.70006519  0.82787068  1
  In  In15  1  0.32815564  0.33505904  -0.00485185  1
  In  In16  1  0.67829740  0.32275986  0.68389039  1
  In  In17  1  0.15554855  0.32213257  0.16138318  1
  In  In18  1  0.85426737  0.82714391  -0.00951754  1
  In  In19  1  0.03991501  0.55437545  0.85398604  1
  In  In20  1  0.30866200  0.69606176  -0.01996971  1
  In  In21  1  0.65339349  0.81224265  0.16347879  1
  In  In22  1  0.65928435  0.85665900  0.52211265  1
  In  In23  1  -0.02399304  0.31382484  -0.01177682  1
  In  In24  1  0.10002398  0.29445708  0.47037903  1
  In  In25  1  0.64785589  0.65477358  -0.00216674  1
  In  In26  1  0.49993281  0.35254038  0.49256901  1
  In  In27  1  0.31318312  -0.04259341  -0.00721683  1
  In  In28  1  0.42649716  -0.03589465  0.19950345  1
  In  In29  1  0.01898006  0.00688574  0.33327248  1
  In  In30  1  0.47896004  0.70172091  0.51772801  1
  In  In31  1  0.00013400  0.66106815  0.31939767  1
  In  In32  1  0.01217836  0.67040424  0.65157871  1
  In  In33  1  0.47582154  0.14165016  -0.00300236  1
  In  In34  1  0.19091394  0.33145160  0.81117877  1
  In  In35  1  0.84717131  0.00036359  0.50575786  1
  In  In36  1  0.50505498  0.34908665  0.83905098  1
  In  In37  1  0.65239728  -0.01383242  0.01250893  1
  In  In38  1  0.65903744  -0.01021837  0.34628019  1
  In  In39  1  0.02206924  -0.02914478  -0.01633821  1
  In  In40  1  0.82902131  0.44792083  -0.00714947  1
  In  In41  1  0.48338105  -0.01266504  0.53429355  1
  In  In42  1  0.00005791  -0.00897667  0.67264856  1
  In  In43  1  0.17117740  0.84879116  0.66953217  1
  In  In44  1  0.69490709  0.36822698  0.30163333  1
  In  In45  1  0.65080585  0.87016072  0.80179977  1
  In  In46  1  0.84493834  0.64431878  0.17191339  1
  In  In47  1  0.69049097  0.55532354  0.16099890  1
  In  In48  1  0.00679742  0.14607772  0.81421440  1
  In  In49  1  0.35817782  0.32242025  0.66183942  1
  In  In50  1  0.17645810  0.16605408  0.00638073  1
  In  In51  1  0.52069573  0.15873339  0.35760073  1
  In  In52  1  -0.00083158  0.33268350  0.66737007  1
  In  In53  1  0.16681363  0.16738156  0.32682333  1
  In  In54  1  0.49724572  0.67502916  0.83739408  1
  In  In55  1  0.17830310  -0.01872023  0.17569024  1
  In  In56  1  0.30238291  0.65899459  0.34549042  1
  In  In57  1  0.28523840  0.50116348  0.14801448  1
  In  In58  1  0.33459586  0.53173656  0.84081034  1
  In  In59  1  0.17105299  0.66225574  0.51981258  1
  In  In60  1  0.33576978  0.52928210  0.50110956  1
  In  In61  1  0.86241602  0.18285956  0.33904806  1
  In  In62  1  0.82035391  0.66758842  0.49625723  1
  In  In63  1  0.32199722  0.32677325  0.31233019  1
  In  In64  1  0.84065544  0.15336469  0.67489183  1
  In  In65  1  0.81901368  -0.00126812  0.14661070  1
  In  In66  1  0.62893676  0.69834029  0.36461783  1
  In  In67  1  0.31397851  0.13616886  0.51568814  1
  In  In68  1  0.33116941  0.71058981  0.68369902  1
  In  In69  1  0.18578826  0.83332184  0.33450257  1
  In  In70  1  0.19762846  0.50835646  0.66940752  1
  In  In71  1  0.66669699  0.17463022  0.51147073  1
  Te  Te72  1  0.09397127  0.06384067  0.08111166  1
  Te  Te73  1  0.10501146  0.07933198  0.42750558  1
  Te  Te74  1  0.10294734  0.05711912  0.75198425  1
  Te  Te75  1  0.09271988  0.40002254  0.04952525  1
  Te  Te76  1  0.03051976  0.38584130  0.38216177  1
  Te  Te77  1  0.09467602  0.43242144  0.75115070  1
  Te  Te78  1  0.14019862  0.80286522  0.01456904  1
  Te  Te79  1  0.08384737  0.74759252  0.42590242  1
  Te  Te80  1  0.10574394  0.73859783  0.74172781  1
  Te  Te81  1  0.38688683  0.06089850  0.08505530  1
  Te  Te82  1  0.41774416  0.07176828  0.42494115  1
  Te  Te83  1  0.44877411  0.06250432  0.73261872  1
  Te  Te84  1  0.40550819  0.41893904  0.09362459  1
  Te  Te85  1  0.40393930  0.42669988  0.40228136  1
  Te  Te86  1  0.41026435  0.43034552  0.75394766  1
  Te  Te87  1  0.38210150  0.75919698  0.09359191  1
  Te  Te88  1  0.40353554  0.75201560  0.40229989  1
  Te  Te89  1  0.42411743  0.78225172  0.76973207  1
  Te  Te90  1  0.75043815  0.09689357  0.05314689  1
  Te  Te91  1  0.75250415  0.09067687  0.41288270  1
  Te  Te92  1  0.75289977  0.08374357  0.76734622  1
  Te  Te93  1  0.72745287  0.42250661  0.10607280  1
  Te  Te94  1  0.78411817  0.40560231  0.41501293  1
  Te  Te95  1  0.75880200  0.41008527  0.77568969  1
  Te  Te96  1  0.75982071  0.74456445  0.07761434  1
  Te  Te97  1  0.74385776  0.77464445  0.42176791  1
  Te  Te98  1  0.72562039  0.76359829  0.73174461  1
  Te  Te99  1  0.06820252  0.22855531  0.23388883  1
  Te  Te100  1  0.09737768  0.24280788  0.60637161  1
  Te  Te101  1  0.10330232  0.24101848  0.89570174  1
  Te  Te102  1  0.08789962  0.59920509  0.21700919  1
  Te  Te103  1  0.08254536  0.55557532  0.58164168  1
  Te  Te104  1  0.09818104  0.63424427  0.96073133  1
  Te  Te105  1  0.07648797  0.89547527  0.24766313  1
  Te  Te106  1  0.08425651  0.91755230  0.56485360  1
  Te  Te107  1  0.11838667  0.89462884  0.89757411  1
  Te  Te108  1  0.42388347  0.22917377  0.25945140  1
  Te  Te109  1  0.43833634  0.23281485  0.56467855  1
  Te  Te110  1  0.39972723  0.24302070  0.89734100  1
  Te  Te111  1  0.38138477  0.57818126  0.24163281  1
  Te  Te112  1  0.41066576  0.60061742  0.60815742  1
  Te  Te113  1  0.42306920  0.59582666  0.94212747  1
  Te  Te114  1  0.35608220  0.88245734  0.30210633  1
  Te  Te115  1  0.36706408  0.90638928  0.58168145  1
  Te  Te116  1  0.43409569  0.93138770  0.91009586  1
  Te  Te117  1  0.75040928  0.23788679  0.24177386  1
  Te  Te118  1  0.76888066  0.25581017  0.58312464  1
  Te  Te119  1  0.82393321  0.29871970  0.97935747  1
  Te  Te120  1  0.73361537  0.59797662  0.29828919  1
  Te  Te121  1  0.74688048  0.57712809  0.59266121  1
  Te  Te122  1  0.75374855  0.58961920  0.91303222  1
  Te  Te123  1  0.73799405  0.91258371  0.24154385  1
  Te  Te124  1  0.76504197  0.92451729  0.59759256  1
  Te  Te125  1  0.75417215  0.91671467  0.92099818  1
  Te  Te126  1  0.26885194  0.24164690  0.09874726  1
  Te  Te127  1  0.25895903  0.24935782  0.42631896  1
  Te  Te128  1  0.26199946  0.22666957  0.72727514  1
  Te  Te129  1  0.21998973  0.59193296  0.04801242  1
  Te  Te130  1  0.21264902  0.55894349  0.41743391  1
  Te  Te131  1  0.23706368  0.61955673  0.76434092  1
  Te  Te132  1  0.25414215  0.87192078  0.10390917  1
  Te  Te133  1  0.24784173  0.96144168  0.38079439  1
  Te  Te134  1  0.29121129  0.92461686  0.71895472  1
  Te  Te135  1  0.56967420  0.24780529  0.05217567  1
  Te  Te136  1  0.60497279  0.27418826  0.41047416  1
  Te  Te137  1  0.60367577  0.24386233  0.79040005  1
  Te  Te138  1  0.56469758  0.60579244  0.10732121  1
  Te  Te139  1  0.57778642  0.57566096  0.45132845  1
  Te  Te140  1  0.57262639  0.59086737  0.74557769  1
  Te  Te141  1  0.55540800  0.91877821  0.10782905  1
  Te  Te142  1  0.55738008  0.91106961  0.42179392  1
  Te  Te143  1  0.56618686  0.94710680  0.71049267  1
  Te  Te144  1  0.95651170  0.23060429  0.11059590  1
  Te  Te145  1  0.95582740  0.25552096  0.42522214  1
  Te  Te146  1  0.91311940  0.25327635  0.76329068  1
  Te  Te147  1  0.90497769  0.56505821  0.06238236  1
  Te  Te148  1  0.93120650  0.58648583  0.43173531  1
  Te  Te149  1  0.92344889  0.59506592  0.75479532  1
  Te  Te150  1  0.92835395  0.91052536  0.09085739  1
  Te  Te151  1  0.90917022  0.91762438  0.39693921  1
  Te  Te152  1  0.93188549  0.89218533  0.75954730  1
  Te  Te153  1  0.26206739  0.06907289  0.26481564  1
  Te  Te154  1  0.26757990  0.03279689  0.60915659  1
  Te  Te155  1  0.24137597  0.06578119  0.91200983  1
  Te  Te156  1  0.21714584  0.42019794  0.25793292  1
  Te  Te157  1  0.27031202  0.41254595  0.57794692  1
  Te  Te158  1  0.24626169  0.43063606  0.91175826  1
  Te  Te159  1  0.20721376  0.71526627  0.24626051  1
  Te  Te160  1  0.26184432  0.77357753  0.56033014  1
  Te  Te161  1  0.24956127  0.80541727  0.89798428  1
  Te  Te162  1  0.58307581  0.07803157  0.24544359  1
  Te  Te163  1  0.60557343  0.06517571  0.59129263  1
  Te  Te164  1  0.55826708  0.04891558  0.91673528  1
  Te  Te165  1  0.56294174  0.42235427  0.25837258  1
  Te  Te166  1  0.58275197  0.41120013  0.60439236  1
  Te  Te167  1  0.57547375  0.43262538  0.93409075  1
  Te  Te168  1  0.55420249  0.74889578  0.25029232  1
  Te  Te169  1  0.58551242  0.75574336  0.59975747  1
  Te  Te170  1  0.59935683  0.77473189  0.91990062  1
  Te  Te171  1  0.90900883  0.07263858  0.24729853  1
  Te  Te172  1  0.93890666  0.09507824  0.57638851  1
  Te  Te173  1  0.93225169  0.07994105  0.92812226  1
  Te  Te174  1  0.93146821  0.41643256  0.23566826  1
  Te  Te175  1  0.91299608  0.41299508  0.58174642  1
  Te  Te176  1  0.95481697  0.44071662  0.90302289  1
  Te  Te177  1  0.90523707  0.74819597  0.25137679  1
  Te  Te178  1  0.89852843  0.75318599  0.59442785  1
  Te  Te179  1  0.93509443  0.76737784  0.88311451  1
