# generated using pymatgen
data_In2Te3
_symmetry_space_group_name_H-M   'P 1'
_cell_length_a   18.88450246
_cell_length_b   18.91499824
_cell_length_c   18.91510346
_cell_angle_alpha   89.88832201
_cell_angle_beta   89.92563377
_cell_angle_gamma   89.92336072
_symmetry_Int_Tables_number   1
_chemical_formula_structural   In2Te3
_chemical_formula_sum   'In72 Te108'
_cell_volume   6756.45666440
_cell_formula_units_Z   36
loop_
 _symmetry_equiv_pos_site_id
 _symmetry_equiv_pos_as_xyz
  1  'x, y, z'
loop_
 _atom_site_type_symbol
 _atom_site_label
 _atom_site_symmetry_multiplicity
 _atom_site_fract_x
 _atom_site_fract_y
 _atom_site_fract_z
 _atom_site_occupancy
  In  In0  1  0.81666970  0.50114870  0.31377741  1
  In  In1  1  0.83458259  0.34374864  0.49782214  1
  In  In2  1  0.00708556  0.51001942  0.16525463  1
  In  In3  1  0.82547247  0.32803514  0.84692189  1
  In  In4  1  0.30733441  0.84763024  0.51640253  1
  In  In5  1  0.20200174  0.65435747  0.80708096  1
  In  In6  1  0.19417213  0.81432130  0.33368265  1
  In  In7  1  0.63479485  0.84162170  0.84242229  1
  In  In8  1  0.66752283  0.01632598  0.35179370  1
  In  In9  1  0.00476326  0.01723083  0.32639670  1
  In  In10  1  0.36163870  0.67456975  0.32946705  1
  In  In11  1  0.62866469  0.83664185  0.16065887  1
  In  In12  1  0.47941211  0.83716552  0.31905082  1
  In  In13  1  0.01057523  -0.00781632  0.63940580  1
  In  In14  1  0.85737271  0.84002270  0.33003624  1
  In  In15  1  0.50834537  0.19551791  0.03367204  1
  In  In16  1  0.32514169  0.34097149  0.65324187  1
  In  In17  1  0.48938779  0.02401579  0.49596923  1
  In  In18  1  0.48856309  -0.00296779  0.17310388  1
  In  In19  1  0.66947505  0.16658979  0.84900597  1
  In  In20  1  0.48536436  -0.01192417  0.82389028  1
  In  In21  1  0.18529533  0.34663156  0.19085634  1
  In  In22  1  0.63355022  0.50120221  0.85108337  1
  In  In23  1  0.18045344  0.03741701  0.18316708  1
  In  In24  1  0.32235532  -0.00540366  0.67541089  1
  In  In25  1  0.81266029  0.63931708  0.19982986  1
  In  In26  1  0.00113682  0.16137465  0.48320813  1
  In  In27  1  0.17575594  0.50294099  -0.01159823  1
  In  In28  1  0.17596224  -0.01043521  0.83974653  1
  In  In29  1  0.33968417  0.64530104  0.01960278  1
  In  In30  1  0.18171799  0.67029601  0.52087327  1
  In  In31  1  0.01468842  0.84069759  0.14721806  1
  In  In32  1  0.00252198  0.32261905  -0.02122396  1
  In  In33  1  0.82799541  0.16864442  0.69684063  1
  In  In34  1  0.63625459  0.34251749  0.64855459  1
  In  In35  1  0.64801081  0.17241663  0.46050148  1
  In  In36  1  0.83935979  0.67356217  0.85617500  1
  In  In37  1  0.03577165  0.66383430  0.66723647  1
  In  In38  1  0.49921195  0.64345319  0.16122429  1
  In  In39  1  0.00610732  0.17103517  0.15639448  1
  In  In40  1  0.63340880  0.65134215  0.01184013  1
  In  In41  1  0.67831606  0.64317934  0.67102545  1
  In  In42  1  0.04442504  0.33703559  0.67346760  1
  In  In43  1  0.19178272  0.16988110  0.65564289  1
  In  In44  1  0.33565800  0.50572180  0.49029309  1
  In  In45  1  0.65985523  0.83169802  0.52908360  1
  In  In46  1  0.48090792  0.63343202  0.52028261  1
  In  In47  1  0.02221321  0.15504006  0.85698176  1
  In  In48  1  0.04102766  0.36814612  0.35368897  1
  In  In49  1  0.66092924  0.48279658  0.49675972  1
  In  In50  1  0.83734896  0.48441691  0.66657214  1
  In  In51  1  0.81878364  0.85714960  0.66567848  1
  In  In52  1  0.02551052  0.63333995  0.31118554  1
  In  In53  1  0.81723416  0.00914801  0.17299710  1
  In  In54  1  0.86700982  0.67839562  0.47220861  1
  In  In55  1  0.50239257  0.48749763  0.32522326  1
  In  In56  1  0.71148108  0.63777372  0.31784975  1
  In  In57  1  0.01628436  0.48185479  0.81656825  1
  In  In58  1  0.32892904  0.00500433  -0.01060242  1
  In  In59  1  0.16756744  0.84468223  -0.00940334  1
  In  In60  1  0.34267718  0.19192043  0.46681150  1
  In  In61  1  0.00578522  0.66778196  0.01935818  1
  In  In62  1  0.01859008  0.84634209  0.50650309  1
  In  In63  1  0.34406750  0.35516545  0.02858474  1
  In  In64  1  0.83718766  0.82768096  0.01907353  1
  In  In65  1  0.48253867  0.34654012  0.83961797  1
  In  In66  1  0.44635326  0.66293669  0.81893010  1
  In  In67  1  0.79769802  0.32658359  0.17073564  1
  In  In68  1  0.48487906  0.14323641  0.67194441  1
  In  In69  1  0.65812016  -0.00373054  0.00725593  1
  In  In70  1  0.85751591  0.01694082  0.82979698  1
  In  In71  1  0.50083343  0.21536494  0.28984788  1
  Te  Te72  1  0.09796844  0.09083960  0.07354669  1
  Te  Te73  1  0.09647804  0.06263047  0.43066402  1
  Te  Te74  1  0.08536508  0.08576046  0.73656080  1
  Te  Te75  1  0.08431421  0.40608806  0.07889706  1
  Te  Te76  1  0.12822823  0.44679746  0.44142901  1
  Te  Te77  1  0.13395634  0.44203424  0.73294825  1
  Te  Te78  1  0.11325061  0.73861182  0.09627211  1
  Te  Te79  1  0.07784603  0.74284754  0.41164339  1
  Te  Te80  1  0.10511134  0.75368522  0.75700739  1
  Te  Te81  1  0.40906685  0.09306640  0.08756167  1
  Te  Te82  1  0.43472582  0.10464700  0.38274514  1
  Te  Te83  1  0.38565227  0.09287940  0.77334636  1
  Te  Te84  1  0.46479312  0.40845978  0.09930442  1
  Te  Te85  1  0.41129805  0.40278578  0.40979078  1
  Te  Te86  1  0.39634340  0.42992318  0.75196374  1
  Te  Te87  1  0.40752875  0.74639756  0.10639891  1
  Te  Te88  1  0.41839320  0.75690682  0.44501804  1
  Te  Te89  1  0.36953491  0.76685189  0.74532538  1
  Te  Te90  1  0.74897009  0.09022410  0.07139918  1
  Te  Te91  1  0.76782296  0.10593017  0.40926117  1
  Te  Te92  1  0.73346285  0.06409937  0.75567102  1
  Te  Te93  1  0.75285383  0.44253321  0.09547741  1
  Te  Te94  1  0.73521787  0.39898151  0.39456125  1
  Te  Te95  1  0.73247727  0.41789025  0.75284261  1
  Te  Te96  1  0.73404650  0.74283184  0.09163238  1
  Te  Te97  1  0.75088467  0.75957637  0.41711604  1
  Te  Te98  1  0.74724856  0.74860809  0.75840970  1
  Te  Te99  1  0.08249955  0.25472888  0.25829417  1
  Te  Te100  1  0.09884947  0.24877061  0.56441590  1
  Te  Te101  1  0.10748064  0.26913467  0.89051429  1
  Te  Te102  1  0.12845832  0.56113531  0.23438747  1
  Te  Te103  1  0.08557561  0.56757961  0.56897788  1
  Te  Te104  1  0.07616918  0.59126454  0.90608122  1
  Te  Te105  1  0.09240677  0.91382110  0.25456936  1
  Te  Te106  1  0.11914597  0.90054170  0.59813808  1
  Te  Te107  1  0.06922245  0.92784609  0.92022461  1
  Te  Te108  1  0.36716264  0.24538072  0.22077170  1
  Te  Te109  1  0.42645013  0.24925132  0.58128466  1
  Te  Te110  1  0.41003247  0.24995379  0.93038202  1
  Te  Te111  1  0.39831729  0.55730735  0.23966823  1
  Te  Te112  1  0.37158685  0.58724723  0.61212574  1
  Te  Te113  1  0.41530836  0.56080672  0.92222930  1
  Te  Te114  1  0.38594495  0.93075893  0.25680598  1
  Te  Te115  1  0.42333161  0.92205327  0.58679021  1
  Te  Te116  1  0.39762523  0.90083239  0.90690093  1
  Te  Te117  1  0.71480285  0.22328639  0.23423976  1
  Te  Te118  1  0.75234340  0.25926635  0.59458236  1
  Te  Te119  1  0.72890478  0.26630139  0.94148071  1
  Te  Te120  1  0.69355974  0.53437661  0.20109367  1
  Te  Te121  1  0.76705393  0.57826589  0.56163835  1
  Te  Te122  1  0.74075047  0.58185922  0.92544557  1
  Te  Te123  1  0.73688628  0.90116405  0.24869890  1
  Te  Te124  1  0.75193606  0.93877403  0.56499716  1
  Te  Te125  1  0.75106533  0.90705616  0.91833655  1
  Te  Te126  1  0.25091094  0.25667809  0.09276536  1
  Te  Te127  1  0.22677558  0.23826863  0.38489123  1
  Te  Te128  1  0.25562213  0.25712041  0.75353992  1
  Te  Te129  1  0.26030286  0.54843038  0.10103610  1
  Te  Te130  1  0.25166223  0.60037661  0.40515854  1
  Te  Te131  1  0.26111270  0.54072675  0.73349927  1
  Te  Te132  1  0.24347217  0.92898255  0.09139591  1
  Te  Te133  1  0.25613462  0.92734928  0.40416696  1
  Te  Te134  1  0.27979043  0.89374230  0.78216872  1
  Te  Te135  1  0.60795749  0.25725548  0.13143895  1
  Te  Te136  1  0.56002356  0.27808263  0.41222365  1
  Te  Te137  1  0.57607777  0.24470093  0.75088610  1
  Te  Te138  1  0.53346443  0.54309832  0.05075914  1
  Te  Te139  1  0.58646017  0.59111929  0.41448124  1
  Te  Te140  1  0.56156527  0.58189619  0.74675349  1
  Te  Te141  1  0.54554353  0.90725416  0.05836537  1
  Te  Te142  1  0.57283142  0.91107269  0.41738643  1
  Te  Te143  1  0.57235506  0.91295372  0.73177185  1
  Te  Te144  1  0.90990918  0.26256276  0.08295936  1
  Te  Te145  1  0.92915939  0.27016106  0.40512680  1
  Te  Te146  1  0.93028238  0.26597589  0.75377525  1
  Te  Te147  1  0.90053862  0.58160648  0.08327958  1
  Te  Te148  1  0.92844375  0.56032525  0.40436735  1
  Te  Te149  1  0.91357126  0.58719241  0.74898317  1
  Te  Te150  1  0.92054602  0.93829093  0.08089178  1
  Te  Te151  1  0.91965307  0.93300868  0.42873303  1
  Te  Te152  1  0.93192043  0.91459360  0.74829757  1
  Te  Te153  1  0.25766306  0.13916267  0.26129301  1
  Te  Te154  1  0.27635882  0.08682285  0.56264449  1
  Te  Te155  1  0.22705381  0.09402695  0.92951003  1
  Te  Te156  1  0.28737281  0.35822991  0.30338496  1
  Te  Te157  1  0.23961515  0.39941629  0.54127684  1
  Te  Te158  1  0.27044357  0.41783092  0.91615493  1
  Te  Te159  1  0.28083208  0.75197234  0.23109382  1
  Te  Te160  1  0.27583583  0.73856939  0.61688466  1
  Te  Te161  1  0.24957289  0.73062400  0.92956549  1
  Te  Te162  1  0.59124604  0.08450046  0.24131668  1
  Te  Te163  1  0.59644757  0.09191555  0.57951268  1
  Te  Te164  1  0.56008758  0.08900695  0.92319634  1
  Te  Te165  1  0.54284538  0.37663474  0.22993507  1
  Te  Te166  1  0.55221904  0.44676658  0.58859578  1
  Te  Te167  1  0.59982188  0.37828334  0.92666954  1
  Te  Te168  1  0.58125259  0.73308271  0.26147247  1
  Te  Te169  1  0.57381936  0.73060239  0.60026984  1
  Te  Te170  1  0.55537660  0.73282469  0.90880665  1
  Te  Te171  1  0.90581127  0.10378378  0.25189793  1
  Te  Te172  1  0.90999956  0.09624256  0.59041648  1
  Te  Te173  1  0.90245020  0.11190442  0.93000849  1
  Te  Te174  1  0.92537215  0.41461903  0.25117365  1
  Te  Te175  1  0.93986148  0.41193165  0.58406121  1
  Te  Te176  1  0.91280371  0.43105720  0.91672629  1
  Te  Te177  1  0.92894392  0.74186370  0.23776669  1
  Te  Te178  1  0.91610181  0.75613328  0.59143786  1
  Te  Te179  1  0.93818352  0.76643483  0.92266288  1
