# generated using pymatgen
data_In2Te3
_symmetry_space_group_name_H-M   'P 1'
_cell_length_a   18.99691922
_cell_length_b   18.99726010
_cell_length_c   19.02666935
_cell_angle_alpha   89.97052652
_cell_angle_beta   89.95012560
_cell_angle_gamma   89.66685056
_symmetry_Int_Tables_number   1
_chemical_formula_structural   In2Te3
_chemical_formula_sum   'In72 Te108'
_cell_volume   6866.40401523
_cell_formula_units_Z   36
loop_
 _symmetry_equiv_pos_site_id
 _symmetry_equiv_pos_as_xyz
  1  'x, y, z'
loop_
 _atom_site_type_symbol
 _atom_site_label
 _atom_site_symmetry_multiplicity
 _atom_site_fract_x
 _atom_site_fract_y
 _atom_site_fract_z
 _atom_site_occupancy
  In  In0  1  0.31175223  0.66672484  0.66374834  1
  In  In1  1  0.16457998  -0.00702028  0.49615348  1
  In  In2  1  -0.01840018  0.00778076  0.66521407  1
  In  In3  1  0.82928278  0.33054053  0.49669043  1
  In  In4  1  0.16076174  0.50788159  0.35708985  1
  In  In5  1  0.50460488  0.00502958  0.14981662  1
  In  In6  1  0.63832298  0.48632052  0.84669771  1
  In  In7  1  0.68880181  0.51966505  0.18378006  1
  In  In8  1  0.15671393  0.34325426  0.14522171  1
  In  In9  1  0.34411828  0.84008442  0.14997965  1
  In  In10  1  0.65650415  0.80659829  0.48177106  1
  In  In11  1  0.16473495  0.52622260  0.01654695  1
  In  In12  1  0.50284303  0.32395249  0.18967027  1
  In  In13  1  0.82501857  0.15787625  0.34630653  1
  In  In14  1  -0.03184512  0.80741559  0.77107580  1
  In  In15  1  0.49688984  0.35525518  0.49407644  1
  In  In16  1  -0.00515718  0.51161129  0.84231027  1
  In  In17  1  0.00528541  -0.00219207  0.35480573  1
  In  In18  1  0.53534875  0.80961561  0.30145805  1
  In  In19  1  0.34416541  0.00205994  -0.00584335  1
  In  In20  1  0.65500374  0.35009393  -0.00670608  1
  In  In21  1  0.18959786  0.13439758  0.01816473  1
  In  In22  1  0.48057789  0.48124134  -0.00813201  1
  In  In23  1  0.01821901  0.16458795  0.51146921  1
  In  In24  1  0.82136370  0.31720686  0.83316608  1
  In  In25  1  0.01958338  0.14892937  0.18517093  1
  In  In26  1  0.65744142  0.53354865  0.48705403  1
  In  In27  1  0.16681941  -0.00502009  0.86671653  1
  In  In28  1  -0.02372097  0.53597257  0.19156717  1
  In  In29  1  -0.01566235  0.68726692  0.32971066  1
  In  In30  1  0.00296357  0.36567858  0.31536054  1
  In  In31  1  0.50478357  0.50611788  0.64938016  1
  In  In32  1  0.33382918  0.84275204  0.83038670  1
  In  In33  1  0.15142861  0.82882893  0.66944661  1
  In  In34  1  0.21115172  0.01394387  0.19896958  1
  In  In35  1  0.51612542  0.14935566  0.64266839  1
  In  In36  1  0.14094161  0.80840719  0.02239769  1
  In  In37  1  0.67194169  0.65771782  0.00821443  1
  In  In38  1  0.17720163  0.69551865  0.83405597  1
  In  In39  1  0.67561744  0.15880867  0.15449177  1
  In  In40  1  0.34701405  0.69478938  0.31827769  1
  In  In41  1  0.66867376  0.34463536  0.35580216  1
  In  In42  1  0.48375835  0.13132918  0.36265710  1
  In  In43  1  0.64654688  0.86118259  0.80685374  1
  In  In44  1  0.17057212  0.17977417  0.68889404  1
  In  In45  1  0.80836843  0.49701098  0.66061326  1
  In  In46  1  0.65864255  0.00379151  0.00123939  1
  In  In47  1  0.82698342  0.82148066  0.00596467  1
  In  In48  1  0.37881749  -0.00887743  0.60959572  1
  In  In49  1  0.32411818  0.33557507  0.35895744  1
  In  In50  1  0.86745244  0.69061611  0.51378687  1
  In  In51  1  0.80709360  0.84531008  0.31867073  1
  In  In52  1  0.66688053  0.11294337  0.79590613  1
  In  In53  1  0.83664031  0.51311160  0.03375018  1
  In  In54  1  -0.01053114  0.16917563  0.86146248  1
  In  In55  1  0.32115064  0.37142184  0.62895974  1
  In  In56  1  -0.01884904  -0.03786271  -0.01579749  1
  In  In57  1  0.80274672  0.67919531  0.81345360  1
  In  In58  1  0.49735079  0.82025423  -0.01270142  1
  In  In59  1  -0.00319510  0.34465417  0.69612861  1
  In  In60  1  0.81467098  -0.02489996  0.50894162  1
  In  In61  1  0.84042607  0.15705496  0.02234751  1
  In  In62  1  0.17171799  0.84155173  0.33814314  1
  In  In63  1  0.16880572  0.66825224  0.50287878  1
  In  In64  1  -0.00804524  0.30817420  0.02081171  1
  In  In65  1  0.49160610  0.64315512  0.82777278  1
  In  In66  1  0.32769347  0.15815426  0.48334058  1
  In  In67  1  0.33391430  0.30722049  0.00059466  1
  In  In68  1  0.17699568  0.33894152  0.83522988  1
  In  In69  1  0.49186049  0.67889630  0.48065634  1
  In  In70  1  0.33257997  0.52519692  0.18732665  1
  In  In71  1  0.67685319  0.15750788  0.51571629  1
  Te  Te72  1  0.05747685  0.07383682  0.06004002  1
  Te  Te73  1  0.10442032  0.10008098  0.40498787  1
  Te  Te74  1  0.07858504  0.08051108  0.76641842  1
  Te  Te75  1  0.05281144  0.43635151  0.08421864  1
  Te  Te76  1  0.05598830  0.43702152  0.43131887  1
  Te  Te77  1  0.09820742  0.43981683  0.75515763  1
  Te  Te78  1  0.04535593  0.72283221  0.08726772  1
  Te  Te79  1  0.07934300  0.76218132  0.42530668  1
  Te  Te80  1  0.07774869  0.70480204  0.71629026  1
  Te  Te81  1  0.42006211  0.10252088  0.07365446  1
  Te  Te82  1  0.42592164  0.04221743  0.46797301  1
  Te  Te83  1  0.42019706  0.07192912  0.72227170  1
  Te  Te84  1  0.40429225  0.40448700  0.10267408  1
  Te  Te85  1  0.41933867  0.43570397  0.40138909  1
  Te  Te86  1  0.41273472  0.42626097  0.72913029  1
  Te  Te87  1  0.43697001  0.74147305  0.09360550  1
  Te  Te88  1  0.42194258  0.79018145  0.40639620  1
  Te  Te89  1  0.41553975  0.74677164  0.74732627  1
  Te  Te90  1  0.77109128  0.04436248  0.10637659  1
  Te  Te91  1  0.73245583  0.05999535  0.41239745  1
  Te  Te92  1  0.77076572  0.03580542  0.73205159  1
  Te  Te93  1  0.75116687  0.40687442  0.09542660  1
  Te  Te94  1  0.76375868  0.44247354  0.41770369  1
  Te  Te95  1  0.72980626  0.40619090  0.75318203  1
  Te  Te96  1  0.73624077  0.75075793  0.10375381  1
  Te  Te97  1  0.76294984  0.72673814  0.40680703  1
  Te  Te98  1  0.74298800  0.78153151  0.72392754  1
  Te  Te99  1  0.09568569  0.25816657  0.25490972  1
  Te  Te100  1  0.08697972  0.26753056  0.59862099  1
  Te  Te101  1  0.10509425  0.24542472  0.93270943  1
  Te  Te102  1  0.09279357  0.60137246  0.25878562  1
  Te  Te103  1  0.11288179  0.55910279  0.58155784  1
  Te  Te104  1  0.08147705  0.60705396  0.91876305  1
  Te  Te105  1  0.09183654  0.93345952  0.24625671  1
  Te  Te106  1  0.06446067  0.91590608  0.57858194  1
  Te  Te107  1  0.07422623  0.88054964  0.89577554  1
  Te  Te108  1  0.41156862  0.23395683  0.27237025  1
  Te  Te109  1  0.41278872  0.25389933  0.56785230  1
  Te  Te110  1  0.40299299  0.19137255  0.94317627  1
  Te  Te111  1  0.43987542  0.60503566  0.24659919  1
  Te  Te112  1  0.40779651  0.59074412  0.57168537  1
  Te  Te113  1  0.39963418  0.57761736  0.91840206  1
  Te  Te114  1  0.42772366  0.91841433  0.24478811  1
  Te  Te115  1  0.47418656  0.87679173  0.61066112  1
  Te  Te116  1  0.43753416  0.92858186  0.89964586  1
  Te  Te117  1  0.73926443  0.24882034  0.26040528  1
  Te  Te118  1  0.75713831  0.24967013  0.59384270  1
  Te  Te119  1  0.74460589  0.23769661  0.93603536  1
  Te  Te120  1  0.75735051  0.62767052  0.25240058  1
  Te  Te121  1  0.75256556  0.60878467  0.57701999  1
  Te  Te122  1  0.75821384  0.56113426  0.91403615  1
  Te  Te123  1  0.75905567  0.95173704  0.23121624  1
  Te  Te124  1  0.74864404  0.86696988  0.58475603  1
  Te  Te125  1  0.74078579  0.90940259  0.91577129  1
  Te  Te126  1  0.25595118  0.23337841  0.11079176  1
  Te  Te127  1  0.23168130  0.26101252  0.44240134  1
  Te  Te128  1  0.27525023  0.27099316  0.74432260  1
  Te  Te129  1  0.25565102  0.60782702  0.09450320  1
  Te  Te130  1  0.26744041  0.60134869  0.40842969  1
  Te  Te131  1  0.24962471  0.58697819  0.76881271  1
  Te  Te132  1  0.23375265  0.93178094  0.07194031  1
  Te  Te133  1  0.26046531  0.93894462  0.40009001  1
  Te  Te134  1  0.23658813  0.92506871  0.74977097  1
  Te  Te135  1  0.57904859  0.25124458  0.08141781  1
  Te  Te136  1  0.57875558  0.23871375  0.41979356  1
  Te  Te137  1  0.60071847  0.22814831  0.73214281  1
  Te  Te138  1  0.58577539  0.55434385  0.07438139  1
  Te  Te139  1  0.56704050  0.59175493  0.38807305  1
  Te  Te140  1  0.59945151  0.58500152  0.73893786  1
  Te  Te141  1  0.58715060  0.89820423  0.08215457  1
  Te  Te142  1  0.59545853  0.90570081  0.39236384  1
  Te  Te143  1  0.57490481  0.94547815  0.70685396  1
  Te  Te144  1  0.90897138  0.24214599  0.12625059  1
  Te  Te145  1  0.93041608  0.24729162  0.41036085  1
  Te  Te146  1  0.91140501  0.22969900  0.74709012  1
  Te  Te147  1  0.92399082  0.62368952  0.08011902  1
  Te  Te148  1  0.93694299  0.59226584  0.43107073  1
  Te  Te149  1  0.90032653  0.58120466  0.74651983  1
  Te  Te150  1  0.92710399  0.88338679  0.09721894  1
  Te  Te151  1  0.91227754  0.90106091  0.42056372  1
  Te  Te152  1  0.88828306  0.93600475  0.75605635  1
  Te  Te153  1  0.29664481  0.11702097  0.24833706  1
  Te  Te154  1  0.23936061  0.08035047  0.59726388  1
  Te  Te155  1  0.27132371  0.10023356  0.89000562  1
  Te  Te156  1  0.23613545  0.41873948  0.24951639  1
  Te  Te157  1  0.23080126  0.46699024  0.56492583  1
  Te  Te158  1  0.24786621  0.41787097  0.94224311  1
  Te  Te159  1  0.24225404  0.76126702  0.23064161  1
  Te  Te160  1  0.25444253  0.77604677  0.57366377  1
  Te  Te161  1  0.26273699  0.76446491  0.93823483  1
  Te  Te162  1  0.57950367  0.09023029  0.24953134  1
  Te  Te163  1  0.61201061  0.04483683  0.58989656  1
  Te  Te164  1  0.58110776  0.08847347  0.91224057  1
  Te  Te165  1  0.58807699  0.42639428  0.25743113  1
  Te  Te166  1  0.60586849  0.41947630  0.57452182  1
  Te  Te167  1  0.54183220  0.38052181  0.89585192  1
  Te  Te168  1  0.64192526  0.72822671  0.23196390  1
  Te  Te169  1  0.56646880  0.74890819  0.58914852  1
  Te  Te170  1  0.59707874  0.73740885  0.90148541  1
  Te  Te171  1  0.91231449  0.06879086  0.25839145  1
  Te  Te172  1  0.90089538  0.08963518  0.56723905  1
  Te  Te173  1  0.89378971  0.06637140  0.91387127  1
  Te  Te174  1  0.89101225  0.43565790  0.25298345  1
  Te  Te175  1  0.91564356  0.41683345  0.59077942  1
  Te  Te176  1  0.92436891  0.39537714  0.91313754  1
  Te  Te177  1  0.91934491  0.78506907  0.23880522  1
  Te  Te178  1  0.94021265  0.75157286  0.63362569  1
  Te  Te179  1  0.90505345  0.74723631  0.89846328  1
