# generated using pymatgen
data_In2Te3
_symmetry_space_group_name_H-M   'P 1'
_cell_length_a   18.87999985
_cell_length_b   18.87375771
_cell_length_c   18.86828631
_cell_angle_alpha   89.87984890
_cell_angle_beta   90.05352510
_cell_angle_gamma   90.07695804
_symmetry_Int_Tables_number   1
_chemical_formula_structural   In2Te3
_chemical_formula_sum   'In72 Te108'
_cell_volume   6723.43614761
_cell_formula_units_Z   36
loop_
 _symmetry_equiv_pos_site_id
 _symmetry_equiv_pos_as_xyz
  1  'x, y, z'
loop_
 _atom_site_type_symbol
 _atom_site_label
 _atom_site_symmetry_multiplicity
 _atom_site_fract_x
 _atom_site_fract_y
 _atom_site_fract_z
 _atom_site_occupancy
  In  In0  1  -0.00042592  0.01104602  0.34362676  1
  In  In1  1  0.47659381  0.46114674  0.35940749  1
  In  In2  1  0.51563034  -0.03036408  0.47785077  1
  In  In3  1  0.32111573  0.83315314  0.50797618  1
  In  In4  1  0.85632917  0.03282074  0.84811953  1
  In  In5  1  0.17725420  0.00948456  0.84781515  1
  In  In6  1  0.18495080  0.34773880  0.50525050  1
  In  In7  1  0.51541773  0.03831900  0.83589711  1
  In  In8  1  0.82748748  0.17559714  0.65113062  1
  In  In9  1  0.33278915  0.80307294  0.82125297  1
  In  In10  1  0.16433542  0.83116306  0.33997126  1
  In  In11  1  0.31350622  0.66454361  0.34978312  1
  In  In12  1  0.66546392  0.16260786  0.50897305  1
  In  In13  1  0.53125728  0.81697372  0.33393234  1
  In  In14  1  0.65500986  0.49009384  0.48053363  1
  In  In15  1  0.34536460  0.46933498  0.15876884  1
  In  In16  1  0.18634550  0.35182852  0.83084481  1
  In  In17  1  0.16846250  0.87239636  -0.01438487  1
  In  In18  1  0.50178994  0.31603455  0.83972669  1
  In  In19  1  -0.00428080  0.67314557  -0.00351538  1
  In  In20  1  0.82399808  0.84119344  0.01266212  1
  In  In21  1  0.83301537  0.64154198  0.48476523  1
  In  In22  1  0.32219321  0.65689502  0.02284047  1
  In  In23  1  0.32410258  0.17151478  0.52033006  1
  In  In24  1  -0.00038398  0.65063905  0.66248432  1
  In  In25  1  0.49691643  0.65971603  0.83123715  1
  In  In26  1  0.15541249  0.82694557  0.65509289  1
  In  In27  1  0.33880046  0.85327614  0.13073960  1
  In  In28  1  0.16067909  0.50142561  0.32271080  1
  In  In29  1  0.67800850  0.65582817  0.33251693  1
  In  In30  1  0.48892077  0.51339027  0.01587137  1
  In  In31  1  -0.01355816  0.33926296  0.02441365  1
  In  In32  1  0.67232657  0.34814880  0.31793332  1
  In  In33  1  0.66541613  0.82859024  0.84100460  1
  In  In34  1  0.34254675  0.02075878  0.30985210  1
  In  In35  1  0.02110417  -0.01437901  0.67902535  1
  In  In36  1  0.00348789  0.33112069  0.66210199  1
  In  In37  1  0.77118066  0.01056087  0.15887187  1
  In  In38  1  -0.01828698  0.83141218  0.17101358  1
  In  In39  1  0.00389840  0.47431778  0.85985738  1
  In  In40  1  -0.00271937  0.17126025  0.86425241  1
  In  In41  1  0.53825403  0.00160327  0.17651891  1
  In  In42  1  -0.00705137  0.81864587  0.47887769  1
  In  In43  1  0.33079803  0.01325842  -0.00663117  1
  In  In44  1  0.67558408  0.31836037  0.01067814  1
  In  In45  1  0.34807225  0.00585880  0.65615409  1
  In  In46  1  0.21145496  0.58481578  0.81065233  1
  In  In47  1  0.52122661  0.64646831  0.18423317  1
  In  In48  1  0.83396679  0.49774392  0.00699248  1
  In  In49  1  0.00856955  0.18205543  0.47730832  1
  In  In50  1  0.83127468  0.18476810  0.31595318  1
  In  In51  1  0.15401945  0.32519224  0.16518517  1
  In  In52  1  -0.00252649  0.50292533  0.49387024  1
  In  In53  1  0.83986283  0.65393906  0.16592859  1
  In  In54  1  0.52171776  0.67199186  0.53764205  1
  In  In55  1  0.51618599  0.85866482  0.00156568  1
  In  In56  1  0.16698400  0.65583518  0.16773672  1
  In  In57  1  0.67800248  0.49717236  0.83481902  1
  In  In58  1  0.50689238  0.17918183  0.00796590  1
  In  In59  1  0.82144255  0.68354224  0.81372065  1
  In  In60  1  0.02064570  0.15643176  0.14785491  1
  In  In61  1  0.04173933  0.85253559  0.84751793  1
  In  In62  1  0.32371478  0.18553256  0.16416339  1
  In  In63  1  0.32911615  0.32643411  0.66793151  1
  In  In64  1  0.84338717  -0.01105598  0.50926515  1
  In  In65  1  0.80574696  0.84062876  0.67268401  1
  In  In66  1  -0.03786316  0.34808208  0.30018238  1
  In  In67  1  0.67835200  -0.01382042  0.67648313  1
  In  In68  1  0.50095099  0.17360122  0.31926289  1
  In  In69  1  0.48700787  0.17946972  0.66828841  1
  In  In70  1  0.49747749  0.47591957  0.64587408  1
  In  In71  1  0.80892749  0.49018276  0.67638223  1
  Te  Te72  1  0.09809075  0.08204965  0.04754219  1
  Te  Te73  1  0.10196264  0.08963128  0.41423612  1
  Te  Te74  1  0.08484025  0.09489335  0.76093621  1
  Te  Te75  1  0.06649290  0.43160223  0.10824077  1
  Te  Te76  1  0.07066871  0.39784411  0.40738348  1
  Te  Te77  1  0.08713354  0.42969370  0.74093923  1
  Te  Te78  1  0.08884286  0.76553189  0.07564562  1
  Te  Te79  1  0.10071884  0.73277916  0.42864447  1
  Te  Te80  1  0.08662503  0.73870641  0.75852061  1
  Te  Te81  1  0.42529737  0.07189976  0.09772822  1
  Te  Te82  1  0.42435413  0.08185156  0.42808153  1
  Te  Te83  1  0.39726607  0.10031116  0.76549328  1
  Te  Te84  1  0.41220417  0.39162651  0.05231592  1
  Te  Te85  1  0.39383589  0.37525203  0.44402546  1
  Te  Te86  1  0.41614642  0.41229187  0.75959446  1
  Te  Te87  1  0.43471474  0.74336866  0.08159149  1
  Te  Te88  1  0.41953235  0.75261238  0.41802720  1
  Te  Te89  1  0.43037880  0.74449786  0.73049740  1
  Te  Te90  1  0.73308643  0.10315603  0.04915006  1
  Te  Te91  1  0.76886626  0.09040604  0.42404118  1
  Te  Te92  1  0.74944888  0.09398475  0.75578045  1
  Te  Te93  1  0.76546481  0.40299462  0.10143208  1
  Te  Te94  1  0.76530659  0.43161734  0.40005977  1
  Te  Te95  1  0.74941314  0.38930555  0.76495890  1
  Te  Te96  1  0.75425358  0.72464536  0.06747352  1
  Te  Te97  1  0.74256396  0.74616444  0.43104835  1
  Te  Te98  1  0.70782927  0.73553874  0.72744301  1
  Te  Te99  1  0.06854349  0.24476064  0.26296374  1
  Te  Te100  1  0.09955049  0.24578502  0.58227601  1
  Te  Te101  1  0.08476826  0.27857213  0.92452847  1
  Te  Te102  1  0.07070004  0.60562849  0.26635905  1
  Te  Te103  1  0.09282952  0.57997395  0.57629224  1
  Te  Te104  1  0.08828183  0.59061710  0.90978397  1
  Te  Te105  1  0.07951199  0.91890370  0.25011604  1
  Te  Te106  1  0.08183622  0.91791454  0.55806124  1
  Te  Te107  1  0.05038230  0.96805568  0.95055846  1
  Te  Te108  1  0.42051736  0.26699866  0.24027032  1
  Te  Te109  1  0.43691823  0.27509902  0.55890862  1
  Te  Te110  1  0.40355460  0.25241753  0.93048713  1
  Te  Te111  1  0.39626314  0.58584639  0.24515539  1
  Te  Te112  1  0.41476908  0.57382700  0.56773803  1
  Te  Te113  1  0.39643848  0.58017602  0.91231610  1
  Te  Te114  1  0.42912257  0.90300492  0.24682314  1
  Te  Te115  1  0.43281123  0.90158723  0.58721139  1
  Te  Te116  1  0.40743564  0.91226936  0.90841846  1
  Te  Te117  1  0.72271862  0.23742076  0.22796506  1
  Te  Te118  1  0.73712530  0.27024436  0.58266027  1
  Te  Te119  1  0.75886607  0.21548794  0.94230410  1
  Te  Te120  1  0.75794646  0.55813255  0.25151313  1
  Te  Te121  1  0.73299985  0.57992657  0.58078571  1
  Te  Te122  1  0.75404466  0.59742613  0.92066454  1
  Te  Te123  1  0.72777496  0.91692887  0.26092985  1
  Te  Te124  1  0.72189411  0.90216046  0.55442075  1
  Te  Te125  1  0.75699880  0.92871594  0.90736690  1
  Te  Te126  1  0.24496944  0.26412473  0.06639581  1
  Te  Te127  1  0.27001996  0.26352244  0.41497583  1
  Te  Te128  1  0.24269707  0.24247266  0.75179571  1
  Te  Te129  1  0.23458339  0.54891915  0.08530384  1
  Te  Te130  1  0.25548984  0.55329246  0.42387830  1
  Te  Te131  1  0.29436386  0.56568916  0.69230881  1
  Te  Te132  1  0.23104137  0.95304134  0.10095860  1
  Te  Te133  1  0.26124967  0.92798412  0.40581896  1
  Te  Te134  1  0.24724442  0.91580354  0.74939718  1
  Te  Te135  1  0.57917132  0.26125062  0.10763473  1
  Te  Te136  1  0.59204722  0.25429969  0.41172482  1
  Te  Te137  1  0.59014136  0.23123896  0.75875870  1
  Te  Te138  1  0.60140110  0.55840549  0.09938496  1
  Te  Te139  1  0.55851294  0.58824611  0.40649046  1
  Te  Te140  1  0.57816263  0.56652145  0.74395663  1
  Te  Te141  1  0.62152058  0.91380710  0.09001282  1
  Te  Te142  1  0.61747574  0.93697990  0.37125849  1
  Te  Te143  1  0.56983223  0.91867511  0.76038535  1
  Te  Te144  1  0.90920018  0.24470506  0.10657255  1
  Te  Te145  1  0.89888327  0.26882400  0.42232469  1
  Te  Te146  1  0.91820227  0.24473049  0.75331223  1
  Te  Te147  1  0.94503330  0.56520659  0.08886557  1
  Te  Te148  1  0.93073875  0.58640219  0.39050399  1
  Te  Te149  1  0.91431632  0.57085234  0.76756446  1
  Te  Te150  1  0.89813616  0.93715224  0.10071505  1
  Te  Te151  1  0.90021519  0.90562971  0.39561899  1
  Te  Te152  1  0.91236174  0.91391520  0.75800678  1
  Te  Te153  1  0.23745381  0.10516912  0.25409828  1
  Te  Te154  1  0.23851265  0.07087851  0.58445389  1
  Te  Te155  1  0.23973675  0.11315818  0.93261529  1
  Te  Te156  1  0.25249542  0.39991364  0.25605499  1
  Te  Te157  1  0.24782208  0.43885184  0.60802897  1
  Te  Te158  1  0.24807101  0.46988727  0.89751827  1
  Te  Te159  1  0.25976657  0.76143646  0.23101449  1
  Te  Te160  1  0.24630513  0.73449758  0.58719456  1
  Te  Te161  1  0.24153641  0.74958436  0.92966591  1
  Te  Te162  1  0.61570774  0.10861100  0.24669531  1
  Te  Te163  1  0.57261782  0.06938808  0.59103380  1
  Te  Te164  1  0.59912635  0.07389783  0.95167875  1
  Te  Te165  1  0.56993818  0.43350926  0.25039760  1
  Te  Te166  1  0.60665718  0.39567545  0.58472956  1
  Te  Te167  1  0.58486047  0.42034553  0.92787656  1
  Te  Te168  1  0.62016919  0.75333830  0.22742751  1
  Te  Te169  1  0.61273415  0.78374739  0.55228484  1
  Te  Te170  1  0.58154562  0.73855170  0.93074206  1
  Te  Te171  1  0.91066485  0.08016438  0.24050636  1
  Te  Te172  1  0.93434574  0.08140957  0.59002469  1
  Te  Te173  1  0.89288773  0.12296530  0.96494664  1
  Te  Te174  1  0.84922017  0.42491580  0.23668137  1
  Te  Te175  1  0.90670067  0.41817688  0.58398303  1
  Te  Te176  1  0.88883549  0.39279974  0.91110359  1
  Te  Te177  1  0.90498168  0.74585965  0.26145549  1
  Te  Te178  1  0.90810007  0.75414965  0.59418500  1
  Te  Te179  1  0.91686475  0.76576670  0.90437088  1
