# generated using pymatgen
data_In2Te3
_symmetry_space_group_name_H-M   'P 1'
_cell_length_a   18.79459797
_cell_length_b   18.79869804
_cell_length_c   18.80239751
_cell_angle_alpha   90.04854442
_cell_angle_beta   89.94327142
_cell_angle_gamma   90.02295353
_symmetry_Int_Tables_number   1
_chemical_formula_structural   In2Te3
_chemical_formula_sum   'In72 Te108'
_cell_volume   6643.14357606
_cell_formula_units_Z   36
loop_
 _symmetry_equiv_pos_site_id
 _symmetry_equiv_pos_as_xyz
  1  'x, y, z'
loop_
 _atom_site_type_symbol
 _atom_site_label
 _atom_site_symmetry_multiplicity
 _atom_site_fract_x
 _atom_site_fract_y
 _atom_site_fract_z
 _atom_site_occupancy
  In  In0  1  0.80812253  0.49346664  0.67742889  1
  In  In1  1  -0.01296398  0.50446222  0.83710103  1
  In  In2  1  0.00151444  0.84118048  0.17573958  1
  In  In3  1  -0.01985974  0.15494661  0.81148861  1
  In  In4  1  0.53481143  0.48276657  0.66538565  1
  In  In5  1  -0.02106770  0.17939897  0.16661000  1
  In  In6  1  0.67716624  0.19567742  0.50570201  1
  In  In7  1  0.81380188  0.84825730  0.33712895  1
  In  In8  1  0.82912289  0.34347909  0.48043067  1
  In  In9  1  0.81977918  0.67104094  0.14034706  1
  In  In10  1  0.68080500  0.82170236  0.84266664  1
  In  In11  1  0.50098601  0.17581969  0.66710814  1
  In  In12  1  0.17455121  0.17866560  0.00253011  1
  In  In13  1  0.14793988  0.33622860  0.50741895  1
  In  In14  1  0.15954671  0.84242731  -0.00594020  1
  In  In15  1  0.50945439  0.33017729  0.17050304  1
  In  In16  1  -0.04553183  0.67203283  -0.02539169  1
  In  In17  1  0.67377773  0.18282511  0.86246231  1
  In  In18  1  0.36032835  0.80873553  0.16755186  1
  In  In19  1  0.17709849  0.33122067  0.83620769  1
  In  In20  1  -0.01023960  0.33053989  0.32304983  1
  In  In21  1  0.15299028  0.67299854  0.50396846  1
  In  In22  1  0.51864492  0.00840680  0.82776803  1
  In  In23  1  0.14973126  0.51021687  0.32826492  1
  In  In24  1  -0.00515001  -0.00850592  -0.01591378  1
  In  In25  1  0.33692510  0.17791367  0.14393770  1
  In  In26  1  0.81887113  -0.02194420  0.84087241  1
  In  In27  1  0.33443654  0.50663294  0.81900189  1
  In  In28  1  0.34720461  0.16215396  0.50836221  1
  In  In29  1  0.16060502  0.82815373  0.67468766  1
  In  In30  1  0.15694360  0.65979130  0.17838125  1
  In  In31  1  0.68342576  0.18756058  0.16698748  1
  In  In32  1  0.34536918  0.49076100  0.16864159  1
  In  In33  1  0.48871948  -0.01037799  0.49539897  1
  In  In34  1  -0.02615616  0.34315828  -0.00361931  1
  In  In35  1  0.33794296  0.36495744  0.33993300  1
  In  In36  1  0.31815415  -0.01840897  0.64096497  1
  In  In37  1  0.68307630  -0.02213947  0.65381971  1
  In  In38  1  0.31092101  0.16305103  0.82923083  1
  In  In39  1  0.36047796  0.81003788  0.80943848  1
  In  In40  1  -0.01045771  0.32347580  0.66284116  1
  In  In41  1  0.35167411  0.67033778  0.00471136  1
  In  In42  1  0.51367594  0.51019001  -0.00416245  1
  In  In43  1  0.34908182  0.01917228  -0.01192115  1
  In  In44  1  0.82598291  -0.02318474  0.51163113  1
  In  In45  1  0.52225975  0.65800371  0.16019582  1
  In  In46  1  0.82597556  0.18851939  0.66754339  1
  In  In47  1  0.33812924  -0.01777523  0.33796294  1
  In  In48  1  0.67551227  0.66095957  0.68477939  1
  In  In49  1  0.17978638  0.51946935  0.66484444  1
  In  In50  1  0.15734978  0.15555136  0.34388929  1
  In  In51  1  -0.01576112  -0.01253321  0.68061205  1
  In  In52  1  0.16463916  -0.01751754  0.16321942  1
  In  In53  1  0.51473366  0.51260965  0.33968663  1
  In  In54  1  0.68960955  0.65392803  -0.03288635  1
  In  In55  1  0.15349166  0.00617547  0.50822786  1
  In  In56  1  -0.00058746  0.65929600  0.34676767  1
  In  In57  1  0.67820865  0.82004520  0.51552513  1
  In  In58  1  0.66819964  0.65757788  0.34672226  1
  In  In59  1  0.83488613  0.16519201  0.32973864  1
  In  In60  1  0.50168120  0.34441525  0.84774321  1
  In  In61  1  0.34451778  0.82369697  0.50719360  1
  In  In62  1  0.84797602  0.00403583  0.14463863  1
  In  In63  1  0.65779788  0.33757638  0.34666623  1
  In  In64  1  0.84516684  0.49928164  0.33834520  1
  In  In65  1  0.48669667  0.81562007  0.32994439  1
  In  In66  1  0.32742395  0.70593699  0.34508434  1
  In  In67  1  0.66063218  0.00296929  0.30479555  1
  In  In68  1  0.13227289  0.48762175  -0.01197642  1
  In  In69  1  0.51993937  0.17745841  -0.01854053  1
  In  In70  1  0.35228624  0.51620623  0.52206453  1
  In  In71  1  -0.00782108  0.69604873  0.65023242  1
  Te  Te72  1  0.07635671  0.08102879  0.08552768  1
  Te  Te73  1  0.05893921  0.08301338  0.42454945  1
  Te  Te74  1  0.08417738  0.07738803  0.74362796  1
  Te  Te75  1  0.06881521  0.40522645  0.09091599  1
  Te  Te76  1  0.06163061  0.42588044  0.41965242  1
  Te  Te77  1  0.08433572  0.41997560  0.74956949  1
  Te  Te78  1  0.07578639  0.74120404  0.07555315  1
  Te  Te79  1  0.08766809  0.76086732  0.40709692  1
  Te  Te80  1  0.08423632  0.73465731  0.75997713  1
  Te  Te81  1  0.44542670  0.08955121  0.08377683  1
  Te  Te82  1  0.42754813  0.09043951  0.39919762  1
  Te  Te83  1  0.40963555  0.07353098  0.74041159  1
  Te  Te84  1  0.42461003  0.40922587  0.06871055  1
  Te  Te85  1  0.43938676  0.42208989  0.43810916  1
  Te  Te86  1  0.41616394  0.40641317  0.73883851  1
  Te  Te87  1  0.46741265  0.76639811  0.05795394  1
  Te  Te88  1  0.44227284  0.72276518  0.44400654  1
  Te  Te89  1  0.43267963  0.72525269  0.71309831  1
  Te  Te90  1  0.74255628  0.08417575  0.07935120  1
  Te  Te91  1  0.74467404  0.07897128  0.41965673  1
  Te  Te92  1  0.74108504  0.08657252  0.74942113  1
  Te  Te93  1  0.74302583  0.35504470  0.05527894  1
  Te  Te94  1  0.72838324  0.44474203  0.42795026  1
  Te  Te95  1  0.73144000  0.43694223  0.79288061  1
  Te  Te96  1  0.73580598  0.76165213  0.05938222  1
  Te  Te97  1  0.77164638  0.73379362  0.43007823  1
  Te  Te98  1  0.77941629  0.73061936  0.77251302  1
  Te  Te99  1  0.09204556  0.24913169  0.24181746  1
  Te  Te100  1  0.07701032  0.23400296  0.58604640  1
  Te  Te101  1  0.06967889  0.24746201  0.91229024  1
  Te  Te102  1  0.04741913  0.56813457  0.23111599  1
  Te  Te103  1  0.06762340  0.57447145  0.57888948  1
  Te  Te104  1  0.08012645  0.60455633  0.90857621  1
  Te  Te105  1  0.08000271  0.92473372  0.26860979  1
  Te  Te106  1  0.06714806  0.90351743  0.58123839  1
  Te  Te107  1  0.07523886  0.90776914  0.89115566  1
  Te  Te108  1  0.40841809  0.25703303  0.25697476  1
  Te  Te109  1  0.42574340  0.26505949  0.57808454  1
  Te  Te110  1  0.40175171  0.24900204  0.91706338  1
  Te  Te111  1  0.40775155  0.60043690  0.25538907  1
  Te  Te112  1  0.42443500  0.59077606  0.63085780  1
  Te  Te113  1  0.43181134  0.59485621  0.89942070  1
  Te  Te114  1  0.44136131  0.93290442  0.23261191  1
  Te  Te115  1  0.43918788  0.89675286  0.60472653  1
  Te  Te116  1  0.42659550  0.91563006  0.90737296  1
  Te  Te117  1  0.76770764  0.27960658  0.25621433  1
  Te  Te118  1  0.73242399  0.30016781  0.60426259  1
  Te  Te119  1  0.77202466  0.26380342  0.93838927  1
  Te  Te120  1  0.75219641  0.58030740  0.24613706  1
  Te  Te121  1  0.74429517  0.58255210  0.57852665  1
  Te  Te122  1  0.77294307  0.55358860  0.89164603  1
  Te  Te123  1  0.74507205  0.91245594  0.21703149  1
  Te  Te124  1  0.78957068  0.86810908  0.62207010  1
  Te  Te125  1  0.73746811  0.91243949  0.94727971  1
  Te  Te126  1  0.25060709  0.27734461  0.07961349  1
  Te  Te127  1  0.25254462  0.25506589  0.41482149  1
  Te  Te128  1  0.25153657  0.25703697  0.73344084  1
  Te  Te129  1  0.25278108  0.58301369  0.08391527  1
  Te  Te130  1  0.25655555  0.58023029  0.41229917  1
  Te  Te131  1  0.23947532  0.60749879  0.76599551  1
  Te  Te132  1  0.27461216  0.91282312  0.07931868  1
  Te  Te133  1  0.24398022  0.90858982  0.42844724  1
  Te  Te134  1  0.25389545  0.91466067  0.75958277  1
  Te  Te135  1  0.60234028  0.28468508  0.05576590  1
  Te  Te136  1  0.56957583  0.24303679  0.41784039  1
  Te  Te137  1  0.59201171  0.25777049  0.75794855  1
  Te  Te138  1  0.61981793  0.57062559  0.08522425  1
  Te  Te139  1  0.57896599  0.59268806  0.44610386  1
  Te  Te140  1  0.59614263  0.56773315  0.77304126  1
  Te  Te141  1  0.53532605  0.88951961  0.11931262  1
  Te  Te142  1  0.59070671  0.90817690  0.41363801  1
  Te  Te143  1  0.58912895  0.90114578  0.74593297  1
  Te  Te144  1  0.88331975  0.24736178  0.07312961  1
  Te  Te145  1  0.92593790  0.23776000  0.42833212  1
  Te  Te146  1  0.89380211  0.27763692  0.77254850  1
  Te  Te147  1  0.90461223  0.56945811  0.07042222  1
  Te  Te148  1  0.91415569  0.58288547  0.43904637  1
  Te  Te149  1  0.91605136  0.58786563  0.73317657  1
  Te  Te150  1  0.91264895  0.89047985  0.06277225  1
  Te  Te151  1  0.91952032  0.91112654  0.41835429  1
  Te  Te152  1  0.92802155  0.89055980  0.78365648  1
  Te  Te153  1  0.25767452  0.07987205  0.24257732  1
  Te  Te154  1  0.23676245  0.10124289  0.59425764  1
  Te  Te155  1  0.22500417  0.06701001  0.91191013  1
  Te  Te156  1  0.23322482  0.41569040  0.24115141  1
  Te  Te157  1  0.25549370  0.41413968  0.58449723  1
  Te  Te158  1  0.25735156  0.42497669  0.92493523  1
  Te  Te159  1  0.23213101  0.77368426  0.24826471  1
  Te  Te160  1  0.25597611  0.73659685  0.59514150  1
  Te  Te161  1  0.25942028  0.75375392  0.91769583  1
  Te  Te162  1  0.58269086  0.11228602  0.24576867  1
  Te  Te163  1  0.59028870  0.07745460  0.58024514  1
  Te  Te164  1  0.60972716  0.06141795  0.93714525  1
  Te  Te165  1  0.59703780  0.43309138  0.23983052  1
  Te  Te166  1  0.60371463  0.38506555  0.57933306  1
  Te  Te167  1  0.60838674  0.44021016  0.89789552  1
  Te  Te168  1  0.60159969  0.75488180  0.24799415  1
  Te  Te169  1  0.58378838  0.75318128  0.60785200  1
  Te  Te170  1  0.57959302  0.72913443  0.90109809  1
  Te  Te171  1  0.92761507  0.06794100  0.25809555  1
  Te  Te172  1  0.90446430  0.08341627  0.58979804  1
  Te  Te173  1  0.89600949  0.08704865  0.91877034  1
  Te  Te174  1  0.89924225  0.40634515  0.23475229  1
  Te  Te175  1  0.91190122  0.42276573  0.58024359  1
  Te  Te176  1  0.88564992  0.45595565  0.94144317  1
  Te  Te177  1  0.90413435  0.74611183  0.24871424  1
  Te  Te178  1  0.90478381  0.77831895  0.56493141  1
  Te  Te179  1  0.88219100  0.76511617  0.88598442  1
