# generated using pymatgen
data_In2Te3
_symmetry_space_group_name_H-M   'P 1'
_cell_length_a   18.98773074
_cell_length_b   18.97964780
_cell_length_c   18.98364727
_cell_angle_alpha   89.81718262
_cell_angle_beta   90.17133116
_cell_angle_gamma   90.12040907
_symmetry_Int_Tables_number   1
_chemical_formula_structural   In2Te3
_chemical_formula_sum   'In72 Te108'
_cell_volume   6841.25480842
_cell_formula_units_Z   36
loop_
 _symmetry_equiv_pos_site_id
 _symmetry_equiv_pos_as_xyz
  1  'x, y, z'
loop_
 _atom_site_type_symbol
 _atom_site_label
 _atom_site_symmetry_multiplicity
 _atom_site_fract_x
 _atom_site_fract_y
 _atom_site_fract_z
 _atom_site_occupancy
  In  In0  1  0.50940576  0.14594486  -0.00389491  1
  In  In1  1  0.00901959  0.68806545  0.33268868  1
  In  In2  1  0.80334135  0.01107224  0.50206452  1
  In  In3  1  0.01417925  0.32996658  -0.00014630  1
  In  In4  1  0.52026860  -0.00329305  0.50829719  1
  In  In5  1  -0.00480793  0.51548053  0.83096479  1
  In  In6  1  0.65365980  -0.00836048  -0.03081765  1
  In  In7  1  0.13942795  0.03399878  0.79843203  1
  In  In8  1  0.84385371  0.68000002  0.82115201  1
  In  In9  1  0.52157971  0.47285632  0.33303844  1
  In  In10  1  0.66762256  0.67203857  0.36006342  1
  In  In11  1  0.16289938  0.00955130  0.19461826  1
  In  In12  1  -0.03788066  0.82600115  0.16840318  1
  In  In13  1  0.17511076  0.45411747  -0.01246032  1
  In  In14  1  0.84493104  0.50065173  -0.00197974  1
  In  In15  1  0.68752595  0.83325771  0.17595186  1
  In  In16  1  0.17924738  0.66500476  0.16097994  1
  In  In17  1  0.18995467  0.18434211  0.34412874  1
  In  In18  1  0.66158091  0.16111362  0.17278741  1
  In  In19  1  0.66867535  0.65581210  0.65625795  1
  In  In20  1  -0.02701739  -0.00645781  0.35217099  1
  In  In21  1  0.36089342  0.32041467  0.36611036  1
  In  In22  1  0.52518377  0.67443404  0.13233055  1
  In  In23  1  0.17311766  0.35867957  0.15667054  1
  In  In24  1  0.50301879  0.84933126  0.34885909  1
  In  In25  1  0.76307699  0.15745435  -0.11202365  1
  In  In26  1  0.66913605  0.44569645  0.84051215  1
  In  In27  1  0.18298170  0.68216202  0.50283814  1
  In  In28  1  -0.01565621  0.15412677  0.52114159  1
  In  In29  1  0.15672218  0.01514405  0.51024521  1
  In  In30  1  0.15729646  0.85060984  -0.02269537  1
  In  In31  1  -0.02823612  0.32493906  0.34168155  1
  In  In32  1  -0.00989991  0.50111186  0.52143363  1
  In  In33  1  0.33965529  0.83573592  0.81691671  1
  In  In34  1  0.52136904  0.15797124  0.64807000  1
  In  In35  1  0.48777192  0.30886778  0.17602828  1
  In  In36  1  0.81448335  0.48960474  0.68246682  1
  In  In37  1  0.80671867  0.48145668  0.35895441  1
  In  In38  1  0.34893868  -0.00614873  0.64206771  1
  In  In39  1  0.34792158  0.82007925  0.18210755  1
  In  In40  1  0.00868493  0.17208413  0.15632464  1
  In  In41  1  0.81374098  -0.01099098  0.15276557  1
  In  In42  1  0.50182693  0.32206510  0.80329640  1
  In  In43  1  0.15140802  0.50306064  0.36148992  1
  In  In44  1  0.47789070  0.81998387  -0.01560571  1
  In  In45  1  0.34828129  0.16228793  0.50681577  1
  In  In46  1  0.47129990  0.64591150  0.83594575  1
  In  In47  1  0.18392788  0.19675159  0.00280563  1
  In  In48  1  0.80561777  -0.00709129  0.81767814  1
  In  In49  1  0.84665578  0.33745457  0.15230237  1
  In  In50  1  0.19094668  0.48498753  0.64209086  1
  In  In51  1  0.68201446  0.68312470  -0.01002953  1
  In  In52  1  0.82030230  0.14859540  0.35068355  1
  In  In53  1  0.14048809  0.84192546  0.65721016  1
  In  In54  1  0.33506664  0.48607656  0.17438182  1
  In  In55  1  -0.02211855  0.32040309  0.68028604  1
  In  In56  1  0.16910690  0.32362588  0.83108122  1
  In  In57  1  0.49844910  0.49729129  0.66274751  1
  In  In58  1  0.00107130  0.64689324  0.00523936  1
  In  In59  1  0.82794766  0.83968328  0.65516812  1
  In  In60  1  0.32944878  -0.00781496  -0.00183879  1
  In  In61  1  -0.00697512  0.83930026  0.82245115  1
  In  In62  1  0.50822206  -0.01053495  0.16943149  1
  In  In63  1  0.33512154  0.16488497  0.80362671  1
  In  In64  1  0.36587723  0.66171896  0.33926458  1
  In  In65  1  0.17826610  0.85949470  0.36639737  1
  In  In66  1  0.66120773  0.50629957  0.15760369  1
  In  In67  1  0.50281411  0.66737590  0.50492912  1
  In  In68  1  0.53810954  0.32269317  0.51602036  1
  In  In69  1  0.33052832  0.34690246  -0.01086301  1
  In  In70  1  0.83392686  0.67825448  0.50367268  1
  In  In71  1  0.21051699  0.65280888  0.81322460  1
  Te  Te72  1  0.10417782  0.08641675  0.07792428  1
  Te  Te73  1  0.07416017  0.10307808  0.40045454  1
  Te  Te74  1  0.05205097  0.12478981  0.72273917  1
  Te  Te75  1  0.06283252  0.43867644  0.09194009  1
  Te  Te76  1  0.06537856  0.40200125  0.43412767  1
  Te  Te77  1  0.08204858  0.42401081  0.74687161  1
  Te  Te78  1  0.08765510  0.75707215  0.08162356  1
  Te  Te79  1  0.07716605  0.77209571  0.43777418  1
  Te  Te80  1  0.09395447  0.74366981  0.76409542  1
  Te  Te81  1  0.41188499  0.07916373  0.09128483  1
  Te  Te82  1  0.45138265  0.10030647  0.42526376  1
  Te  Te83  1  0.43345232  0.07055476  0.74232342  1
  Te  Te84  1  0.43028169  0.41588283  0.08213773  1
  Te  Te85  1  0.43366665  0.42411278  0.44369747  1
  Te  Te86  1  0.40665307  0.39689974  0.72055330  1
  Te  Te87  1  0.39629573  0.72597553  0.07362414  1
  Te  Te88  1  0.40660671  0.76883077  0.43414671  1
  Te  Te89  1  0.43196739  0.75220581  0.74173462  1
  Te  Te90  1  0.73427992  0.08276353  0.06588371  1
  Te  Te91  1  0.70682775  0.10533538  0.43464676  1
  Te  Te92  1  0.78225751  0.13164439  0.73655957  1
  Te  Te93  1  0.74404465  0.41300929  0.07053485  1
  Te  Te94  1  0.71837224  0.37759260  0.41364889  1
  Te  Te95  1  0.76793787  0.36917672  0.75908625  1
  Te  Te96  1  0.76582193  0.73866698  0.09681456  1
  Te  Te97  1  0.73432641  0.77136511  0.44451620  1
  Te  Te98  1  0.73847213  0.75696873  0.74795334  1
  Te  Te99  1  0.08514707  0.26737984  0.24656651  1
  Te  Te100  1  0.07497099  0.24187932  0.59979654  1
  Te  Te101  1  0.07397573  0.23024659  0.90353971  1
  Te  Te102  1  0.08569392  0.58561408  0.25126537  1
  Te  Te103  1  0.09321864  0.58937573  0.58612865  1
  Te  Te104  1  0.10494772  0.58155798  0.91302675  1
  Te  Te105  1  0.07195806  0.90889153  0.26175062  1
  Te  Te106  1  0.05763452  0.94069922  0.58690934  1
  Te  Te107  1  0.06819464  0.94612432  0.90286202  1
  Te  Te108  1  0.43707245  0.22523352  0.28667236  1
  Te  Te109  1  0.42169372  0.25932866  0.59635768  1
  Te  Te110  1  0.40713094  0.23493590  0.91909003  1
  Te  Te111  1  0.44075464  0.57591869  0.23939393  1
  Te  Te112  1  0.40813179  0.59143100  0.59015477  1
  Te  Te113  1  0.36852125  0.56688413  0.90020426  1
  Te  Te114  1  0.40382432  0.93054888  0.26580946  1
  Te  Te115  1  0.45500564  0.90300728  0.60286992  1
  Te  Te116  1  0.42768176  0.93457890  0.89962887  1
  Te  Te117  1  0.76827207  0.24418145  0.24246459  1
  Te  Te118  1  0.68607701  0.28875058  0.55229418  1
  Te  Te119  1  0.72923234  0.30155213  0.89420543  1
  Te  Te120  1  0.74067635  0.58150179  0.26256259  1
  Te  Te121  1  0.75186491  0.56622284  0.56720411  1
  Te  Te122  1  0.76007706  0.57871830  0.89768191  1
  Te  Te123  1  0.73438148  0.93861688  0.26598498  1
  Te  Te124  1  0.72321654  0.93369572  0.60502006  1
  Te  Te125  1  0.75752535  0.89244673  0.92422450  1
  Te  Te126  1  0.27391190  0.25957668  0.10603708  1
  Te  Te127  1  0.23893152  0.27184479  0.45716863  1
  Te  Te128  1  0.24984543  0.25817450  0.73006208  1
  Te  Te129  1  0.24744756  0.56112926  0.07652487  1
  Te  Te130  1  0.26551157  0.58295533  0.42185030  1
  Te  Te131  1  0.27987518  0.59119436  0.69920474  1
  Te  Te132  1  0.24858878  0.90576166  0.09521564  1
  Te  Te133  1  0.26666476  0.94584452  0.44234941  1
  Te  Te134  1  0.24077245  0.93235748  0.74811928  1
  Te  Te135  1  0.58517657  0.24990405  0.07498026  1
  Te  Te136  1  0.62249501  0.25267446  0.41174053  1
  Te  Te137  1  0.60117911  0.22564489  0.75400933  1
  Te  Te138  1  0.58601545  0.57331721  0.04242275  1
  Te  Te139  1  0.58965511  0.56504879  0.43275770  1
  Te  Te140  1  0.59475450  0.56965177  0.75798003  1
  Te  Te141  1  0.57714468  0.89010931  0.07770226  1
  Te  Te142  1  0.60987563  0.91479921  0.42199643  1
  Te  Te143  1  0.65451164  0.95140202  0.82038176  1
  Te  Te144  1  0.91041934  0.23554993  0.06031182  1
  Te  Te145  1  0.89042952  0.24876837  0.44084806  1
  Te  Te146  1  0.92266664  0.20442815  0.75803080  1
  Te  Te147  1  0.90025021  0.59485059  0.09656374  1
  Te  Te148  1  0.92052039  0.57993750  0.41039679  1
  Te  Te149  1  0.91996854  0.59202246  0.72444740  1
  Te  Te150  1  0.92349576  0.93073564  0.07706588  1
  Te  Te151  1  0.89079958  0.91136238  0.43812577  1
  Te  Te152  1  0.92000863  0.93353236  0.73252395  1
  Te  Te153  1  0.26325547  0.09094933  0.26091377  1
  Te  Te154  1  0.24749725  0.09771791  0.59943201  1
  Te  Te155  1  0.24582941  0.08509788  0.91058755  1
  Te  Te156  1  0.25488693  0.41284973  0.28053708  1
  Te  Te157  1  0.24564649  0.40902696  0.53217303  1
  Te  Te158  1  0.28084722  0.43917785  0.87595732  1
  Te  Te159  1  0.24467362  0.74663182  0.27280747  1
  Te  Te160  1  0.25122189  0.78228375  0.58392129  1
  Te  Te161  1  0.25745225  0.75569574  0.91694985  1
  Te  Te162  1  0.59663055  0.06284314  0.26020739  1
  Te  Te163  1  0.61733312  0.04950471  0.61417745  1
  Te  Te164  1  0.59836644  0.10647695  0.88299908  1
  Te  Te165  1  0.60225879  0.39109603  0.23800239  1
  Te  Te166  1  0.61283006  0.41290612  0.61297331  1
  Te  Te167  1  0.54963827  0.40677432  0.91282492  1
  Te  Te168  1  0.57361296  0.74561619  0.25531941  1
  Te  Te169  1  0.59655195  0.75607175  0.57565129  1
  Te  Te170  1  0.57685063  0.74522337  0.90071682  1
  Te  Te171  1  0.91765284  0.08588425  0.24178787  1
  Te  Te172  1  0.86719376  0.10632057  0.59937641  1
  Te  Te173  1  0.87838551  0.07310050  0.91988057  1
  Te  Te174  1  0.90911607  0.43019419  0.25388439  1
  Te  Te175  1  0.89361886  0.40241031  0.58421832  1
  Te  Te176  1  0.92227426  0.40709436  0.90569392  1
  Te  Te177  1  0.89455735  0.76164497  0.27817991  1
  Te  Te178  1  0.92292330  0.74255833  0.59993606  1
  Te  Te179  1  0.92373206  0.75234155  0.92676409  1
