# generated using pymatgen
data_In2Te3
_symmetry_space_group_name_H-M   'P 1'
_cell_length_a   18.86988111
_cell_length_b   18.85571452
_cell_length_c   18.85344010
_cell_angle_alpha   90.02344891
_cell_angle_beta   89.94912105
_cell_angle_gamma   90.13269612
_symmetry_Int_Tables_number   1
_chemical_formula_structural   In2Te3
_chemical_formula_sum   'In72 Te108'
_cell_volume   6708.12878542
_cell_formula_units_Z   36
loop_
 _symmetry_equiv_pos_site_id
 _symmetry_equiv_pos_as_xyz
  1  'x, y, z'
loop_
 _atom_site_type_symbol
 _atom_site_label
 _atom_site_symmetry_multiplicity
 _atom_site_fract_x
 _atom_site_fract_y
 _atom_site_fract_z
 _atom_site_occupancy
  In  In0  1  0.66965430  -0.00574469  -0.01019801  1
  In  In1  1  0.80462867  0.33371387  0.84107604  1
  In  In2  1  0.68347106  0.15779747  0.47372379  1
  In  In3  1  0.48328563  0.67154723  0.50129843  1
  In  In4  1  -0.01712994  0.67601354  0.32019626  1
  In  In5  1  0.52197114  0.67374946  0.84492098  1
  In  In6  1  -0.01075980  0.34137541  0.33623809  1
  In  In7  1  0.00448797  0.83581719  0.51173609  1
  In  In8  1  0.52152674  0.31970929  0.16369440  1
  In  In9  1  -0.01973999  0.52895055  0.50499044  1
  In  In10  1  0.81687722  0.83207301  0.30176656  1
  In  In11  1  0.35537644  0.33454832  0.33349210  1
  In  In12  1  -0.01909488  0.34259750  -0.00916045  1
  In  In13  1  0.66425616  0.68781468  0.33473490  1
  In  In14  1  0.32193318  -0.02979919  0.66492848  1
  In  In15  1  0.16794114  0.15158613  0.69323245  1
  In  In16  1  0.52065907  -0.00217205  0.81016803  1
  In  In17  1  0.83457506  0.00847198  0.49389626  1
  In  In18  1  0.81722801  0.84007802  0.00281987  1
  In  In19  1  -0.03577840  0.13697740  0.88503903  1
  In  In20  1  0.81121862  0.35486531  0.49849714  1
  In  In21  1  0.66583204  -0.00124854  0.67477988  1
  In  In22  1  0.66830092  0.66444549  0.65734742  1
  In  In23  1  0.12985842  0.70155029  0.13784121  1
  In  In24  1  0.67071489  0.16215591  0.85615427  1
  In  In25  1  0.33215830  0.00529465  0.00991886  1
  In  In26  1  0.46989964  -0.01610772  0.16855705  1
  In  In27  1  0.37394095  0.14102898  0.49936339  1
  In  In28  1  -0.01615612  0.83424062  0.86867329  1
  In  In29  1  0.34943703  0.66266196  -0.01121001  1
  In  In30  1  0.15427529  0.51609307  0.00008470  1
  In  In31  1  0.33661742  0.48397797  0.84175281  1
  In  In32  1  0.51753790  0.34351021  0.86249309  1
  In  In33  1  0.17903641  -0.00583220  0.15774041  1
  In  In34  1  0.01686239  0.16226075  0.47893824  1
  In  In35  1  0.65810564  0.50773069  0.15924452  1
  In  In36  1  0.51929619  0.81692434  -0.00117774  1
  In  In37  1  0.33596556  0.82595260  0.48737190  1
  In  In38  1  0.66619375  0.16143659  0.15095837  1
  In  In39  1  0.19230779  0.15144914  0.31865571  1
  In  In40  1  0.15854200  0.34813068  0.80757967  1
  In  In41  1  0.35019900  0.30287457  0.66282873  1
  In  In42  1  0.16970590  0.83674597  0.33338157  1
  In  In43  1  0.01474855  -0.00838489  0.67077048  1
  In  In44  1  0.14087686  0.67313110  0.84119735  1
  In  In45  1  0.82434225  0.14131603  0.31781976  1
  In  In46  1  0.34183960  0.48834685  0.17757533  1
  In  In47  1  0.51026492  0.16433832  0.33327384  1
  In  In48  1  0.50114606  0.81595397  0.66663776  1
  In  In49  1  0.18769310  0.16143409  -0.02696931  1
  In  In50  1  0.31788064  0.84098142  0.83477621  1
  In  In51  1  0.68633408  0.51946007  0.84449333  1
  In  In52  1  0.52131542  0.68188960  0.17893084  1
  In  In53  1  -0.01635393  0.52849195  0.16781762  1
  In  In54  1  0.01748522  0.34504825  0.70590064  1
  In  In55  1  0.16127253  0.33485785  0.49337076  1
  In  In56  1  0.81974076  0.34455247  0.15813236  1
  In  In57  1  0.81507424  0.18009955  0.66992716  1
  In  In58  1  0.15386188  0.49020551  0.67596908  1
  In  In59  1  0.49938491  0.16798037  0.67004584  1
  In  In60  1  0.33130905  0.66857153  0.32582817  1
  In  In61  1  0.82877350  0.50250946  0.67268628  1
  In  In62  1  -0.00893202  0.66608849  0.67349266  1
  In  In63  1  0.00665049  0.14333505  0.16822359  1
  In  In64  1  0.34385799  0.30984280  0.01483147  1
  In  In65  1  0.84337478  0.82739325  0.67559762  1
  In  In66  1  0.31755973  0.66665800  0.63695802  1
  In  In67  1  0.82315439  0.67573115  0.15062643  1
  In  In68  1  0.00393818  0.02169403  0.32229913  1
  In  In69  1  0.35191081  0.50014852  0.48809168  1
  In  In70  1  0.19339116  0.34662132  0.16830578  1
  In  In71  1  0.63901469  0.48579170  0.51756156  1
  Te  Te72  1  0.09213510  0.07953554  0.06209015  1
  Te  Te73  1  0.11427196  0.06490883  0.41981576  1
  Te  Te74  1  0.06780715  0.08060981  0.78339757  1
  Te  Te75  1  0.07730256  0.41562910  0.09853377  1
  Te  Te76  1  0.07415503  0.43520374  0.42103608  1
  Te  Te77  1  0.05929041  0.46446526  0.79201212  1
  Te  Te78  1  0.04339269  0.78051722  0.04578162  1
  Te  Te79  1  0.08141734  0.74386112  0.41608548  1
  Te  Te80  1  0.06806875  0.77097316  0.75213102  1
  Te  Te81  1  0.43025397  0.09164927  0.07583808  1
  Te  Te82  1  0.42638153  0.04945081  0.39226419  1
  Te  Te83  1  0.40793646  0.07411371  0.74378862  1
  Te  Te84  1  0.43016741  0.41677931  0.07882931  1
  Te  Te85  1  0.44736100  0.42432268  0.40606257  1
  Te  Te86  1  0.42602932  0.40378875  0.75024436  1
  Te  Te87  1  0.41592824  0.75229274  0.09028243  1
  Te  Te88  1  0.43836909  0.76922413  0.38838608  1
  Te  Te89  1  0.40565696  0.73532510  0.75547541  1
  Te  Te90  1  0.76420800  0.08712786  0.06276155  1
  Te  Te91  1  0.73013402  0.03434920  0.38378086  1
  Te  Te92  1  0.75978452  0.07595174  0.76686733  1
  Te  Te93  1  0.73586841  0.42147451  0.06311407  1
  Te  Te94  1  0.72020439  0.42382527  0.40833050  1
  Te  Te95  1  0.72685297  0.41184304  0.73687750  1
  Te  Te96  1  0.72134639  0.76417071  0.08961869  1
  Te  Te97  1  0.74855326  0.77637033  0.41869053  1
  Te  Te98  1  0.75066210  0.74155355  0.75209007  1
  Te  Te99  1  0.08483005  0.24830711  0.26101134  1
  Te  Te100  1  0.08794734  0.24460743  0.59394517  1
  Te  Te101  1  0.08109250  0.25681063  0.91195896  1
  Te  Te102  1  0.09462105  0.59766499  0.24470557  1
  Te  Te103  1  0.09314831  0.59520389  0.58435004  1
  Te  Te104  1  0.05635443  0.61203468  0.94704148  1
  Te  Te105  1  0.07701471  0.91581081  0.24085613  1
  Te  Te106  1  0.10184603  0.92923892  0.57100092  1
  Te  Te107  1  0.08134150  0.90334552  0.95674518  1
  Te  Te108  1  0.41425194  0.23631472  0.23638283  1
  Te  Te109  1  0.45303710  0.26515907  0.55041233  1
  Te  Te110  1  0.41639074  0.24438079  0.90608551  1
  Te  Te111  1  0.43372908  0.58083090  0.25639263  1
  Te  Te112  1  0.42749822  0.57110407  0.60252946  1
  Te  Te113  1  0.44040601  0.56403457  0.91986995  1
  Te  Te114  1  0.44143018  0.87069550  0.25983348  1
  Te  Te115  1  0.44077146  0.92474087  0.57572643  1
  Te  Te116  1  0.43628964  0.90528168  0.90568548  1
  Te  Te117  1  0.74207609  0.25125819  0.25275350  1
  Te  Te118  1  0.72397244  0.26150874  0.58283334  1
  Te  Te119  1  0.75356886  0.24343130  0.94798776  1
  Te  Te120  1  0.74834983  0.59072472  0.25270787  1
  Te  Te121  1  0.75475821  0.57911376  0.56571048  1
  Te  Te122  1  0.78882322  0.60109620  0.91478423  1
  Te  Te123  1  0.75237279  0.95047885  0.24635083  1
  Te  Te124  1  0.75429062  0.91518273  0.58296229  1
  Te  Te125  1  0.74306985  0.91050601  0.89395701  1
  Te  Te126  1  0.24967585  0.22510953  0.10074645  1
  Te  Te127  1  0.26385949  0.24347725  0.42712967  1
  Te  Te128  1  0.26247002  0.24204288  0.77187224  1
  Te  Te129  1  0.25874164  0.58391187  0.08871820  1
  Te  Te130  1  0.25900055  0.60030853  0.43516153  1
  Te  Te131  1  0.24808634  0.58154640  0.76440922  1
  Te  Te132  1  0.26905481  0.89915215  0.08877614  1
  Te  Te133  1  0.26744881  0.92459220  0.40255097  1
  Te  Te134  1  0.22056233  0.92550865  0.76356294  1
  Te  Te135  1  0.60407313  0.25784274  0.05658475  1
  Te  Te136  1  0.60876784  0.25600550  0.39364360  1
  Te  Te137  1  0.58887826  0.24804891  0.76003059  1
  Te  Te138  1  0.59303440  0.60921161  0.07003772  1
  Te  Te139  1  0.58027987  0.59146967  0.41838617  1
  Te  Te140  1  0.58154636  0.57517466  0.74546710  1
  Te  Te141  1  0.58568807  0.91700278  0.09057154  1
  Te  Te142  1  0.53894602  0.97173125  0.46218863  1
  Te  Te143  1  0.60463927  0.88253174  0.75779052  1
  Te  Te144  1  0.92040680  0.24816587  0.09444287  1
  Te  Te145  1  0.89839293  0.24105739  0.41863168  1
  Te  Te146  1  0.91613822  0.24425760  0.76583852  1
  Te  Te147  1  0.89410149  0.57808092  0.06216062  1
  Te  Te148  1  0.89694249  0.58517771  0.39888611  1
  Te  Te149  1  0.89822900  0.59447254  0.76486964  1
  Te  Te150  1  0.94078679  0.91879847  0.04690491  1
  Te  Te151  1  0.92605340  0.91976509  0.40970158  1
  Te  Te152  1  0.91484676  0.92744529  0.76542041  1
  Te  Te153  1  0.27945678  0.05752727  0.24913830  1
  Te  Te154  1  0.26049602  0.08826785  0.58730799  1
  Te  Te155  1  0.25453308  0.05638289  0.89474660  1
  Te  Te156  1  0.24533053  0.43068969  0.28189291  1
  Te  Te157  1  0.25474809  0.40782604  0.59433875  1
  Te  Te158  1  0.24061090  0.40638725  0.93534642  1
  Te  Te159  1  0.24282491  0.74988172  0.22959469  1
  Te  Te160  1  0.24104680  0.78234703  0.59373463  1
  Te  Te161  1  0.24048602  0.75000938  0.92935782  1
  Te  Te162  1  0.58060989  0.07015427  0.23671531  1
  Te  Te163  1  0.58550680  0.08044513  0.56934097  1
  Te  Te164  1  0.56101637  0.08478275  0.92759872  1
  Te  Te165  1  0.57774529  0.42350885  0.25112384  1
  Te  Te166  1  0.54021957  0.39454968  0.57686317  1
  Te  Te167  1  0.61816929  0.42473098  0.93893918  1
  Te  Te168  1  0.58241038  0.79347598  0.26227220  1
  Te  Te169  1  0.59402825  0.75835245  0.56122410  1
  Te  Te170  1  0.62288836  0.72292593  0.94370295  1
  Te  Te171  1  0.89301369  0.04795011  0.21718119  1
  Te  Te172  1  0.92166972  0.09562181  0.58822468  1
  Te  Te173  1  0.88499996  0.03856665  0.96287472  1
  Te  Te174  1  0.90031147  0.43196712  0.25409647  1
  Te  Te175  1  0.92905401  0.40574600  0.59031861  1
  Te  Te176  1  0.89773955  0.42830400  0.90649683  1
  Te  Te177  1  0.92553117  0.77064616  0.21635567  1
  Te  Te178  1  0.90514498  0.73663204  0.56880517  1
  Te  Te179  1  0.87680740  0.73291441  0.90995151  1
