# generated using pymatgen
data_In2Te3
_symmetry_space_group_name_H-M   'P 1'
_cell_length_a   19.01319385
_cell_length_b   18.99620507
_cell_length_c   19.00261519
_cell_angle_alpha   89.97024997
_cell_angle_beta   89.88265256
_cell_angle_gamma   90.07200544
_symmetry_Int_Tables_number   1
_chemical_formula_structural   In2Te3
_chemical_formula_sum   'In72 Te108'
_cell_volume   6863.31586341
_cell_formula_units_Z   36
loop_
 _symmetry_equiv_pos_site_id
 _symmetry_equiv_pos_as_xyz
  1  'x, y, z'
loop_
 _atom_site_type_symbol
 _atom_site_label
 _atom_site_symmetry_multiplicity
 _atom_site_fract_x
 _atom_site_fract_y
 _atom_site_fract_z
 _atom_site_occupancy
  In  In0  1  0.02647748  0.34219379  0.68005022  1
  In  In1  1  0.66944607  0.34935595  0.63813797  1
  In  In2  1  0.15300331  0.35332502  0.13805765  1
  In  In3  1  0.02351867  0.15988424  0.83564692  1
  In  In4  1  0.82319760  -0.00238914  0.48278684  1
  In  In5  1  0.33460842  0.17401479  0.49514767  1
  In  In6  1  0.15421639  0.50913823  0.34534217  1
  In  In7  1  0.82286323  0.81781410  0.34049229  1
  In  In8  1  0.34416917  0.47789976  0.51261034  1
  In  In9  1  0.67014377  -0.01942314  0.34017817  1
  In  In10  1  0.66608450  0.66798189  0.67498135  1
  In  In11  1  0.16695845  0.00925147  0.83783314  1
  In  In12  1  0.85708493  0.30007448  0.49990431  1
  In  In13  1  0.66869868  -0.02147206  0.64614129  1
  In  In14  1  -0.04049201  -0.01575036  0.02081382  1
  In  In15  1  0.66831155  0.82615343  0.85668408  1
  In  In16  1  0.13542578  0.17054566  -0.00137546  1
  In  In17  1  0.85101167  0.68000253  0.84750867  1
  In  In18  1  0.37438924  0.20004207  0.16049789  1
  In  In19  1  0.32740358  0.52734696  0.83457029  1
  In  In20  1  0.14481940  0.83481224  0.34846439  1
  In  In21  1  0.84161685  0.69210425  0.52252130  1
  In  In22  1  0.49826871  -0.00331019  0.84462170  1
  In  In23  1  0.66056063  0.15623068  0.81854624  1
  In  In24  1  0.00710331  0.83664222  0.82718994  1
  In  In25  1  0.32710017  0.00737419  0.00071933  1
  In  In26  1  0.16778971  0.84854440  0.68520450  1
  In  In27  1  0.33139029  0.33623805  0.66660388  1
  In  In28  1  0.13846733  -0.03004185  0.50632196  1
  In  In29  1  -0.02588311  0.18860433  0.16753490  1
  In  In30  1  0.52009071  -0.01834106  0.16924134  1
  In  In31  1  -0.01342991  0.52440361  0.51577988  1
  In  In32  1  0.49678351  0.65560876  0.50871773  1
  In  In33  1  0.18015931  0.19140495  0.65601973  1
  In  In34  1  0.33527355  0.66990555  0.31614006  1
  In  In35  1  0.16304058  0.00010297  0.19048888  1
  In  In36  1  -0.00470837  0.51562114  0.15547647  1
  In  In37  1  0.15470017  0.67065760  0.14902736  1
  In  In38  1  0.80204690  0.47388913  0.01341177  1
  In  In39  1  0.47060760  0.80930528  0.67899763  1
  In  In40  1  0.34006851  0.86664380  0.48597296  1
  In  In41  1  0.84108278  0.13384160  0.65596313  1
  In  In42  1  -0.02388579  -0.02201540  0.65756436  1
  In  In43  1  -0.01006521  0.34874336  0.33414682  1
  In  In44  1  0.02267159  0.53976532  0.84503373  1
  In  In45  1  0.34110264  0.34819510  -0.01277408  1
  In  In46  1  0.85157688  0.50585908  0.70570159  1
  In  In47  1  0.66784978  0.67443979  0.00203339  1
  In  In48  1  0.64019861  0.49587225  0.82510480  1
  In  In49  1  0.50000488  0.48757226  0.01122686  1
  In  In50  1  0.51509423  0.17426142  0.32607122  1
  In  In51  1  0.36529377  0.00279690  0.29658531  1
  In  In52  1  0.50879233  0.13677570  0.65763233  1
  In  In53  1  0.68154934  0.30620030  0.31538859  1
  In  In54  1  0.30814861  0.52201154  0.15969702  1
  In  In55  1  0.50625510  0.67138375  0.17087615  1
  In  In56  1  0.15957539  0.67803826  0.50979876  1
  In  In57  1  0.68621817  -0.00480757  0.00832052  1
  In  In58  1  0.84320358  0.16995780  -0.00022093  1
  In  In59  1  -0.00610162  -0.00013073  0.32749492  1
  In  In60  1  0.51000533  0.51357644  0.64846150  1
  In  In61  1  0.85859956  0.32676849  0.84662653  1
  In  In62  1  0.34334434  0.01297785  0.67347339  1
  In  In63  1  0.67862520  0.50907635  0.47922272  1
  In  In64  1  0.18660601  0.18529747  0.34521043  1
  In  In65  1  0.66635967  0.82545286  0.16592906  1
  In  In66  1  0.84060303  0.49549472  0.31270759  1
  In  In67  1  0.49247402  0.32677210  0.84237037  1
  In  In68  1  0.80791612  0.67314085  0.18133938  1
  In  In69  1  0.16074226  0.79641612  -0.03763954  1
  In  In70  1  0.35319409  0.84219997  0.15074485  1
  In  In71  1  0.52429368  0.32932138  0.19237223  1
  Te  Te72  1  0.06585168  0.07804006  0.09934981  1
  Te  Te73  1  0.09602211  0.07945767  0.40729652  1
  Te  Te74  1  0.08649482  0.06797515  0.72366683  1
  Te  Te75  1  0.09122266  0.45829192  0.05478205  1
  Te  Te76  1  0.07138778  0.42329826  0.43688988  1
  Te  Te77  1  0.09379499  0.44745588  0.75494401  1
  Te  Te78  1  0.06357242  0.75207759  0.06435393  1
  Te  Te79  1  0.06360819  0.73489741  0.41589789  1
  Te  Te80  1  0.10902267  0.74289524  0.77133916  1
  Te  Te81  1  0.42802573  0.07597378  0.09165957  1
  Te  Te82  1  0.42319438  0.08255634  0.41072969  1
  Te  Te83  1  0.41523565  0.10234909  0.77077375  1
  Te  Te84  1  0.40795378  0.41276805  0.10905151  1
  Te  Te85  1  0.37809083  0.37552279  0.41462088  1
  Te  Te86  1  0.43073567  0.42926989  0.74838753  1
  Te  Te87  1  0.40622498  0.72789956  0.08000463  1
  Te  Te88  1  0.41039214  0.74875102  0.42293652  1
  Te  Te89  1  0.36403912  0.74089078  0.75666516  1
  Te  Te90  1  0.76115242  0.08974681  0.09143935  1
  Te  Te91  1  0.74508649  0.08956676  0.40079953  1
  Te  Te92  1  0.75003714  0.05762972  0.74903631  1
  Te  Te93  1  0.72482369  0.36838196  0.08531672  1
  Te  Te94  1  0.77325184  0.40325232  0.41807394  1
  Te  Te95  1  0.74725817  0.39618398  0.76116112  1
  Te  Te96  1  0.76544022  0.77129136  0.06161258  1
  Te  Te97  1  0.73837445  0.73746863  0.43107437  1
  Te  Te98  1  0.75850108  0.75602913  0.75385227  1
  Te  Te99  1  0.09220620  0.26086645  0.25000635  1
  Te  Te100  1  0.07928382  0.25573636  0.57419655  1
  Te  Te101  1  0.06573107  0.27283160  0.91913670  1
  Te  Te102  1  0.07082112  0.59815256  0.25661007  1
  Te  Te103  1  0.09482380  0.57834478  0.59695026  1
  Te  Te104  1  0.11362423  0.58333601  0.95422486  1
  Te  Te105  1  0.06146081  0.89640347  0.23684775  1
  Te  Te106  1  0.04761215  0.86481124  0.58292419  1
  Te  Te107  1  0.08134012  0.92942011  0.93295988  1
  Te  Te108  1  0.40353370  0.27703019  0.28850767  1
  Te  Te109  1  0.42848401  0.24453085  0.58904166  1
  Te  Te110  1  0.43279163  0.24290500  0.94544801  1
  Te  Te111  1  0.42142506  0.56573814  0.25096031  1
  Te  Te112  1  0.39300816  0.59574379  0.60004856  1
  Te  Te113  1  0.42988778  0.58075858  0.92387841  1
  Te  Te114  1  0.45681759  0.88020013  0.26804702  1
  Te  Te115  1  0.43511172  0.92657430  0.58868836  1
  Te  Te116  1  0.40784061  0.91261888  0.92442003  1
  Te  Te117  1  0.74856260  0.25488400  0.19288000  1
  Te  Te118  1  0.74838523  0.23342388  0.58413655  1
  Te  Te119  1  0.74632087  0.24436727  0.90878475  1
  Te  Te120  1  0.73104959  0.56870629  0.25039396  1
  Te  Te121  1  0.75077019  0.56386547  0.60640036  1
  Te  Te122  1  0.74655771  0.57505701  0.90149896  1
  Te  Te123  1  0.77296820  0.91667188  0.23037479  1
  Te  Te124  1  0.75483361  0.89541192  0.56309530  1
  Te  Te125  1  0.76569605  0.91935978  0.91132746  1
  Te  Te126  1  0.24396261  0.24549943  0.08233278  1
  Te  Te127  1  0.24326600  0.28023850  0.44481176  1
  Te  Te128  1  0.24985592  0.25892868  0.76296345  1
  Te  Te129  1  0.24016045  0.59537669  0.04857891  1
  Te  Te130  1  0.26041600  0.58600924  0.42031839  1
  Te  Te131  1  0.24461947  0.64073328  0.77861954  1
  Te  Te132  1  0.23642384  0.91737280  0.08567386  1
  Te  Te133  1  0.25205907  0.93864611  0.38605146  1
  Te  Te134  1  0.27118143  0.92316107  0.77080668  1
  Te  Te135  1  0.61729439  0.24975888  0.10833222  1
  Te  Te136  1  0.59667227  0.24888433  0.42075328  1
  Te  Te137  1  0.58479419  0.26012823  0.73671332  1
  Te  Te138  1  0.59459981  0.57574811  0.09093318  1
  Te  Te139  1  0.55747220  0.56053790  0.41491709  1
  Te  Te140  1  0.55802521  0.60565200  0.76021937  1
  Te  Te141  1  0.57962587  0.89555122  0.06297814  1
  Te  Te142  1  0.55642409  0.90247999  0.38176149  1
  Te  Te143  1  0.57274835  0.90452042  0.75015139  1
  Te  Te144  1  0.94161885  0.26955206  0.04965004  1
  Te  Te145  1  0.91861558  0.23131270  0.38662958  1
  Te  Te146  1  0.92034927  0.23535652  0.74063276  1
  Te  Te147  1  0.88420862  0.58286497  0.07890714  1
  Te  Te148  1  0.89455312  0.59029526  0.41781760  1
  Te  Te149  1  0.93781089  0.62419244  0.73447408  1
  Te  Te150  1  0.87033472  0.90833165  0.10730351  1
  Te  Te151  1  0.92303860  0.90285420  0.41761538  1
  Te  Te152  1  0.89846927  0.90460309  0.75601164  1
  Te  Te153  1  0.26438311  0.10927747  0.23767852  1
  Te  Te154  1  0.24469772  0.06696164  0.57290495  1
  Te  Te155  1  0.24793344  0.10855127  0.91633334  1
  Te  Te156  1  0.23137726  0.42321675  0.24926505  1
  Te  Te157  1  0.24042685  0.43179129  0.60446127  1
  Te  Te158  1  0.25197406  0.41593175  0.89530108  1
  Te  Te159  1  0.24248351  0.76431368  0.24299631  1
  Te  Te160  1  0.25039486  0.78238105  0.57558930  1
  Te  Te161  1  0.27840623  0.74351877  0.89257953  1
  Te  Te162  1  0.60243319  0.08131504  0.24485608  1
  Te  Te163  1  0.59556356  0.07188997  0.56184104  1
  Te  Te164  1  0.58629318  0.08600796  0.92779774  1
  Te  Te165  1  0.59854280  0.42163910  0.27707364  1
  Te  Te166  1  0.57167163  0.41911002  0.54783503  1
  Te  Te167  1  0.59423204  0.39875559  0.93125675  1
  Te  Te168  1  0.59768364  0.73972651  0.26343605  1
  Te  Te169  1  0.57961434  0.75460125  0.58713756  1
  Te  Te170  1  0.56894640  0.73489355  0.91388734  1
  Te  Te171  1  0.90647893  0.09233909  0.25364931  1
  Te  Te172  1  0.93514040  0.07927956  0.55348719  1
  Te  Te173  1  0.92071261  0.07509381  0.90628572  1
  Te  Te174  1  0.91271185  0.40296010  0.21691677  1
  Te  Te175  1  0.90412858  0.41320193  0.59806147  1
  Te  Te176  1  0.91741762  0.44647956  0.91469339  1
  Te  Te177  1  0.91349329  0.73884266  0.25623496  1
  Te  Te178  1  0.95134929  0.74235312  0.60097529  1
  Te  Te179  1  0.93945207  0.75832821  0.93452846  1
