# generated using pymatgen
data_In2Te3
_symmetry_space_group_name_H-M   'P 1'
_cell_length_a   18.90432773
_cell_length_b   18.91252806
_cell_length_c   18.92422479
_cell_angle_alpha   89.90195004
_cell_angle_beta   90.06954853
_cell_angle_gamma   90.12873292
_symmetry_Int_Tables_number   1
_chemical_formula_structural   In2Te3
_chemical_formula_sum   'In72 Te108'
_cell_volume   6765.92019761
_cell_formula_units_Z   36
loop_
 _symmetry_equiv_pos_site_id
 _symmetry_equiv_pos_as_xyz
  1  'x, y, z'
loop_
 _atom_site_type_symbol
 _atom_site_label
 _atom_site_symmetry_multiplicity
 _atom_site_fract_x
 _atom_site_fract_y
 _atom_site_fract_z
 _atom_site_occupancy
  In  In0  1  0.16126172  0.85280199  -0.02457962  1
  In  In1  1  0.15769713  -0.00887741  0.14032389  1
  In  In2  1  0.50080548  0.84190122  0.35384802  1
  In  In3  1  0.50468132  0.85004485  0.64178004  1
  In  In4  1  0.29953809  0.66488313  0.67023133  1
  In  In5  1  0.50102678  0.17590621  0.01013686  1
  In  In6  1  0.34820207  0.00662994  0.32956365  1
  In  In7  1  0.67178150  0.49198803  0.85566647  1
  In  In8  1  0.16374377  0.80083460  0.34303926  1
  In  In9  1  -0.00705580  0.84121755  0.16792074  1
  In  In10  1  0.32647929  0.32159290  0.01786871  1
  In  In11  1  0.00873679  0.81826527  0.49140327  1
  In  In12  1  0.13448462  0.19051769  0.30813997  1
  In  In13  1  0.68513928  0.85738363  0.49286236  1
  In  In14  1  0.68646005  0.33880483  0.65517807  1
  In  In15  1  0.51686341  0.16273194  0.30443847  1
  In  In16  1  0.86078730  0.12647899  0.65474351  1
  In  In17  1  0.84147711  0.34069501  0.84728079  1
  In  In18  1  0.67095094  0.31797291  0.01480840  1
  In  In19  1  0.32856986  0.15848806  0.15588299  1
  In  In20  1  0.15183341  0.84234577  0.66320896  1
  In  In21  1  0.85233124  0.33747309  0.47961860  1
  In  In22  1  0.33122906  0.83194086  0.53223248  1
  In  In23  1  0.81865716  0.00386856  0.83701292  1
  In  In24  1  0.87591390  0.49555472  -0.00098740  1
  In  In25  1  0.51880851  0.69474304  0.48614569  1
  In  In26  1  0.30425462  0.64938798  0.30837036  1
  In  In27  1  0.31960774  0.66284534  0.00469348  1
  In  In28  1  0.14652828  -0.01790416  0.50203647  1
  In  In29  1  -0.00525005  0.50377374  0.50172478  1
  In  In30  1  0.13374637  0.50703713  0.29987026  1
  In  In31  1  0.52047409  0.48617853  0.33174681  1
  In  In32  1  -0.00806933  0.01730659  0.32189566  1
  In  In33  1  0.69940271  0.69659112  0.03654788  1
  In  In34  1  0.84861101  0.31281341  0.16695830  1
  In  In35  1  0.48229788  0.34716547  0.82583561  1
  In  In36  1  0.32208621  0.48816186  0.17471188  1
  In  In37  1  0.50316909  0.83388420  -0.01654446  1
  In  In38  1  0.34401261  0.50816734  0.49463899  1
  In  In39  1  0.52509701  0.67537531  0.15778609  1
  In  In40  1  0.30726128  0.14881628  0.48628898  1
  In  In41  1  -0.00017301  0.65411625  0.66049721  1
  In  In42  1  0.68601584  0.01598248  0.02018406  1
  In  In43  1  0.50332590  0.50830276  0.67683206  1
  In  In44  1  0.13424270  0.16317592  0.00684935  1
  In  In45  1  0.29150152  0.14560228  0.83224740  1
  In  In46  1  -0.00283713  0.67412585  0.01183225  1
  In  In47  1  0.84598993  0.82157762  0.31462507  1
  In  In48  1  0.86631429  0.65542555  0.83535626  1
  In  In49  1  0.01549700  0.35722283  0.67535442  1
  In  In50  1  0.30971776  -0.03319053  0.65786459  1
  In  In51  1  0.49495476  0.31400924  0.49122745  1
  In  In52  1  0.84931556  0.17303614  0.32793619  1
  In  In53  1  0.15101328  0.31922245  0.50716500  1
  In  In54  1  0.49128143  0.01097270  0.83698133  1
  In  In55  1  0.75011896  0.54558621  0.50578126  1
  In  In56  1  0.68499932  0.80798127  0.81783983  1
  In  In57  1  0.51745731  0.00574753  0.17213475  1
  In  In58  1  0.68221196  0.15778391  0.47166866  1
  In  In59  1  0.51299194  0.33387996  0.16952891  1
  In  In60  1  -0.00223854  0.15250106  0.82873248  1
  In  In61  1  0.67914144  -0.00189646  0.65363992  1
  In  In62  1  0.67798071  0.64713181  0.31421586  1
  In  In63  1  0.12766837  0.47416884  0.02870932  1
  In  In64  1  0.29884213  0.51256650  0.85020505  1
  In  In65  1  0.84147195  0.50197687  0.32239410  1
  In  In66  1  0.84964936  0.18204856  -0.00026191  1
  In  In67  1  0.28508441  0.31791054  0.68587208  1
  In  In68  1  0.30620965  0.82564631  0.81422531  1
  In  In69  1  0.50109027  0.18031297  0.66893008  1
  In  In70  1  -0.00996273  0.84793495  0.84127977  1
  In  In71  1  0.48545601  0.65032943  0.82569666  1
  Te  Te72  1  0.05238679  0.09035191  0.11029094  1
  Te  Te73  1  0.08536886  0.09412005  0.41538196  1
  Te  Te74  1  0.11484366  0.09090910  0.76412329  1
  Te  Te75  1  0.04785768  0.38604101  0.11907810  1
  Te  Te76  1  0.07927495  0.41529619  0.41360270  1
  Te  Te77  1  0.10835214  0.44884342  0.74100581  1
  Te  Te78  1  0.09437957  0.76557052  0.08369695  1
  Te  Te79  1  0.06020053  0.71206974  0.40085582  1
  Te  Te80  1  0.07397769  0.75354331  0.75630926  1
  Te  Te81  1  0.41631931  0.06705544  0.07352546  1
  Te  Te82  1  0.43099171  0.09857940  0.41702210  1
  Te  Te83  1  0.40170879  0.08243239  0.73511896  1
  Te  Te84  1  0.42147043  0.42048819  0.08261503  1
  Te  Te85  1  0.41166994  0.40715098  0.40350016  1
  Te  Te86  1  0.38664081  0.43377315  0.74278074  1
  Te  Te87  1  0.41788994  0.75136687  0.07964160  1
  Te  Te88  1  0.39335380  0.74425289  0.41660049  1
  Te  Te89  1  0.41958493  0.75787835  0.73732588  1
  Te  Te90  1  0.77022286  0.10614715  0.09908849  1
  Te  Te91  1  0.78281574  0.07060933  0.41324240  1
  Te  Te92  1  0.74195723  0.10008670  0.74673115  1
  Te  Te93  1  0.77333199  0.41009693  0.07585106  1
  Te  Te94  1  0.74278801  0.42292680  0.41940450  1
  Te  Te95  1  0.76198246  0.43061380  0.75036087  1
  Te  Te96  1  0.78609274  0.77835824  0.12406053  1
  Te  Te97  1  0.74788940  0.75011543  0.40641465  1
  Te  Te98  1  0.78613400  0.73682619  0.73612664  1
  Te  Te99  1  0.04047954  0.28173861  0.23857868  1
  Te  Te100  1  0.04820408  0.24509837  0.58442434  1
  Te  Te101  1  0.05841041  0.25627607  0.91881015  1
  Te  Te102  1  0.03932051  0.59537087  0.22844419  1
  Te  Te103  1  0.09559383  0.58588365  0.57174577  1
  Te  Te104  1  0.07291185  0.57321850  0.93336703  1
  Te  Te105  1  0.09548401  0.91648974  0.26651118  1
  Te  Te106  1  0.04158929  0.93371730  0.60515089  1
  Te  Te107  1  0.04933831  0.94143827  0.94049624  1
  Te  Te108  1  0.40841743  0.25171378  0.24524584  1
  Te  Te109  1  0.39206223  0.25140297  0.58733813  1
  Te  Te110  1  0.40500206  0.24077766  0.90444999  1
  Te  Te111  1  0.43025411  0.58747827  0.25148019  1
  Te  Te112  1  0.42150112  0.60298424  0.58810037  1
  Te  Te113  1  0.41592064  0.56802017  0.93121561  1
  Te  Te114  1  0.42055071  0.90788089  0.24211131  1
  Te  Te115  1  0.42720749  0.94738042  0.55854239  1
  Te  Te116  1  0.39905028  0.91125456  0.90402825  1
  Te  Te117  1  0.75160117  0.26476919  0.26506427  1
  Te  Te118  1  0.76818431  0.23928735  0.57514311  1
  Te  Te119  1  0.74337100  0.24043804  0.90727431  1
  Te  Te120  1  0.77392481  0.58697424  0.22196063  1
  Te  Te121  1  0.80081662  0.62745957  0.61711916  1
  Te  Te122  1  0.76361240  0.58547345  0.93550669  1
  Te  Te123  1  0.77324494  0.90669028  0.21532666  1
  Te  Te124  1  0.78087470  0.91808264  0.58740553  1
  Te  Te125  1  0.73520827  0.90720709  0.91989166  1
  Te  Te126  1  0.22355577  0.25333821  0.10254970  1
  Te  Te127  1  0.24198030  0.25366741  0.40165109  1
  Te  Te128  1  0.18975227  0.22917781  0.75973101  1
  Te  Te129  1  0.23034579  0.57319384  0.08942540  1
  Te  Te130  1  0.23264325  0.56743759  0.41006446  1
  Te  Te131  1  0.20941735  0.56939639  0.74197333  1
  Te  Te132  1  0.25639254  0.90647392  0.07500873  1
  Te  Te133  1  0.25943312  0.91762042  0.41947840  1
  Te  Te134  1  0.21167117  0.93660240  0.77164899  1
  Te  Te135  1  0.60179967  0.22339160  0.11218143  1
  Te  Te136  1  0.59610761  0.25851680  0.39417997  1
  Te  Te137  1  0.59013755  0.26810038  0.75411036  1
  Te  Te138  1  0.60625037  0.58905981  0.07288866  1
  Te  Te139  1  0.59498225  0.57615551  0.43367797  1
  Te  Te140  1  0.60527356  0.58904751  0.75300081  1
  Te  Te141  1  0.59231360  0.90855478  0.08117825  1
  Te  Te142  1  0.59365732  0.94094761  0.41133960  1
  Te  Te143  1  0.58271516  0.91512964  0.75999960  1
  Te  Te144  1  0.94990352  0.28353013  0.04966915  1
  Te  Te145  1  0.94366908  0.23835926  0.42398808  1
  Te  Te146  1  0.90675355  0.24719656  0.74484997  1
  Te  Te147  1  0.93546135  0.57694082  0.11167608  1
  Te  Te148  1  0.88426888  0.58895480  0.43868948  1
  Te  Te149  1  0.95889594  0.55922516  0.76985572  1
  Te  Te150  1  0.88039330  0.90936802  0.10062390  1
  Te  Te151  1  0.92258817  0.91345919  0.40927480  1
  Te  Te152  1  0.90494406  0.92555935  0.74812145  1
  Te  Te153  1  0.23853531  0.08273501  0.25494930  1
  Te  Te154  1  0.22656810  0.07904639  0.59142357  1
  Te  Te155  1  0.24689703  0.08232019  0.95544504  1
  Te  Te156  1  0.23109798  0.40680176  0.25394050  1
  Te  Te157  1  0.24984979  0.41516135  0.57474709  1
  Te  Te158  1  0.23239516  0.40452060  0.93174940  1
  Te  Te159  1  0.24192610  0.75373104  0.22880897  1
  Te  Te160  1  0.21531205  0.74058320  0.56768153  1
  Te  Te161  1  0.23052074  0.73059886  0.90218309  1
  Te  Te162  1  0.61289568  0.05413460  0.27425396  1
  Te  Te163  1  0.58838180  0.09609438  0.57966918  1
  Te  Te164  1  0.58851122  0.08978658  0.92030044  1
  Te  Te165  1  0.60565404  0.43134015  0.22766603  1
  Te  Te166  1  0.57191848  0.41027722  0.58342012  1
  Te  Te167  1  0.57313615  0.40549884  0.93251265  1
  Te  Te168  1  0.59411653  0.76256380  0.26030306  1
  Te  Te169  1  0.60815433  0.75456927  0.59067347  1
  Te  Te170  1  0.59013713  0.73010903  0.91325028  1
  Te  Te171  1  0.92592357  0.10085032  0.21799514  1
  Te  Te172  1  0.97115933  0.07147433  0.57859198  1
  Te  Te173  1  0.92118449  0.06683539  0.93096756  1
  Te  Te174  1  0.93090175  0.39579343  0.26610597  1
  Te  Te175  1  0.90430219  0.42355395  0.59432215  1
  Te  Te176  1  0.95361678  0.42765903  0.89308030  1
  Te  Te177  1  0.95594642  0.72850655  0.26612255  1
  Te  Te178  1  0.91074073  0.74275238  0.57590688  1
  Te  Te179  1  0.90198940  0.76397510  0.93473102  1
