# generated using pymatgen
data_In2Te3
_symmetry_space_group_name_H-M   'P 1'
_cell_length_a   19.02434164
_cell_length_b   19.04204609
_cell_length_c   19.00468040
_cell_angle_alpha   89.75446150
_cell_angle_beta   89.93761866
_cell_angle_gamma   90.12138270
_symmetry_Int_Tables_number   1
_chemical_formula_structural   In2Te3
_chemical_formula_sum   'In72 Te108'
_cell_volume   6884.59813414
_cell_formula_units_Z   36
loop_
 _symmetry_equiv_pos_site_id
 _symmetry_equiv_pos_as_xyz
  1  'x, y, z'
loop_
 _atom_site_type_symbol
 _atom_site_label
 _atom_site_symmetry_multiplicity
 _atom_site_fract_x
 _atom_site_fract_y
 _atom_site_fract_z
 _atom_site_occupancy
  In  In0  1  0.67330243  0.50491743  0.16789948  1
  In  In1  1  0.50855825  0.16968615  0.32437396  1
  In  In2  1  0.85834020  0.82748379  0.66216470  1
  In  In3  1  0.84021584  0.46156980  -0.01233354  1
  In  In4  1  0.85546044  0.84874424  -0.01344628  1
  In  In5  1  0.51059088  0.34290756  0.16437830  1
  In  In6  1  0.01690942  0.01270608  0.36116682  1
  In  In7  1  0.81641617  0.17381043  0.02062181  1
  In  In8  1  0.46340783  0.32590595  0.53884613  1
  In  In9  1  0.67131258  0.17307496  0.46760185  1
  In  In10  1  0.35644587  0.84270388  0.49891255  1
  In  In11  1  0.12799647  0.35330737  0.14378426  1
  In  In12  1  0.84384301  0.32530307  0.47492904  1
  In  In13  1  0.50714948  0.84631749  0.33166127  1
  In  In14  1  0.86922468  -0.02918178  0.18964774  1
  In  In15  1  0.70107640  0.69159133  0.64553134  1
  In  In16  1  0.30819675  0.35160990  -0.01082518  1
  In  In17  1  0.18719926  0.34181536  0.80290731  1
  In  In18  1  0.02894648  0.34151449  0.35817802  1
  In  In19  1  0.31114544  0.63701673  0.00119860  1
  In  In20  1  0.33309671  0.00233264  0.32556912  1
  In  In21  1  0.66627184  0.68869358  -0.01928185  1
  In  In22  1  0.03987854  0.49316518  0.51044561  1
  In  In23  1  0.65946832  0.83016118  0.81569107  1
  In  In24  1  0.46591672  0.33816433  0.79008138  1
  In  In25  1  0.87796497  0.33110492  0.18165615  1
  In  In26  1  0.84809763  0.17138570  0.32651331  1
  In  In27  1  -0.00114008  0.00748779  -0.01990887  1
  In  In28  1  0.48214248  0.52168414  0.67565271  1
  In  In29  1  0.67619803  0.02110106  0.65903051  1
  In  In30  1  0.19440167  0.16476384  -0.04538848  1
  In  In31  1  0.16523896  0.00665809  0.16004335  1
  In  In32  1  0.30674370  0.67842266  0.67674899  1
  In  In33  1  0.15751666  0.83163811  0.69624984  1
  In  In34  1  0.68576592  0.83977003  0.49055213  1
  In  In35  1  0.83925228  0.63796355  0.13613789  1
  In  In36  1  0.08672226  0.06615686  0.60523261  1
  In  In37  1  0.83088423  0.47408424  0.64747875  1
  In  In38  1  0.48868731  -0.00279563  0.50501243  1
  In  In39  1  0.05478785  0.79718936  0.18415516  1
  In  In40  1  0.67339420  0.86925044  0.15837956  1
  In  In41  1  0.68044137  0.32705283  0.33033755  1
  In  In42  1  0.47035064  0.65112775  0.18096724  1
  In  In43  1  0.32795506  0.85538197  0.85600134  1
  In  In44  1  0.65042371  0.02333238  0.01602590  1
  In  In45  1  0.34528037  0.32686142  0.35398571  1
  In  In46  1  0.16433294  0.81739518  0.00343557  1
  In  In47  1  0.52316660  0.68515412  0.51073305  1
  In  In48  1  0.49790994  0.53655537  -0.03424925  1
  In  In49  1  0.47242804  0.13797447  0.69405112  1
  In  In50  1  0.16729329  0.17267810  0.34980382  1
  In  In51  1  0.02596658  0.63888314  0.36525000  1
  In  In52  1  0.87363036  0.81146570  0.34429047  1
  In  In53  1  0.63667713  0.33028897  -0.02156739  1
  In  In54  1  0.13196048  0.63094172  0.83418252  1
  In  In55  1  0.66979759  0.51306379  0.79321730  1
  In  In56  1  0.47407648  0.67254323  0.83949547  1
  In  In57  1  0.28952978  0.79480948  0.19187238  1
  In  In58  1  0.48735605  0.15823025  -0.01090714  1
  In  In59  1  0.04780904  0.21735875  0.75093816  1
  In  In60  1  0.86553975  0.63551776  0.85424321  1
  In  In61  1  -0.00941491  0.82809770  0.83891948  1
  In  In62  1  0.48910422  0.02627082  0.16546878  1
  In  In63  1  0.46890431  0.90512049  0.67914257  1
  In  In64  1  0.32520209  0.48417804  0.16057255  1
  In  In65  1  0.65373849  0.33074896  0.64616081  1
  In  In66  1  0.80365494  0.01982232  0.83413620  1
  In  In67  1  -0.01980173  0.43693060  0.81793934  1
  In  In68  1  0.47424636  0.49622481  0.37554992  1
  In  In69  1  0.01386672  0.81158165  0.50525400  1
  In  In70  1  0.17477494  0.49824468  0.34201028  1
  In  In71  1  0.67832291  0.67741328  0.31654855  1
  Te  Te72  1  0.09776059  0.09202851  0.05562669  1
  Te  Te73  1  0.12336812  0.06785863  0.45075579  1
  Te  Te74  1  0.06616726  0.06869691  0.75698175  1
  Te  Te75  1  0.05816051  0.43393633  0.04338030  1
  Te  Te76  1  0.13864952  0.39429349  0.44574803  1
  Te  Te77  1  0.09733525  0.43928236  0.71411651  1
  Te  Te78  1  0.10794867  0.70571446  0.08297277  1
  Te  Te79  1  0.10099208  0.76413111  0.39254566  1
  Te  Te80  1  0.05614620  0.72929718  0.74622171  1
  Te  Te81  1  0.39315558  0.09603588  0.08261188  1
  Te  Te82  1  0.41343943  0.09407159  0.41500567  1
  Te  Te83  1  0.40108895  0.07246222  0.80757351  1
  Te  Te84  1  0.43519200  0.43378028  0.06822557  1
  Te  Te85  1  0.37431604  0.42812236  0.46593967  1
  Te  Te86  1  0.37785889  0.42927415  0.71839247  1
  Te  Te87  1  0.39031979  0.73409059  0.08510194  1
  Te  Te88  1  0.42703448  0.74374993  0.40724427  1
  Te  Te89  1  0.41426077  0.77761505  0.73963810  1
  Te  Te90  1  0.77199480  0.05190866  0.10019146  1
  Te  Te91  1  0.77026936  0.08262017  0.41327881  1
  Te  Te92  1  0.76779779  0.11236347  0.72668529  1
  Te  Te93  1  0.73171373  0.40048032  0.07793887  1
  Te  Te94  1  0.74850466  0.42016070  0.41681277  1
  Te  Te95  1  0.74487321  0.39256780  0.75043039  1
  Te  Te96  1  0.75462214  0.75822176  0.08332855  1
  Te  Te97  1  0.76872406  0.73335346  0.42414811  1
  Te  Te98  1  0.77663903  0.74100958  0.77552545  1
  Te  Te99  1  0.08335510  0.25272736  0.24877754  1
  Te  Te100  1  0.06845515  0.24964467  0.60044097  1
  Te  Te101  1  0.09432938  0.25632566  0.89389059  1
  Te  Te102  1  0.05639987  0.53822447  0.26276477  1
  Te  Te103  1  0.14693558  0.59041301  0.54850913  1
  Te  Te104  1  0.06178957  0.52463498  0.91489703  1
  Te  Te105  1  0.09111712  0.92106405  0.26049872  1
  Te  Te106  1  0.06723405  0.91113145  0.60427993  1
  Te  Te107  1  0.09352060  0.91284220  0.90922534  1
  Te  Te108  1  0.41512288  0.25362271  0.23964930  1
  Te  Te109  1  0.38262078  0.22534675  0.61387481  1
  Te  Te110  1  0.41229367  0.27202042  0.91570934  1
  Te  Te111  1  0.38707485  0.56834573  0.27385241  1
  Te  Te112  1  0.40837661  0.61421698  0.58113031  1
  Te  Te113  1  0.37682037  0.56605775  0.88081377  1
  Te  Te114  1  0.40371921  0.89895950  0.23568084  1
  Te  Te115  1  0.36688206  0.97015211  0.59182119  1
  Te  Te116  1  0.41921267  0.95684546  0.91082117  1
  Te  Te117  1  0.75669476  0.24738645  0.23157600  1
  Te  Te118  1  0.75398882  0.24645880  0.57072493  1
  Te  Te119  1  0.72274096  0.22713754  0.91716186  1
  Te  Te120  1  0.77243660  0.57418797  0.25761717  1
  Te  Te121  1  0.73605633  0.56671420  0.58361817  1
  Te  Te122  1  0.73882185  0.56835902  0.92315076  1
  Te  Te123  1  0.76508545  0.89799707  0.27247261  1
  Te  Te124  1  0.76727890  0.92228648  0.58709356  1
  Te  Te125  1  0.73317712  0.91296623  0.92530968  1
  Te  Te126  1  0.22779562  0.25981780  0.07484096  1
  Te  Te127  1  0.26559381  0.23733679  0.43802300  1
  Te  Te128  1  0.27952494  0.22942465  0.75332834  1
  Te  Te129  1  0.22373087  0.57144701  0.09948462  1
  Te  Te130  1  0.22687875  0.61352551  0.42393758  1
  Te  Te131  1  0.20581596  0.57512954  0.71483588  1
  Te  Te132  1  0.25178604  0.90495750  0.08902909  1
  Te  Te133  1  0.26097755  0.90506282  0.40775455  1
  Te  Te134  1  0.24128174  0.93018718  0.76494408  1
  Te  Te135  1  0.58096556  0.23754775  0.08635561  1
  Te  Te136  1  0.56131651  0.27717123  0.42469306  1
  Te  Te137  1  0.57208802  0.24379978  0.74056130  1
  Te  Te138  1  0.58482915  0.59738978  0.08248709  1
  Te  Te139  1  0.58664025  0.59436314  0.40813593  1
  Te  Te140  1  0.58425335  0.62586844  0.74126109  1
  Te  Te141  1  0.56008420  0.91784630  0.07536738  1
  Te  Te142  1  0.59501783  0.93488759  0.41477868  1
  Te  Te143  1  0.58602826  0.95147653  0.76104379  1
  Te  Te144  1  0.93141511  0.24649192  0.07723651  1
  Te  Te145  1  0.95301451  0.22515142  0.42260041  1
  Te  Te146  1  0.92677693  0.30530241  0.75745250  1
  Te  Te147  1  0.92915665  0.53440819  0.08152107  1
  Te  Te148  1  0.93135427  0.57971372  0.45904391  1
  Te  Te149  1  0.91872331  0.55868485  0.73984871  1
  Te  Te150  1  0.95732331  0.90098966  0.08742114  1
  Te  Te151  1  0.92514948  0.91901020  0.43658528  1
  Te  Te152  1  0.90603340  0.92748380  0.76399807  1
  Te  Te153  1  0.24980317  0.09898638  0.24449129  1
  Te  Te154  1  0.20248155  0.11750908  0.69718282  1
  Te  Te155  1  0.28643818  0.05551161  0.91338123  1
  Te  Te156  1  0.24755392  0.39013954  0.25014486  1
  Te  Te157  1  0.18943830  0.34300151  0.64716145  1
  Te  Te158  1  0.23135644  0.44154395  0.90679933  1
  Te  Te159  1  0.21995549  0.71257075  0.29127998  1
  Te  Te160  1  0.24434859  0.77726980  0.58281608  1
  Te  Te161  1  0.23831278  0.73104577  0.89640093  1
  Te  Te162  1  0.59295226  0.07433103  0.25443218  1
  Te  Te163  1  0.57505178  0.10214281  0.57407800  1
  Te  Te164  1  0.60148313  0.10875489  0.90706077  1
  Te  Te165  1  0.57176060  0.43941814  0.26300784  1
  Te  Te166  1  0.56317032  0.43301807  0.58259324  1
  Te  Te167  1  0.56776487  0.43195414  0.87756338  1
  Te  Te168  1  0.58059870  0.75368556  0.22824240  1
  Te  Te169  1  0.58841408  0.79064849  0.59673288  1
  Te  Te170  1  0.55771901  0.77150749  0.91800765  1
  Te  Te171  1  0.94724625  0.08477201  0.24659151  1
  Te  Te172  1  0.96407206  0.14651912  0.56945684  1
  Te  Te173  1  0.90381823  0.10109597  0.91326258  1
  Te  Te174  1  0.92768707  0.42146402  0.28447402  1
  Te  Te175  1  0.93480049  0.39542114  0.57212229  1
  Te  Te176  1  0.89244212  0.34946870  0.90839408  1
  Te  Te177  1  0.92452506  0.73224897  0.22627408  1
  Te  Te178  1  0.91937350  0.72472319  0.57908848  1
  Te  Te179  1  0.93911850  0.72780701  0.94621384  1
