# generated using pymatgen
data_In2Te3
_symmetry_space_group_name_H-M   'P 1'
_cell_length_a   18.96299074
_cell_length_b   18.95077223
_cell_length_c   18.95584167
_cell_angle_alpha   89.99126411
_cell_angle_beta   89.93516472
_cell_angle_gamma   89.91859113
_symmetry_Int_Tables_number   1
_chemical_formula_structural   In2Te3
_chemical_formula_sum   'In72 Te108'
_cell_volume   6812.02285259
_cell_formula_units_Z   36
loop_
 _symmetry_equiv_pos_site_id
 _symmetry_equiv_pos_as_xyz
  1  'x, y, z'
loop_
 _atom_site_type_symbol
 _atom_site_label
 _atom_site_symmetry_multiplicity
 _atom_site_fract_x
 _atom_site_fract_y
 _atom_site_fract_z
 _atom_site_occupancy
  In  In0  1  0.49203940  0.16169505  0.67146239  1
  In  In1  1  0.31272547  -0.00218139  -0.02528664  1
  In  In2  1  0.17131114  0.18735774  0.33798601  1
  In  In3  1  0.48915275  0.01423863  0.84377292  1
  In  In4  1  0.33154968  0.67230395  0.66352080  1
  In  In5  1  0.84120882  0.51421188  0.67870585  1
  In  In6  1  0.33480655  0.18338621  0.49639235  1
  In  In7  1  0.66216418  0.02600905  0.67647075  1
  In  In8  1  0.33057870  0.66503279  -0.00685540  1
  In  In9  1  0.33058083  0.50459372  0.84048038  1
  In  In10  1  0.82275567  0.17006356  0.65930559  1
  In  In11  1  0.49814260  0.81189699  0.00604961  1
  In  In12  1  0.72240432  0.80304499  0.47333749  1
  In  In13  1  0.82790169  0.37515729  0.81921889  1
  In  In14  1  -0.00857499  0.01286041  0.34353842  1
  In  In15  1  0.34481197  0.48402106  0.51031622  1
  In  In16  1  0.84299292  0.17295549  -0.00337920  1
  In  In17  1  0.15240601  -0.00112009  0.15538854  1
  In  In18  1  0.31862514  0.65888121  0.32805565  1
  In  In19  1  0.17349908  0.32831081  0.17911947  1
  In  In20  1  0.49726481  0.80692170  0.66395517  1
  In  In21  1  0.50867173  -0.01021879  0.52056978  1
  In  In22  1  0.64204815  -0.00715995  -0.00804033  1
  In  In23  1  -0.02679556  0.00952320  0.67140228  1
  In  In24  1  0.69427921  0.19550037  0.18470754  1
  In  In25  1  0.16759964  0.64340480  0.17550692  1
  In  In26  1  -0.02247873  0.34330977  -0.00424722  1
  In  In27  1  0.51193204  0.65328039  0.16262904  1
  In  In28  1  0.02407311  0.32393380  0.63495600  1
  In  In29  1  0.83224483  0.00671216  0.17597007  1
  In  In30  1  0.05581745  0.03202493  -0.01825651  1
  In  In31  1  0.65445040  0.49510169  0.81264037  1
  In  In32  1  -0.01553809  0.82653854  0.16567509  1
  In  In33  1  0.65048987  0.82779320  0.20362429  1
  In  In34  1  0.49393982  0.32743405  0.80744387  1
  In  In35  1  0.81797858  0.66294972  0.18878307  1
  In  In36  1  0.01391564  0.65804271  -0.03627031  1
  In  In37  1  0.82612965  0.49338357  -0.00170277  1
  In  In38  1  0.16720939  0.34349733  0.81532332  1
  In  In39  1  0.32012377  0.32304577  0.66462809  1
  In  In40  1  0.15320332  0.65218727  0.80803853  1
  In  In41  1  0.14775194  -0.00606823  0.81876970  1
  In  In42  1  0.65427547  0.30663715  -0.00468367  1
  In  In43  1  0.33077847  -0.00136241  0.34832489  1
  In  In44  1  0.55013740  0.38943969  0.50274685  1
  In  In45  1  0.85817212  0.32319962  0.48275878  1
  In  In46  1  0.34592138  0.50404543  0.16260092  1
  In  In47  1  0.00034828  0.17631049  0.82342547  1
  In  In48  1  0.16037608  0.83223168  0.68751884  1
  In  In49  1  0.51694484  0.35727726  0.19870324  1
  In  In50  1  0.33186909  0.84347093  0.50437971  1
  In  In51  1  0.16649727  0.83499404  -0.01086116  1
  In  In52  1  0.85129061  0.81813784  -0.00049643  1
  In  In53  1  0.66499341  0.82537471  0.83440758  1
  In  In54  1  0.51749458  0.19030783  0.33082617  1
  In  In55  1  0.11932759  0.63629552  0.51752886  1
  In  In56  1  -0.01152282  0.50147453  0.16553189  1
  In  In57  1  0.19194785  0.00097356  0.51713532  1
  In  In58  1  0.47888522  0.01625075  0.19546922  1
  In  In59  1  0.66686772  0.65207103  0.65300164  1
  In  In60  1  0.67477862  0.64297461  0.01584523  1
  In  In61  1  0.82626871  0.34708790  0.20093180  1
  In  In62  1  0.83867945  0.82818686  0.65065542  1
  In  In63  1  0.54235283  0.63111905  0.48000348  1
  In  In64  1  0.83639771  0.01284590  0.51404200  1
  In  In65  1  0.48636486  0.18513456  -0.02375880  1
  In  In66  1  0.50092989  0.80869187  0.32969507  1
  In  In67  1  0.82095368  0.53730066  0.35356838  1
  In  In68  1  0.35042481  0.17463371  0.16121012  1
  In  In69  1  0.13669742  0.48910709  0.34952881  1
  In  In70  1  0.69249887  0.00554051  0.35524397  1
  In  In71  1  0.00045536  0.81934859  0.50306524  1
  Te  Te72  1  0.06880506  0.10727316  0.10593957  1
  Te  Te73  1  0.10263358  0.08179589  0.42280652  1
  Te  Te74  1  0.08499987  0.09695409  0.72573297  1
  Te  Te75  1  0.07824773  0.41302719  0.08579348  1
  Te  Te76  1  0.07730643  0.38313650  0.43974976  1
  Te  Te77  1  0.08009474  0.42739110  0.72679359  1
  Te  Te78  1  0.08092294  0.74249376  0.08066528  1
  Te  Te79  1  0.08759633  0.73769998  0.41700187  1
  Te  Te80  1  0.05493738  0.74062178  0.73724910  1
  Te  Te81  1  0.42148240  0.06854666  0.06239977  1
  Te  Te82  1  0.43562984  0.08436022  0.41494327  1
  Te  Te83  1  0.39895783  0.09830252  0.76633167  1
  Te  Te84  1  0.42382059  0.40036874  0.09465030  1
  Te  Te85  1  0.43622157  0.42435293  0.41147416  1
  Te  Te86  1  0.40730654  0.42608292  0.73227769  1
  Te  Te87  1  0.40471989  0.74279193  0.10260502  1
  Te  Te88  1  0.41280130  0.73801264  0.43117175  1
  Te  Te89  1  0.41356579  0.74156650  0.76289782  1
  Te  Te90  1  0.73955186  0.08504974  0.07561072  1
  Te  Te91  1  0.78104499  0.10672881  0.41315478  1
  Te  Te92  1  0.77381628  0.07176799  0.75768041  1
  Te  Te93  1  0.74542314  0.39548199  0.07863428  1
  Te  Te94  1  0.76804265  0.44590706  0.46330322  1
  Te  Te95  1  0.72442728  0.40670119  0.70801102  1
  Te  Te96  1  0.73931177  0.76495434  0.09040420  1
  Te  Te97  1  0.76790865  0.67867997  0.40501713  1
  Te  Te98  1  0.75059940  0.74069884  0.74259447  1
  Te  Te99  1  0.06790942  0.26834212  0.26693705  1
  Te  Te100  1  0.13557204  0.27893240  0.54421131  1
  Te  Te101  1  0.07794546  0.26166429  0.91907036  1
  Te  Te102  1  0.05915236  0.59106694  0.26728730  1
  Te  Te103  1  0.05766673  0.55998688  0.62794264  1
  Te  Te104  1  0.10543483  0.55880348  0.91174988  1
  Te  Te105  1  0.07050340  0.91679027  0.25252999  1
  Te  Te106  1  0.07528092  0.92550885  0.58559386  1
  Te  Te107  1  0.06227875  0.89950094  0.90299460  1
  Te  Te108  1  0.40617913  0.26760721  0.26534657  1
  Te  Te109  1  0.43594608  0.26534611  0.57421606  1
  Te  Te110  1  0.39249314  0.26308779  0.89653236  1
  Te  Te111  1  0.42931090  0.57652444  0.26658540  1
  Te  Te112  1  0.42782490  0.59361887  0.57355229  1
  Te  Te113  1  0.42614890  0.57662649  0.92682088  1
  Te  Te114  1  0.40303519  0.89941622  0.25621784  1
  Te  Te115  1  0.40837311  0.92095764  0.60943466  1
  Te  Te116  1  0.41556764  0.90071541  0.91462456  1
  Te  Te117  1  0.73349487  0.28200051  0.29835895  1
  Te  Te118  1  0.75368708  0.25466205  0.56283316  1
  Te  Te119  1  0.76461782  0.26084728  0.90131039  1
  Te  Te120  1  0.73222353  0.54724043  0.22691344  1
  Te  Te121  1  0.75371973  0.56783907  0.56600100  1
  Te  Te122  1  0.74912499  0.57862030  0.89909098  1
  Te  Te123  1  0.76468607  0.90413386  0.26667222  1
  Te  Te124  1  0.73044792  0.91848606  0.57926868  1
  Te  Te125  1  0.75000787  0.91221838  0.92418250  1
  Te  Te126  1  0.25606294  0.25273171  0.08321295  1
  Te  Te127  1  0.25972368  0.27907731  0.41296635  1
  Te  Te128  1  0.22684343  0.23489329  0.73551209  1
  Te  Te129  1  0.24244895  0.56695393  0.06992825  1
  Te  Te130  1  0.23980192  0.57784072  0.43255643  1
  Te  Te131  1  0.24727972  0.56507176  0.72646258  1
  Te  Te132  1  0.25556829  0.91078924  0.08531234  1
  Te  Te133  1  0.23141575  0.90139051  0.40699097  1
  Te  Te134  1  0.25560770  0.91541630  0.75924650  1
  Te  Te135  1  0.56943887  0.23419780  0.10188043  1
  Te  Te136  1  0.60328614  0.27799124  0.40979578  1
  Te  Te137  1  0.59204469  0.23575262  0.74845545  1
  Te  Te138  1  0.56717180  0.55771195  0.06590157  1
  Te  Te139  1  0.58720696  0.50815206  0.40700518  1
  Te  Te140  1  0.56281869  0.58207593  0.73308511  1
  Te  Te141  1  0.57195311  0.91138422  0.10192189  1
  Te  Te142  1  0.57726648  0.91704480  0.40596727  1
  Te  Te143  1  0.57775581  0.91903956  0.75010820  1
  Te  Te144  1  0.90759516  0.25950977  0.10149747  1
  Te  Te145  1  0.97781796  0.27159895  0.40826224  1
  Te  Te146  1  0.91609355  0.27420115  0.74289400  1
  Te  Te147  1  0.90626809  0.59654765  0.07782664  1
  Te  Te148  1  0.90980357  0.62361571  0.44171667  1
  Te  Te149  1  0.94768225  0.60760532  0.72585846  1
  Te  Te150  1  0.92057398  0.93236998  0.07688557  1
  Te  Te151  1  0.90874139  0.91308485  0.42486805  1
  Te  Te152  1  0.89991969  0.91316229  0.75242133  1
  Te  Te153  1  0.25597569  0.08295374  0.24672897  1
  Te  Te154  1  0.27923382  0.08873652  0.59353035  1
  Te  Te155  1  0.19711959  0.08190305  0.93319078  1
  Te  Te156  1  0.24453418  0.43581168  0.25877358  1
  Te  Te157  1  0.23376569  0.40578876  0.57234635  1
  Te  Te158  1  0.26349652  0.39609504  0.91446883  1
  Te  Te159  1  0.24141372  0.74908090  0.24365883  1
  Te  Te160  1  0.23156760  0.75170857  0.57778505  1
  Te  Te161  1  0.24247710  0.74346094  0.89746727  1
  Te  Te162  1  0.60624672  0.07982774  0.25109832  1
  Te  Te163  1  0.59672097  0.10225552  0.56504030  1
  Te  Te164  1  0.59513224  0.10576787  0.90266791  1
  Te  Te165  1  0.61954135  0.44280238  0.26056174  1
  Te  Te166  1  0.59127906  0.45411006  0.63103020  1
  Te  Te167  1  0.57900969  0.40573028  0.91020995  1
  Te  Te168  1  0.60127884  0.70732852  0.27827547  1
  Te  Te169  1  0.59466889  0.75850601  0.55610879  1
  Te  Te170  1  0.58665820  0.72744772  0.91857931  1
  Te  Te171  1  0.89641987  0.09988196  0.27002892  1
  Te  Te172  1  0.93454036  0.11464526  0.56952888  1
  Te  Te173  1  0.92427430  0.07986724  0.91153288  1
  Te  Te174  1  0.91730374  0.43551289  0.28124381  1
  Te  Te175  1  0.91891816  0.42263800  0.58296640  1
  Te  Te176  1  0.93297447  0.45124373  0.89799691  1
  Te  Te177  1  0.90287492  0.75452050  0.26394365  1
  Te  Te178  1  0.90229504  0.72200210  0.56425252  1
  Te  Te179  1  0.90314706  0.72691136  0.89854993  1
