# generated using pymatgen
data_In2Te3
_symmetry_space_group_name_H-M   'P 1'
_cell_length_a   19.00354733
_cell_length_b   19.04265263
_cell_length_c   19.03357471
_cell_angle_alpha   90.08636370
_cell_angle_beta   90.00359703
_cell_angle_gamma   90.10369985
_symmetry_Int_Tables_number   1
_chemical_formula_structural   In2Te3
_chemical_formula_sum   'In72 Te108'
_cell_volume   6887.81188441
_cell_formula_units_Z   36
loop_
 _symmetry_equiv_pos_site_id
 _symmetry_equiv_pos_as_xyz
  1  'x, y, z'
loop_
 _atom_site_type_symbol
 _atom_site_label
 _atom_site_symmetry_multiplicity
 _atom_site_fract_x
 _atom_site_fract_y
 _atom_site_fract_z
 _atom_site_occupancy
  In  In0  1  0.36382609  0.17628191  0.85551721  1
  In  In1  1  0.50681141  -0.01747159  0.13956016  1
  In  In2  1  0.00676908  0.02116994  0.32877111  1
  In  In3  1  0.82657304  0.65910120  0.82894474  1
  In  In4  1  0.16837820  0.85000381  0.00907976  1
  In  In5  1  0.84299955  0.20804511  0.32548044  1
  In  In6  1  0.85488732  0.35238802  0.49536903  1
  In  In7  1  0.00592419  0.48353337  0.19184574  1
  In  In8  1  -0.04484392  0.81097773  0.51610615  1
  In  In9  1  0.33095581  0.84091089  0.83062008  1
  In  In10  1  0.66795731  0.84782427  0.84341754  1
  In  In11  1  0.16004853  0.32361224  0.85664158  1
  In  In12  1  0.51104542  0.33949869  0.51198272  1
  In  In13  1  0.15440528  0.67092346  0.51100679  1
  In  In14  1  0.16428756  0.35893896  0.48537531  1
  In  In15  1  0.47786120  0.18493191  0.32782483  1
  In  In16  1  0.32545783  0.00492970  0.34605021  1
  In  In17  1  0.33929197  0.82397402  0.17628445  1
  In  In18  1  0.65551128  0.18223777  0.84442863  1
  In  In19  1  0.16438988  0.52365009  0.65483832  1
  In  In20  1  0.50173018  0.67853097  0.50810546  1
  In  In21  1  0.35019561  0.52143686  0.49180641  1
  In  In22  1  0.51031168  0.52412331  0.33036225  1
  In  In23  1  0.15655389  -0.02953740  0.50765165  1
  In  In24  1  0.52273854  0.14764164  0.68456903  1
  In  In25  1  0.49294623  0.48489343  0.67330913  1
  In  In26  1  0.83735830  0.18440180  0.66363385  1
  In  In27  1  -0.00852502  0.32883795  0.01817224  1
  In  In28  1  0.17379210  0.17326281  0.00449513  1
  In  In29  1  0.66685125  0.51737603  0.14746873  1
  In  In30  1  0.51773136  0.34293567  0.15354341  1
  In  In31  1  0.83245250  0.67969349  0.15116139  1
  In  In32  1  0.49824413  0.69285323  0.82747147  1
  In  In33  1  0.52378873  0.81931727  0.33351844  1
  In  In34  1  -0.04049365  -0.01708921  -0.03985791  1
  In  In35  1  0.33670287  0.65936036  0.31693289  1
  In  In36  1  0.00696072  0.31383447  0.65664057  1
  In  In37  1  -0.01745415  0.67282417  0.33858930  1
  In  In38  1  0.66682880  0.33180083  -0.00292072  1
  In  In39  1  0.68766458  0.15983788  0.16113180  1
  In  In40  1  -0.00210162  0.15247737  0.13731856  1
  In  In41  1  0.30418612  0.49706387  0.82771589  1
  In  In42  1  0.64158147  -0.00277037  0.33753559  1
  In  In43  1  0.82304095  0.00368564  0.50876208  1
  In  In44  1  0.67939409  0.35257520  0.67771821  1
  In  In45  1  0.16347336  0.20592425  0.34781707  1
  In  In46  1  0.14664206  0.13229744  0.66535474  1
  In  In47  1  0.70996220  -0.03684755  0.68542043  1
  In  In48  1  0.68191999  0.49437848  0.83840159  1
  In  In49  1  0.32050159  0.15315924  0.49984730  1
  In  In50  1  0.50523045  0.00471753  0.84767602  1
  In  In51  1  0.67916888  0.64526460  0.64290016  1
  In  In52  1  0.83276083  0.50859333  -0.01206468  1
  In  In53  1  0.34916015  0.66157033  0.02459568  1
  In  In54  1  0.00924876  0.66788478  -0.01956994  1
  In  In55  1  0.31826608  0.30724232  0.66866467  1
  In  In56  1  0.67435542  0.81733964  0.17793177  1
  In  In57  1  0.83901495  0.49699355  0.33562111  1
  In  In58  1  0.35991090  0.17364205  0.15440485  1
  In  In59  1  0.17891103  0.00336428  0.18490982  1
  In  In60  1  -0.05531534  -0.01526805  0.70699839  1
  In  In61  1  0.01574812  0.50966484  0.82395667  1
  In  In62  1  0.16244240  0.33546110  0.18440299  1
  In  In63  1  0.17068744  0.66095001  0.13930628  1
  In  In64  1  0.63904192  0.15390573  0.49321009  1
  In  In65  1  0.81761848  -0.00697706  0.13916456  1
  In  In66  1  0.47901599  -0.05299743  0.52619585  1
  In  In67  1  0.81193154  0.80821871  0.36432465  1
  In  In68  1  0.15580138  0.82433280  0.65980662  1
  In  In69  1  0.15079270  0.68861718  0.82565998  1
  In  In70  1  0.51305420  0.51569222  0.00275578  1
  In  In71  1  0.15311311  0.01131669  0.85207755  1
  Te  Te72  1  0.09503307  0.05947010  0.07058020  1
  Te  Te73  1  0.10481973  0.08692774  0.42315443  1
  Te  Te74  1  0.04929667  0.08110074  0.76694022  1
  Te  Te75  1  0.09107780  0.42168031  0.08214069  1
  Te  Te76  1  0.08712993  0.41083969  0.37258930  1
  Te  Te77  1  0.10854917  0.41065247  0.74179363  1
  Te  Te78  1  0.07091130  0.76150622  0.08322648  1
  Te  Te79  1  0.06784650  0.76307402  0.42763636  1
  Te  Te80  1  0.05914584  0.72717276  0.71650849  1
  Te  Te81  1  0.43040917  0.08379964  0.05907017  1
  Te  Te82  1  0.43553569  0.07333748  0.43123572  1
  Te  Te83  1  0.40811116  0.07632592  0.74971240  1
  Te  Te84  1  0.42483460  0.42881820  0.08061962  1
  Te  Te85  1  0.43010195  0.42129115  0.41448518  1
  Te  Te86  1  0.40072618  0.39844294  0.75695330  1
  Te  Te87  1  0.43807062  0.75295662  0.09628852  1
  Te  Te88  1  0.41192946  0.75261663  0.40980836  1
  Te  Te89  1  0.41836928  0.77385287  0.72985633  1
  Te  Te90  1  0.75076292  0.08797099  0.04968288  1
  Te  Te91  1  0.74710590  0.09060082  0.40763267  1
  Te  Te92  1  0.73697613  0.09836549  0.73991167  1
  Te  Te93  1  0.75943498  0.41692831  0.08222613  1
  Te  Te94  1  0.75076375  0.43120495  0.43383552  1
  Te  Te95  1  0.77146985  0.45476420  0.72928047  1
  Te  Te96  1  0.76090565  0.77334567  0.06654501  1
  Te  Te97  1  0.72380599  0.70454188  0.41945743  1
  Te  Te98  1  0.72823479  0.74213868  0.75077549  1
  Te  Te99  1  0.05990118  0.24207592  0.24393897  1
  Te  Te100  1  0.10892709  0.24250349  0.57124204  1
  Te  Te101  1  0.06135800  0.23053852  0.92141166  1
  Te  Te102  1  0.08101834  0.59929143  0.25021699  1
  Te  Te103  1  0.06293497  0.56266917  0.55633813  1
  Te  Te104  1  0.11269118  0.57550570  0.91957038  1
  Te  Te105  1  0.08773322  0.92038074  0.26146026  1
  Te  Te106  1  0.04302951  0.91567773  0.60107465  1
  Te  Te107  1  0.07046343  0.89617885  0.90238422  1
  Te  Te108  1  0.40497208  0.28607868  0.24543682  1
  Te  Te109  1  0.42981200  0.23436482  0.58706031  1
  Te  Te110  1  0.44472224  0.21520338  0.96975649  1
  Te  Te111  1  0.40329290  0.55814813  0.23619552  1
  Te  Te112  1  0.41548001  0.59457135  0.60482786  1
  Te  Te113  1  0.41056509  0.58763989  0.89837040  1
  Te  Te114  1  0.42698285  0.92821724  0.26021483  1
  Te  Te115  1  0.38575225  0.86593958  0.60102776  1
  Te  Te116  1  0.42810278  0.90258708  0.92350803  1
  Te  Te117  1  0.73682783  0.26644078  0.24737849  1
  Te  Te118  1  0.72485163  0.24460323  0.57922494  1
  Te  Te119  1  0.75486664  0.27699728  0.89421720  1
  Te  Te120  1  0.75763753  0.59031789  0.24440159  1
  Te  Te121  1  0.79656870  0.64958349  0.54565606  1
  Te  Te122  1  0.72941627  0.60308356  0.93273518  1
  Te  Te123  1  0.75166240  0.91910907  0.27000937  1
  Te  Te124  1  0.78072695  0.88561837  0.58408613  1
  Te  Te125  1  0.78923922  0.93319676  0.88056197  1
  Te  Te126  1  0.25754025  0.26422330  0.08834113  1
  Te  Te127  1  0.27761308  0.27205666  0.42248904  1
  Te  Te128  1  0.23484063  0.22100557  0.76053801  1
  Te  Te129  1  0.26311783  0.56141764  0.08712910  1
  Te  Te130  1  0.24181772  0.58891682  0.41511597  1
  Te  Te131  1  0.25115571  0.61047843  0.74202569  1
  Te  Te132  1  0.27034728  0.92734759  0.09047068  1
  Te  Te133  1  0.24488583  0.90439581  0.41236809  1
  Te  Te134  1  0.22648449  0.92022609  0.75539624  1
  Te  Te135  1  0.57897050  0.23164619  0.07007901  1
  Te  Te136  1  0.58491151  0.26195756  0.40292753  1
  Te  Te137  1  0.57219314  0.27174385  0.75107334  1
  Te  Te138  1  0.57948242  0.61765862  0.08487688  1
  Te  Te139  1  0.59838267  0.60641641  0.41843660  1
  Te  Te140  1  0.57954453  0.57947606  0.75674395  1
  Te  Te141  1  0.61996734  0.91486414  0.07952996  1
  Te  Te142  1  0.59917554  0.89559899  0.43978122  1
  Te  Te143  1  0.57861798  0.91807297  0.74273503  1
  Te  Te144  1  0.89644406  0.22921049  0.06696331  1
  Te  Te145  1  0.92784558  0.24079238  0.43673680  1
  Te  Te146  1  0.90986115  0.27087234  0.75594502  1
  Te  Te147  1  0.93193339  0.58043988  0.07978542  1
  Te  Te148  1  0.91619886  0.58159717  0.43149677  1
  Te  Te149  1  0.91803905  0.58180379  0.74064187  1
  Te  Te150  1  0.92788905  0.91638700  0.08481130  1
  Te  Te151  1  0.91405780  0.92391260  0.41287450  1
  Te  Te152  1  0.89033886  0.87160599  0.78535343  1
  Te  Te153  1  0.25706456  0.11405167  0.25889237  1
  Te  Te154  1  0.25455129  0.05532979  0.59183887  1
  Te  Te155  1  0.26466804  0.08149933  0.92545130  1
  Te  Te156  1  0.20535192  0.43020866  0.28767146  1
  Te  Te157  1  0.26728792  0.42437397  0.58432034  1
  Te  Te158  1  0.27282883  0.38901427  0.92109636  1
  Te  Te159  1  0.23311249  0.74820616  0.24856728  1
  Te  Te160  1  0.25724720  0.75971272  0.57331884  1
  Te  Te161  1  0.25247705  0.74945033  0.93146514  1
  Te  Te162  1  0.56902520  0.09339092  0.24529548  1
  Te  Te163  1  0.58181304  0.04938868  0.58509075  1
  Te  Te164  1  0.61341235  0.06678622  0.92503887  1
  Te  Te165  1  0.59764752  0.42948923  0.24889537  1
  Te  Te166  1  0.60097176  0.44120627  0.57696338  1
  Te  Te167  1  0.57491081  0.41434461  0.90904059  1
  Te  Te168  1  0.58006541  0.72272473  0.24042406  1
  Te  Te169  1  0.59291718  0.75298769  0.59481517  1
  Te  Te170  1  0.55787935  0.78730982  0.92373480  1
  Te  Te171  1  0.90080894  0.08449706  0.24018524  1
  Te  Te172  1  0.92232179  0.08458412  0.58898959  1
  Te  Te173  1  0.87920242  0.05896720  0.86529057  1
  Te  Te174  1  0.90317233  0.39773016  0.24738949  1
  Te  Te175  1  0.95117466  0.42571554  0.57963466  1
  Te  Te176  1  0.92930763  0.42182963  0.91171772  1
  Te  Te177  1  0.90493473  0.76860325  0.25173834  1
  Te  Te178  1  0.91300693  0.71799241  0.62171242  1
  Te  Te179  1  0.92281279  0.75296281  0.89541971  1
