# generated using pymatgen
data_In2Te3
_symmetry_space_group_name_H-M   'P 1'
_cell_length_a   18.98950275
_cell_length_b   19.00176547
_cell_length_c   19.01304212
_cell_angle_alpha   89.73295765
_cell_angle_beta   89.99882775
_cell_angle_gamma   90.07791224
_symmetry_Int_Tables_number   1
_chemical_formula_structural   In2Te3
_chemical_formula_sum   'In72 Te108'
_cell_volume   6860.47265417
_cell_formula_units_Z   36
loop_
 _symmetry_equiv_pos_site_id
 _symmetry_equiv_pos_as_xyz
  1  'x, y, z'
loop_
 _atom_site_type_symbol
 _atom_site_label
 _atom_site_symmetry_multiplicity
 _atom_site_fract_x
 _atom_site_fract_y
 _atom_site_fract_z
 _atom_site_occupancy
  In  In0  1  0.65761299  0.47610128  0.82489136  1
  In  In1  1  0.17949642  0.82796333  0.05633720  1
  In  In2  1  0.15512227  0.18088187  0.33654196  1
  In  In3  1  0.00669674  0.50691560  0.84574097  1
  In  In4  1  0.17231412  0.65285905  0.83543821  1
  In  In5  1  0.16662888  0.50216703  0.35073136  1
  In  In6  1  0.34040696  0.65734158  0.66321636  1
  In  In7  1  0.52423655  0.14295254  0.30475264  1
  In  In8  1  0.50303956  0.48766571  0.34137693  1
  In  In9  1  0.02554563  0.67364153  0.30928899  1
  In  In10  1  0.15987120  0.00631396  0.18619157  1
  In  In11  1  0.31096670  0.35976675  0.64838909  1
  In  In12  1  0.47375620  0.00940872  0.84625497  1
  In  In13  1  0.81538200  0.68071218  0.84292715  1
  In  In14  1  0.46576742  0.15993030  0.00507157  1
  In  In15  1  0.66659354  0.17376871  0.85794335  1
  In  In16  1  0.82004452  0.48394984  0.67673072  1
  In  In17  1  0.67349515  0.83833903  0.47581982  1
  In  In18  1  0.18031783  0.84042084  0.65959515  1
  In  In19  1  0.48134829  0.32803424  0.14417463  1
  In  In20  1  0.01841358  0.00781557  0.01664118  1
  In  In21  1  0.66107762  0.83700413  0.84277965  1
  In  In22  1  0.33936330  -0.02370222  0.30270833  1
  In  In23  1  -0.00852793  0.34017158  0.67385589  1
  In  In24  1  0.00577663  0.63727627  0.64287622  1
  In  In25  1  0.33366996  0.47247194  0.83433041  1
  In  In26  1  0.82902567  0.65341332  0.48924828  1
  In  In27  1  0.52690911  0.82437080  0.64194624  1
  In  In28  1  0.00803247  0.80630605  0.48867511  1
  In  In29  1  0.85071208  0.01130889  0.82398808  1
  In  In30  1  0.30700899  0.53296159  0.17876545  1
  In  In31  1  -0.02583436  0.20000192  0.14614110  1
  In  In32  1  0.68691645  0.50908158  0.18641107  1
  In  In33  1  0.16772217  0.32299070  0.15133867  1
  In  In34  1  0.67255688  0.85353190  0.16226553  1
  In  In35  1  0.14945775  0.17316039  0.66190989  1
  In  In36  1  -0.03413911  0.19343879  0.49675085  1
  In  In37  1  0.82340593  0.15690309  0.33154981  1
  In  In38  1  0.50732081  0.51372189  0.65753163  1
  In  In39  1  0.34600268  0.67387463  0.00419712  1
  In  In40  1  0.67290085  0.66991927  -0.01817545  1
  In  In41  1  0.48576940  0.50445976  -0.01974728  1
  In  In42  1  0.85965134  0.84887263  0.01273739  1
  In  In43  1  0.66197448  -0.00738494  0.64267628  1
  In  In44  1  0.50748611  0.33550504  0.51579468  1
  In  In45  1  -0.00318517  0.17003777  0.84823760  1
  In  In46  1  0.66649448  0.47160364  0.48822969  1
  In  In47  1  0.65896231  0.33070217  0.00914518  1
  In  In48  1  0.80476251  0.19478361  0.64478372  1
  In  In49  1  0.33767989  0.82587479  0.82409993  1
  In  In50  1  0.19534893  0.03236776  0.88087357  1
  In  In51  1  0.68074946  0.31621111  0.32746109  1
  In  In52  1  0.83456073  0.00214406  0.50410333  1
  In  In53  1  0.16603656  0.33113172  0.84148604  1
  In  In54  1  0.35661418  0.32004431  0.33398895  1
  In  In55  1  0.67241684  -0.00442306  0.04094218  1
  In  In56  1  0.51744630  0.14318126  0.67726923  1
  In  In57  1  0.34231452  0.82645975  0.47415391  1
  In  In58  1  -0.00423019  -0.02438580  0.68073490  1
  In  In59  1  0.51500394  0.67830006  0.14601032  1
  In  In60  1  0.84849795  0.45300657  0.00648966  1
  In  In61  1  -0.02492783  0.46624057  0.19153802  1
  In  In62  1  0.29375998  0.69750595  0.29767313  1
  In  In63  1  0.50924197  -0.01564972  0.50541094  1
  In  In64  1  0.00154592  0.82055243  0.83835992  1
  In  In65  1  0.33884098  0.03297012  0.67278492  1
  In  In66  1  0.33525060  0.15925192  0.48853857  1
  In  In67  1  0.00704474  0.49397844  0.49110787  1
  In  In68  1  0.84042372  -0.00359144  0.15742153  1
  In  In69  1  0.01066565  -0.00274705  0.34704327  1
  In  In70  1  0.52431321  0.86797602  0.02962158  1
  In  In71  1  0.85395324  0.64625506  0.19450189  1
  Te  Te72  1  0.08906445  0.11155571  0.09754153  1
  Te  Te73  1  0.07232999  0.10151292  0.43637052  1
  Te  Te74  1  0.08342649  0.07588657  0.75937259  1
  Te  Te75  1  0.06590405  0.40967288  0.08401992  1
  Te  Te76  1  0.07579840  0.40046966  0.40234564  1
  Te  Te77  1  0.08893890  0.42657709  0.74790659  1
  Te  Te78  1  0.07019929  0.75356040  0.11579238  1
  Te  Te79  1  0.10771303  0.72862791  0.41728481  1
  Te  Te80  1  0.08526386  0.74479982  0.73434407  1
  Te  Te81  1  0.36545323  0.06366321  0.05605491  1
  Te  Te82  1  0.42295188  0.06847775  0.40570423  1
  Te  Te83  1  0.40120876  0.12119011  0.77820210  1
  Te  Te84  1  0.40390697  0.44687284  0.09257777  1
  Te  Te85  1  0.40779016  0.41818575  0.43775428  1
  Te  Te86  1  0.42710393  0.40827402  0.73227563  1
  Te  Te87  1  0.40759751  0.77670029  0.09740071  1
  Te  Te88  1  0.41373344  0.76794554  0.35541131  1
  Te  Te89  1  0.43527247  0.74990307  0.73891017  1
  Te  Te90  1  0.76230564  0.10078314  0.08936900  1
  Te  Te91  1  0.74520607  0.09962918  0.44212368  1
  Te  Te92  1  0.74452733  0.07984344  0.74085902  1
  Te  Te93  1  0.75291511  0.39755252  0.11047141  1
  Te  Te94  1  0.76296984  0.43038664  0.37900120  1
  Te  Te95  1  0.76636796  0.39229290  0.77701529  1
  Te  Te96  1  0.75427979  0.75587469  0.07492262  1
  Te  Te97  1  0.76836455  0.75432039  0.40062506  1
  Te  Te98  1  0.71499510  0.73616221  0.75112708  1
  Te  Te99  1  0.06475810  0.26562660  0.25013422  1
  Te  Te100  1  0.07664595  0.26866266  0.57115470  1
  Te  Te101  1  0.10126825  0.23079680  0.93000867  1
  Te  Te102  1  0.08844884  0.55861877  0.23387327  1
  Te  Te103  1  0.11388756  0.55966392  0.57640416  1
  Te  Te104  1  0.07352567  0.60465848  0.93148334  1
  Te  Te105  1  0.11210586  0.90957231  0.28747341  1
  Te  Te106  1  0.08178798  0.91589279  0.57339388  1
  Te  Te107  1  0.08393500  0.92603718  0.90806921  1
  Te  Te108  1  0.41562405  0.22327537  0.23386041  1
  Te  Te109  1  0.42089475  0.23288321  0.58849763  1
  Te  Te110  1  0.37959584  0.27039448  0.95700071  1
  Te  Te111  1  0.43902585  0.58258622  0.23731875  1
  Te  Te112  1  0.42457618  0.58915264  0.56502065  1
  Te  Te113  1  0.40869662  0.59711849  0.89097819  1
  Te  Te114  1  0.40100291  0.86436637  0.23194866  1
  Te  Te115  1  0.40468184  0.91941076  0.59641391  1
  Te  Te116  1  0.40810255  0.90635558  0.93160646  1
  Te  Te117  1  0.73803312  0.22159778  0.23058944  1
  Te  Te118  1  0.74208064  0.29822810  0.56591147  1
  Te  Te119  1  0.75946043  0.25137393  0.93737009  1
  Te  Te120  1  0.73081038  0.61939808  0.27182203  1
  Te  Te121  1  0.74136751  0.57017425  0.58128680  1
  Te  Te122  1  0.76109022  0.55936239  0.92541970  1
  Te  Te123  1  0.75610956  0.92944004  0.25819036  1
  Te  Te124  1  0.76084012  0.89799296  0.58779675  1
  Te  Te125  1  0.75617230  0.92259847  0.92409426  1
  Te  Te126  1  0.27112274  0.25379742  0.06650656  1
  Te  Te127  1  0.24762005  0.26410776  0.42486094  1
  Te  Te128  1  0.24994266  0.25472934  0.73950433  1
  Te  Te129  1  0.24338821  0.58464336  0.05744956  1
  Te  Te130  1  0.26717671  0.59656534  0.39947628  1
  Te  Te131  1  0.25104308  0.56500305  0.74377587  1
  Te  Te132  1  0.25592192  0.95398195  0.08280826  1
  Te  Te133  1  0.25060762  0.92011856  0.40710847  1
  Te  Te134  1  0.25109736  0.93482719  0.75884819  1
  Te  Te135  1  0.57529965  0.22527214  0.08601555  1
  Te  Te136  1  0.56694785  0.24958170  0.40270828  1
  Te  Te137  1  0.58243531  0.24320662  0.76101325  1
  Te  Te138  1  0.59689470  0.56398325  0.06880175  1
  Te  Te139  1  0.58403193  0.57585023  0.42413157  1
  Te  Te140  1  0.59661097  0.58522227  0.74916218  1
  Te  Te141  1  0.55215136  0.97874236  0.13454060  1
  Te  Te142  1  0.57713183  0.91804512  0.39327865  1
  Te  Te143  1  0.56971447  0.93206139  0.75270924  1
  Te  Te144  1  0.94520595  0.30786427  0.04762557  1
  Te  Te145  1  0.90238692  0.27224591  0.38802147  1
  Te  Te146  1  0.90435892  0.24193253  0.74963590  1
  Te  Te147  1  0.91556081  0.56470696  0.08710531  1
  Te  Te148  1  0.93262052  0.58893270  0.40187294  1
  Te  Te149  1  0.90970362  0.59179897  0.75299125  1
  Te  Te150  1  0.95869831  0.90593321  0.11129008  1
  Te  Te151  1  0.91388749  0.90736808  0.41913126  1
  Te  Te152  1  0.89517115  0.88594011  0.75181066  1
  Te  Te153  1  0.25420330  0.10020119  0.25921952  1
  Te  Te154  1  0.23526839  0.08181702  0.57492824  1
  Te  Te155  1  0.26662598  0.14493655  0.95027746  1
  Te  Te156  1  0.25856462  0.40170288  0.24980350  1
  Te  Te157  1  0.22267765  0.44775955  0.57793947  1
  Te  Te158  1  0.23373476  0.42716124  0.92996293  1
  Te  Te159  1  0.20476034  0.75329633  0.19209705  1
  Te  Te160  1  0.25444333  0.74486515  0.57194309  1
  Te  Te161  1  0.23472662  0.76511356  0.91869743  1
  Te  Te162  1  0.61158138  0.02873075  0.26984813  1
  Te  Te163  1  0.59708509  0.09911657  0.55654246  1
  Te  Te164  1  0.58476439  0.06754644  0.93157249  1
  Te  Te165  1  0.57816341  0.40321058  0.23881268  1
  Te  Te166  1  0.61876691  0.38374902  0.60646306  1
  Te  Te167  1  0.56151065  0.39428556  0.91095147  1
  Te  Te168  1  0.59975858  0.75178539  0.23920385  1
  Te  Te169  1  0.58410345  0.73941708  0.54098836  1
  Te  Te170  1  0.56283671  0.75897723  0.92829654  1
  Te  Te171  1  0.93657564  0.08424539  0.24744690  1
  Te  Te172  1  0.91960472  0.08494453  0.60219662  1
  Te  Te173  1  0.90994122  0.08527935  0.94025602  1
  Te  Te174  1  0.88590520  0.39874103  0.28774600  1
  Te  Te175  1  0.90538627  0.41370703  0.57342494  1
  Te  Te176  1  0.93958117  0.38831340  0.90748394  1
  Te  Te177  1  0.91853965  0.76026258  0.25653037  1
  Te  Te178  1  0.91259073  0.74015590  0.58652141  1
  Te  Te179  1  0.92390350  0.73520017  0.93613636  1
