# generated using pymatgen
data_In2Te3
_symmetry_space_group_name_H-M   'P 1'
_cell_length_a   18.98953557
_cell_length_b   18.99474765
_cell_length_c   18.98866151
_cell_angle_alpha   90.08309926
_cell_angle_beta   89.80520754
_cell_angle_gamma   90.17218823
_symmetry_Int_Tables_number   1
_chemical_formula_structural   In2Te3
_chemical_formula_sum   'In72 Te108'
_cell_volume   6849.15986081
_cell_formula_units_Z   36
loop_
 _symmetry_equiv_pos_site_id
 _symmetry_equiv_pos_as_xyz
  1  'x, y, z'
loop_
 _atom_site_type_symbol
 _atom_site_label
 _atom_site_symmetry_multiplicity
 _atom_site_fract_x
 _atom_site_fract_y
 _atom_site_fract_z
 _atom_site_occupancy
  In  In0  1  0.68168642  0.32678617  0.68506262  1
  In  In1  1  0.32943105  0.84839623  0.83943427  1
  In  In2  1  0.15380472  0.14532156  0.01852253  1
  In  In3  1  0.66454286  0.16034508  0.85273371  1
  In  In4  1  0.83684304  0.00424169  0.49676969  1
  In  In5  1  0.15052961  0.84497198  -0.01891453  1
  In  In6  1  0.17353630  0.33522340  0.81844373  1
  In  In7  1  0.15190552  0.15153069  0.66157235  1
  In  In8  1  0.35130467  0.65868930  0.33192117  1
  In  In9  1  0.50824368  0.52752306  0.68190300  1
  In  In10  1  0.50720801  0.16335848  -0.00138711  1
  In  In11  1  0.30016255  0.33340197  0.35300691  1
  In  In12  1  0.53053157  0.83726527  0.34270655  1
  In  In13  1  0.52997259  0.77421304  0.66169110  1
  In  In14  1  0.82017551  0.37330044  0.84768556  1
  In  In15  1  0.36781742  0.66019249  -0.00716509  1
  In  In16  1  0.14814699  0.66184943  0.50655137  1
  In  In17  1  0.51604527  0.67159228  0.84100280  1
  In  In18  1  0.00571811  0.16662927  0.19223983  1
  In  In19  1  -0.00245581  0.34768228  0.66417978  1
  In  In20  1  0.84353906  0.83311043  0.35554972  1
  In  In21  1  0.86606305  0.79588863  0.66439626  1
  In  In22  1  0.85472950  -0.04346100  0.81355928  1
  In  In23  1  0.31761725  -0.00300273  0.68727639  1
  In  In24  1  0.63973713  0.38644336  0.00752258  1
  In  In25  1  0.85374249  0.15328229  -0.00830340  1
  In  In26  1  0.33435084  0.00331739  -0.01093771  1
  In  In27  1  0.32325582  0.82349408  0.13661886  1
  In  In28  1  0.69334622  0.81013983  0.16747275  1
  In  In29  1  0.31530926  0.00863782  0.31909212  1
  In  In30  1  0.82849669  0.64620597  0.81793035  1
  In  In31  1  0.33472265  0.51233827  0.82717299  1
  In  In32  1  0.52921669  0.51212572  0.32959918  1
  In  In33  1  0.16356946  0.67786614  0.12579687  1
  In  In34  1  0.34797485  0.16321982  0.86066948  1
  In  In35  1  0.49745589  0.00379502  0.55191866  1
  In  In36  1  0.12670120  0.33778722  0.45550528  1
  In  In37  1  -0.00270531  0.34287839  -0.01620058  1
  In  In38  1  0.67217776  0.02598275  0.34594890  1
  In  In39  1  -0.01951288  0.65705872  0.33523056  1
  In  In40  1  0.49944063  -0.01257342  0.15972081  1
  In  In41  1  0.49105823  0.31346709  0.15579095  1
  In  In42  1  0.85407943  0.33952677  0.20701899  1
  In  In43  1  0.07861856  -0.00856560  0.45416991  1
  In  In44  1  0.16464357  0.51035646  0.33678938  1
  In  In45  1  0.51093763  0.35958193  0.48110492  1
  In  In46  1  0.67462554  0.52124969  0.16569174  1
  In  In47  1  0.82472577  0.17862120  0.67639937  1
  In  In48  1  0.16245299  0.49843405  0.64728790  1
  In  In49  1  0.16118190  0.52023674  -0.02851451  1
  In  In50  1  0.32514791  0.18657460  0.49715377  1
  In  In51  1  0.69392753  -0.01116504  0.00440109  1
  In  In52  1  0.49708897  0.16233420  0.68140931  1
  In  In53  1  0.33117345  0.65440926  0.64913539  1
  In  In54  1  0.82520955  0.52111284  0.00196158  1
  In  In55  1  0.32206865  0.82295514  0.47925505  1
  In  In56  1  0.13821824  0.70813445  0.82075638  1
  In  In57  1  0.70147138  0.66467297  0.35108076  1
  In  In58  1  -0.02704508  0.14364242  0.85010522  1
  In  In59  1  0.28754533  0.16437599  0.17762330  1
  In  In60  1  0.70314152  0.51190335  0.52340472  1
  In  In61  1  0.66287882  -0.03511793  0.68178604  1
  In  In62  1  0.14416989  0.84754562  0.29846951  1
  In  In63  1  0.35047261  0.48771183  0.18561372  1
  In  In64  1  0.83251670  0.80622884  -0.01729626  1
  In  In65  1  -0.01957450  -0.01308514  0.65066774  1
  In  In66  1  0.49079908  0.15143139  0.33429665  1
  In  In67  1  0.85142976  -0.01236264  0.16244849  1
  In  In68  1  0.85895436  0.32214068  0.48553030  1
  In  In69  1  0.67622675  0.31888267  0.33888547  1
  In  In70  1  0.31744075  0.34769050  0.65990190  1
  In  In71  1  -0.00678956  0.49656830  0.14838181  1
  Te  Te72  1  0.06043361  0.06299829  0.09711480  1
  Te  Te73  1  0.01486738  0.10933576  0.39338480  1
  Te  Te74  1  0.06233448  0.06986504  0.74909759  1
  Te  Te75  1  0.09661042  0.42050485  0.06753203  1
  Te  Te76  1  0.06009229  0.46476860  0.42992039  1
  Te  Te77  1  0.07759744  0.43461939  0.76009109  1
  Te  Te78  1  0.07155109  0.78601545  0.09306257  1
  Te  Te79  1  0.08565520  0.74753743  0.39825283  1
  Te  Te80  1  0.02830526  0.72543063  0.72323533  1
  Te  Te81  1  0.40504970  0.09284430  0.09898152  1
  Te  Te82  1  0.40925189  0.06897544  0.43261783  1
  Te  Te83  1  0.42408223  0.06554596  0.77151284  1
  Te  Te84  1  0.43216649  0.42374095  0.08167885  1
  Te  Te85  1  0.41299758  0.42852143  0.39229166  1
  Te  Te86  1  0.41935027  0.41594586  0.74562061  1
  Te  Te87  1  0.43822089  0.75904989  0.07535253  1
  Te  Te88  1  0.43806912  0.74384376  0.42271744  1
  Te  Te89  1  0.39803652  0.73355975  0.75906999  1
  Te  Te90  1  0.75905201  0.09060703  0.09279907  1
  Te  Te91  1  0.76585045  0.10790538  0.42166670  1
  Te  Te92  1  0.76428642  0.07719606  0.77203513  1
  Te  Te93  1  0.76774902  0.40955149  0.09361519  1
  Te  Te94  1  0.75995579  0.41785293  0.41697258  1
  Te  Te95  1  0.74178488  0.45181675  0.74575355  1
  Te  Te96  1  0.78024088  0.71771608  0.09298370  1
  Te  Te97  1  0.72820197  0.78467692  0.43946873  1
  Te  Te98  1  0.75701811  0.75654197  0.75411830  1
  Te  Te99  1  0.04323172  0.28923316  0.26832654  1
  Te  Te100  1  0.08215062  0.25505344  0.57921060  1
  Te  Te101  1  0.08276197  0.24517838  0.90147682  1
  Te  Te102  1  0.09177084  0.59465320  0.22937362  1
  Te  Te103  1  0.05901921  0.59258538  0.60165595  1
  Te  Te104  1  0.06908638  0.62642838  0.92666943  1
  Te  Te105  1  0.08444976  0.96496934  0.23579264  1
  Te  Te106  1  0.07951284  0.91156074  0.57597352  1
  Te  Te107  1  0.05075926  0.91292180  0.90030099  1
  Te  Te108  1  0.39630591  0.24658826  0.26405004  1
  Te  Te109  1  0.43028041  0.25979314  0.58133693  1
  Te  Te110  1  0.43435459  0.26341040  0.92144858  1
  Te  Te111  1  0.44672573  0.59549299  0.23272590  1
  Te  Te112  1  0.41929028  0.56701473  0.57320392  1
  Te  Te113  1  0.44839207  0.55691264  0.91682256  1
  Te  Te114  1  0.41664593  0.90972120  0.26260497  1
  Te  Te115  1  0.39323224  0.90268184  0.59074970  1
  Te  Te116  1  0.42435626  0.90037574  0.93832461  1
  Te  Te117  1  0.76750279  0.23564521  0.26073964  1
  Te  Te118  1  0.74737962  0.25462461  0.57138462  1
  Te  Te119  1  0.76204281  0.25372191  0.92179139  1
  Te  Te120  1  0.76726545  0.56139515  0.26983817  1
  Te  Te121  1  0.79879999  0.61361141  0.58361109  1
  Te  Te122  1  0.71107597  0.58609949  0.92588590  1
  Te  Te123  1  0.74520428  0.92077920  0.26220680  1
  Te  Te124  1  0.77841637  0.91154754  0.60416988  1
  Te  Te125  1  0.74193526  0.89442604  0.89612511  1
  Te  Te126  1  0.24023486  0.25063157  0.07156123  1
  Te  Te127  1  0.21339647  0.21955228  0.40136901  1
  Te  Te128  1  0.26338155  0.23135595  0.74125313  1
  Te  Te129  1  0.26644346  0.57515118  0.08065701  1
  Te  Te130  1  0.25840778  0.58765409  0.42731019  1
  Te  Te131  1  0.22860632  0.59175234  0.75523709  1
  Te  Te132  1  0.23816363  0.93013213  0.08001655  1
  Te  Te133  1  0.22849945  0.92256858  0.41263629  1
  Te  Te134  1  0.22409300  0.91332049  0.76292319  1
  Te  Te135  1  0.60335902  0.25234579  0.07444468  1
  Te  Te136  1  0.57822963  0.23614223  0.42409927  1
  Te  Te137  1  0.57899652  0.25451862  0.77057666  1
  Te  Te138  1  0.61438092  0.59887055  0.05769454  1
  Te  Te139  1  0.59952699  0.58639531  0.43944394  1
  Te  Te140  1  0.59908983  0.64062731  0.71748613  1
  Te  Te141  1  0.60096161  0.90155990  0.08712397  1
  Te  Te142  1  0.58093569  0.94478683  0.43769343  1
  Te  Te143  1  0.55945850  0.88829694  0.74852832  1
  Te  Te144  1  0.92707872  0.25228647  0.08304620  1
  Te  Te145  1  0.95571826  0.25432860  0.39197045  1
  Te  Te146  1  0.91185269  0.26717331  0.76497620  1
  Te  Te147  1  0.90773629  0.60363182  0.09428275  1
  Te  Te148  1  0.87831103  0.61746479  0.43681460  1
  Te  Te149  1  0.87042011  0.55432811  0.70798780  1
  Te  Te150  1  0.91532130  0.88144113  0.08349900  1
  Te  Te151  1  0.94268467  0.92099993  0.42664897  1
  Te  Te152  1  0.97300133  0.86172843  0.77572045  1
  Te  Te153  1  0.19659099  0.07272631  0.25359062  1
  Te  Te154  1  0.25132352  0.07795775  0.57590684  1
  Te  Te155  1  0.23092046  0.07685243  0.90717382  1
  Te  Te156  1  0.23270644  0.41057530  0.24296776  1
  Te  Te157  1  0.23418426  0.40500588  0.55209870  1
  Te  Te158  1  0.25835242  0.41477379  0.91478841  1
  Te  Te159  1  0.25732323  0.74823846  0.25202836  1
  Te  Te160  1  0.23809538  0.75536087  0.58708678  1
  Te  Te161  1  0.25417422  0.73799527  0.92636665  1
  Te  Te162  1  0.58447986  0.08805791  0.23499281  1
  Te  Te163  1  0.60972557  0.08846889  0.61036029  1
  Te  Te164  1  0.58107458  0.05565389  0.92291966  1
  Te  Te165  1  0.58735884  0.40125327  0.24349794  1
  Te  Te166  1  0.59313139  0.42064819  0.59307661  1
  Te  Te167  1  0.64031854  0.44679477  0.87488844  1
  Te  Te168  1  0.59792775  0.73351042  0.25691511  1
  Te  Te169  1  0.61944239  0.76716363  0.54920095  1
  Te  Te170  1  0.60827616  0.71174451  0.94971244  1
  Te  Te171  1  0.91305486  0.07510823  0.26707585  1
  Te  Te172  1  0.91900753  0.10581468  0.58379974  1
  Te  Te173  1  0.91905712  0.02740276  0.93442159  1
  Te  Te174  1  0.95052350  0.42927905  0.27531427  1
  Te  Te175  1  0.90108218  0.42379708  0.58498838  1
  Te  Te176  1  0.92965849  0.45616909  0.91046751  1
  Te  Te177  1  0.91449652  0.75778772  0.25311194  1
  Te  Te178  1  0.90847194  0.72956778  0.53843603  1
  Te  Te179  1  0.92368485  0.70997998  0.91218703  1
