# generated using pymatgen
data_In2Te3
_symmetry_space_group_name_H-M   'P 1'
_cell_length_a   18.92785440
_cell_length_b   18.93174655
_cell_length_c   18.92944300
_cell_angle_alpha   89.87348412
_cell_angle_beta   90.25577053
_cell_angle_gamma   90.08962052
_symmetry_Int_Tables_number   1
_chemical_formula_structural   In2Te3
_chemical_formula_sum   'In72 Te108'
_cell_volume   6783.03397840
_cell_formula_units_Z   36
loop_
 _symmetry_equiv_pos_site_id
 _symmetry_equiv_pos_as_xyz
  1  'x, y, z'
loop_
 _atom_site_type_symbol
 _atom_site_label
 _atom_site_symmetry_multiplicity
 _atom_site_fract_x
 _atom_site_fract_y
 _atom_site_fract_z
 _atom_site_occupancy
  In  In0  1  0.32542281  0.48030177  0.84734292  1
  In  In1  1  0.14753792  0.18972256  0.68888063  1
  In  In2  1  0.34451188  0.34942113  0.66252707  1
  In  In3  1  0.02397023  0.64183650  0.01627412  1
  In  In4  1  0.51470997  -0.01201348  0.83498990  1
  In  In5  1  -0.00230594  0.66738246  0.31392958  1
  In  In6  1  0.30209803  0.33160919  0.02056977  1
  In  In7  1  -0.02222821  0.33758333  0.64357184  1
  In  In8  1  -0.00530504  0.48954610  0.46215037  1
  In  In9  1  0.64728758  0.03374875  0.30698062  1
  In  In10  1  0.00651417  0.16577275  0.85737671  1
  In  In11  1  0.33718177  -0.02006094  0.31243211  1
  In  In12  1  0.14817717  0.85407886  0.34400721  1
  In  In13  1  0.83374942  0.34092432  0.47666951  1
  In  In14  1  0.49898841  0.48681042  0.32568835  1
  In  In15  1  0.46365207  0.50874667  0.01856671  1
  In  In16  1  0.19020021  0.82447473  0.68511377  1
  In  In17  1  0.67956105  0.15908802  0.82210938  1
  In  In18  1  0.13988973  0.01034305  0.50197428  1
  In  In19  1  0.68065052  0.65442658  0.30731937  1
  In  In20  1  0.51085041  0.30050195  0.46931016  1
  In  In21  1  0.69136154  0.01800523  0.00872298  1
  In  In22  1  0.85119970  0.81394404  0.67915006  1
  In  In23  1  -0.03715974  -0.01202612  0.03642120  1
  In  In24  1  0.51086276  0.79367057  0.62818323  1
  In  In25  1  0.55884680  0.49135312  0.63386248  1
  In  In26  1  0.67499319  0.83166025  0.85353905  1
  In  In27  1  0.31729020  0.15729922  0.48829214  1
  In  In28  1  0.50041109  0.84528968  0.01780556  1
  In  In29  1  0.67250934  0.00004819  0.66672144  1
  In  In30  1  0.49855117  0.67603621  0.14270916  1
  In  In31  1  0.16504180  0.02392299  0.14331345  1
  In  In32  1  -0.00278809  0.64970494  0.66039435  1
  In  In33  1  0.34118752  0.64345854  0.67890942  1
  In  In34  1  0.51491040  0.01076651  0.48955760  1
  In  In35  1  0.68264403  0.48629474  0.85560670  1
  In  In36  1  0.15480144  0.35742733  0.85203909  1
  In  In37  1  0.30995566  0.68752691  0.32458508  1
  In  In38  1  0.23646233  0.16396911  0.88970303  1
  In  In39  1  0.48431369  0.31206873  0.84398190  1
  In  In40  1  0.86055685  0.01984866  0.49436923  1
  In  In41  1  0.68200106  0.85628101  0.47125661  1
  In  In42  1  0.87669540  0.34042295  0.86971648  1
  In  In43  1  0.00249724  0.00056630  0.67246694  1
  In  In44  1  0.32513617  0.47889109  0.17896459  1
  In  In45  1  0.32549261  -0.01565436  0.68509218  1
  In  In46  1  0.65289149  0.33187079  0.02147829  1
  In  In47  1  0.32578151  0.53166909  0.49495480  1
  In  In48  1  0.32222763  0.32521827  0.32703965  1
  In  In49  1  0.32599049  0.16572549  0.18351367  1
  In  In50  1  -0.00390900  0.01696677  0.31469742  1
  In  In51  1  -0.01793179  0.80123972  0.51091675  1
  In  In52  1  0.87628083  0.65346849  0.85605228  1
  In  In53  1  0.33832741  0.81466849  0.51080339  1
  In  In54  1  0.66453081  0.83194143  0.15456661  1
  In  In55  1  0.84936419  0.83226073  0.29379457  1
  In  In56  1  0.47856130  0.16138277  0.02999924  1
  In  In57  1  0.84368221  0.18372955  0.31075505  1
  In  In58  1  0.68887729  0.67408561  -0.01014810  1
  In  In59  1  0.01959972  0.84701550  0.84948508  1
  In  In60  1  0.53405720  0.67878560  0.47571899  1
  In  In61  1  0.48736414  0.65569230  0.80692167  1
  In  In62  1  0.70618649  0.33090125  0.66579400  1
  In  In63  1  0.00360514  0.33683986  0.29985696  1
  In  In64  1  0.16371396  0.50455904  0.66555939  1
  In  In65  1  0.26714206  0.67921281  0.03858325  1
  In  In66  1  -0.01009368  0.49801962  0.16914657  1
  In  In67  1  0.50894237  0.13716419  0.66418119  1
  In  In68  1  0.68336903  0.33089221  0.32301020  1
  In  In69  1  0.32018852  0.82276038  0.87482857  1
  In  In70  1  0.69854219  0.49582637  0.16847322  1
  In  In71  1  0.84912766  0.19241628  0.01871036  1
  Te  Te72  1  0.03735954  0.10316908  0.10660610  1
  Te  Te73  1  0.07768028  0.10016632  0.40508512  1
  Te  Te74  1  0.09292798  0.07389474  0.77142881  1
  Te  Te75  1  0.04376958  0.39739777  0.07328506  1
  Te  Te76  1  0.09514418  0.41138034  0.38960854  1
  Te  Te77  1  0.06906118  0.41594093  0.74332676  1
  Te  Te78  1  0.12843802  0.73631719  0.06800090  1
  Te  Te79  1  0.08644594  0.74018090  0.42191433  1
  Te  Te80  1  0.07640630  0.74732578  0.74828917  1
  Te  Te81  1  0.39895266  0.05710429  0.10576429  1
  Te  Te82  1  0.41545442  0.08318722  0.40210156  1
  Te  Te83  1  0.41099848  0.08253849  0.76487362  1
  Te  Te84  1  0.42061344  0.38932682  0.09874599  1
  Te  Te85  1  0.41743066  0.41634931  0.43292442  1
  Te  Te86  1  0.43214764  0.43622423  0.74956519  1
  Te  Te87  1  0.39112650  0.76394915  0.08509429  1
  Te  Te88  1  0.42470566  0.75659318  0.40249185  1
  Te  Te89  1  0.40314100  0.77111382  0.74876234  1
  Te  Te90  1  0.76917109  0.09956790  0.10462456  1
  Te  Te91  1  0.76273186  0.08303033  0.40022154  1
  Te  Te92  1  0.76965971  0.08514587  0.73541387  1
  Te  Te93  1  0.77045001  0.39212789  0.08997688  1
  Te  Te94  1  0.77470008  0.43774353  0.37706616  1
  Te  Te95  1  0.78115005  0.41312364  0.76741483  1
  Te  Te96  1  0.76569820  0.78441677  0.05558522  1
  Te  Te97  1  0.76201687  0.75372521  0.39093973  1
  Te  Te98  1  0.76595421  0.73792676  0.77808522  1
  Te  Te99  1  0.04329589  0.21917955  0.21393400  1
  Te  Te100  1  0.08919568  0.26619972  0.57961695  1
  Te  Te101  1  0.11204768  0.23881304  0.93698951  1
  Te  Te102  1  0.09376900  0.57928759  0.24200192  1
  Te  Te103  1  0.08264352  0.57609788  0.56101125  1
  Te  Te104  1  0.02775916  0.56810577  0.88606935  1
  Te  Te105  1  0.07895774  0.92453589  0.22958315  1
  Te  Te106  1  0.08588323  0.89455197  0.58915782  1
  Te  Te107  1  0.07904291  0.93156522  0.95862688  1
  Te  Te108  1  0.42662616  0.24475874  0.26078523  1
  Te  Te109  1  0.41853453  0.24030584  0.58581024  1
  Te  Te110  1  0.38093646  0.23434431  0.93119410  1
  Te  Te111  1  0.42073458  0.58771506  0.24107692  1
  Te  Te112  1  0.44644701  0.59317290  0.57727104  1
  Te  Te113  1  0.39663586  0.59995100  0.91812660  1
  Te  Te114  1  0.41835996  0.93612751  0.20151228  1
  Te  Te115  1  0.42863550  0.92684022  0.58306160  1
  Te  Te116  1  0.41139791  0.93430795  0.93116390  1
  Te  Te117  1  0.77103647  0.27487170  0.21719466  1
  Te  Te118  1  0.77169038  0.24389699  0.56975252  1
  Te  Te119  1  0.74459813  0.26070220  0.91545612  1
  Te  Te120  1  0.77733150  0.61844534  0.20027036  1
  Te  Te121  1  0.68579337  0.55935140  0.61990497  1
  Te  Te122  1  0.77947733  0.56409053  0.94188827  1
  Te  Te123  1  0.73968257  0.92629902  0.24703794  1
  Te  Te124  1  0.77355229  0.91429785  0.58015428  1
  Te  Te125  1  0.75861283  0.93983423  0.90525535  1
  Te  Te126  1  0.22361273  0.25979123  0.12370555  1
  Te  Te127  1  0.23220624  0.25312261  0.41880333  1
  Te  Te128  1  0.25782864  0.27107598  0.76022965  1
  Te  Te129  1  0.21806505  0.57403136  0.13401533  1
  Te  Te130  1  0.24103549  0.57293714  0.38365922  1
  Te  Te131  1  0.23839558  0.58277369  0.77202559  1
  Te  Te132  1  0.21850558  0.91972579  0.04762860  1
  Te  Te133  1  0.25600454  0.92264509  0.44255175  1
  Te  Te134  1  0.23574903  0.92430245  0.79089375  1
  Te  Te135  1  0.59240575  0.22304191  0.10485721  1
  Te  Te136  1  0.59971393  0.22026351  0.38211516  1
  Te  Te137  1  0.58275783  0.25468262  0.73815888  1
  Te  Te138  1  0.59488672  0.57949661  0.07531699  1
  Te  Te139  1  0.60345510  0.56372160  0.40441311  1
  Te  Te140  1  0.61436823  0.58943372  0.75856788  1
  Te  Te141  1  0.58536209  0.94730462  0.09138360  1
  Te  Te142  1  0.57355778  0.91935688  0.38570345  1
  Te  Te143  1  0.58541558  0.89561906  0.73586771  1
  Te  Te144  1  0.95599198  0.26870043  0.09298524  1
  Te  Te145  1  0.93527773  0.25169333  0.41032546  1
  Te  Te146  1  0.92396011  0.24775031  0.75968443  1
  Te  Te147  1  0.90541518  0.60070438  0.09813105  1
  Te  Te148  1  0.90474339  0.58500155  0.39295662  1
  Te  Te149  1  0.91398120  0.56282597  0.74586586  1
  Te  Te150  1  0.88905564  0.88018334  0.10919366  1
  Te  Te151  1  0.92836426  0.90503263  0.41279035  1
  Te  Te152  1  0.91430567  0.92077642  0.76621374  1
  Te  Te153  1  0.23352043  0.08051365  0.27063818  1
  Te  Te154  1  0.24099291  0.08272944  0.60420201  1
  Te  Te155  1  0.22673663  0.06776303  1.00299807  1
  Te  Te156  1  0.22189244  0.38327039  0.23124384  1
  Te  Te157  1  0.24933241  0.42223121  0.57084498  1
  Te  Te158  1  0.22496986  0.44656161  0.95614379  1
  Te  Te159  1  0.24028149  0.79040609  0.24861955  1
  Te  Te160  1  0.24621362  0.72164361  0.58612071  1
  Te  Te161  1  0.20651632  0.73527226  0.91390568  1
  Te  Te162  1  0.55775410  0.13271875  0.24383959  1
  Te  Te163  1  0.61414116  0.09832996  0.56366601  1
  Te  Te164  1  0.57434635  0.10237813  0.91671288  1
  Te  Te165  1  0.58641720  0.41126980  0.23051428  1
  Te  Te166  1  0.61525172  0.37842399  0.54707538  1
  Te  Te167  1  0.56159604  0.42330792  0.92584866  1
  Te  Te168  1  0.57703176  0.75064985  0.24844738  1
  Te  Te169  1  0.63849384  0.74189447  0.56807201  1
  Te  Te170  1  0.56365496  0.74077532  0.91714031  1
  Te  Te171  1  0.88932290  0.06990191  0.22515724  1
  Te  Te172  1  0.94832260  0.10033404  0.57960286  1
  Te  Te173  1  0.90271025  0.08354485  0.92710435  1
  Te  Te174  1  0.89379216  0.43418550  0.26674568  1
  Te  Te175  1  0.89631893  0.44258675  0.57183505  1
  Te  Te176  1  0.96447078  0.43700225  0.94330147  1
  Te  Te177  1  0.95306411  0.76817336  0.20927478  1
  Te  Te178  1  0.88068545  0.70862763  0.57432464  1
  Te  Te179  1  0.94242789  0.75689327  0.94229918  1
