# generated using pymatgen
data_In2Te3
_symmetry_space_group_name_H-M   'P 1'
_cell_length_a   18.92290600
_cell_length_b   18.93825800
_cell_length_c   18.93700043
_cell_angle_alpha   89.83674130
_cell_angle_beta   89.99393785
_cell_angle_gamma   90.03513109
_symmetry_Int_Tables_number   1
_chemical_formula_structural   In2Te3
_chemical_formula_sum   'In72 Te108'
_cell_volume   6786.36482036
_cell_formula_units_Z   36
loop_
 _symmetry_equiv_pos_site_id
 _symmetry_equiv_pos_as_xyz
  1  'x, y, z'
loop_
 _atom_site_type_symbol
 _atom_site_label
 _atom_site_symmetry_multiplicity
 _atom_site_fract_x
 _atom_site_fract_y
 _atom_site_fract_z
 _atom_site_occupancy
  In  In0  1  0.68413776  0.17206925  0.49518447  1
  In  In1  1  0.66628165  0.84885551  0.47189734  1
  In  In2  1  0.66888494  0.64031989  0.02863442  1
  In  In3  1  0.67604897  0.03026457  0.66340201  1
  In  In4  1  0.49461407  0.83231009  0.33842519  1
  In  In5  1  0.30037789  0.82646441  0.51478488  1
  In  In6  1  0.01047460  0.02004294  0.34627493  1
  In  In7  1  0.84836266  0.00300407  0.19604853  1
  In  In8  1  0.48544470  0.48807824  0.65905239  1
  In  In9  1  0.49043127  0.17295884  0.66818002  1
  In  In10  1  0.16299288  0.48968967  0.63760211  1
  In  In11  1  0.49439106  0.65390784  0.16738033  1
  In  In12  1  0.66539986  0.50160958  0.86110061  1
  In  In13  1  0.02345968  0.34346081  0.00386517  1
  In  In14  1  0.15336089  0.84008207  0.01327362  1
  In  In15  1  0.14645832  0.67270604  0.82955918  1
  In  In16  1  0.15866096  0.02404144  0.80759173  1
  In  In17  1  0.62849990  0.83046716  0.15592161  1
  In  In18  1  0.84013293  0.34741150  0.17548077  1
  In  In19  1  0.69164786  0.20044976  0.16379027  1
  In  In20  1  0.00531629  -0.00616864  0.00763118  1
  In  In21  1  -0.02085749  0.31680453  0.35626331  1
  In  In22  1  0.85049250  0.49226490  0.64209833  1
  In  In23  1  0.15693006  0.16331951  -0.00663285  1
  In  In24  1  0.70940178  0.62221106  0.32152082  1
  In  In25  1  0.19504687  0.28928848  0.81698212  1
  In  In26  1  -0.01012105  0.31496193  0.65646383  1
  In  In27  1  0.35909937  0.36189150  0.02940437  1
  In  In28  1  0.50812766  0.50434187  0.31789438  1
  In  In29  1  0.32903520  0.33840487  0.35268970  1
  In  In30  1  0.35378153  0.83739404  0.82438713  1
  In  In31  1  0.17244520  0.00178175  0.15822289  1
  In  In32  1  0.33312814  0.65528844  -0.00114953  1
  In  In33  1  0.47044025  0.82227538  0.65676507  1
  In  In34  1  0.17597424  0.31772706  0.50493095  1
  In  In35  1  0.17317423  0.02310808  0.50100152  1
  In  In36  1  0.49047802  0.67871248  0.84251632  1
  In  In37  1  0.65765449  0.34277866  0.00573326  1
  In  In38  1  0.52005740  0.00376180  0.83929882  1
  In  In39  1  -0.02569163  0.02772395  0.64181619  1
  In  In40  1  0.17263682  0.51374217  0.33340968  1
  In  In41  1  0.83477886  0.33947820  0.82384120  1
  In  In42  1  0.49020732  0.16961598  -0.01748267  1
  In  In43  1  0.67753295  0.02240537  0.33418702  1
  In  In44  1  0.34302538  0.00543578  0.33846694  1
  In  In45  1  0.33152895  0.49025410  0.82297151  1
  In  In46  1  0.65203461  0.32268972  0.66012206  1
  In  In47  1  0.50088626  0.65293108  0.50080705  1
  In  In48  1  0.32266496  0.18384145  0.17505457  1
  In  In49  1  0.84187837  0.17427843  0.00632262  1
  In  In50  1  0.51102713  0.84659517  -0.01871639  1
  In  In51  1  0.83215601  0.82668165  0.65508651  1
  In  In52  1  0.16422602  0.66322394  0.48790577  1
  In  In53  1  0.69848861  0.38232451  0.33154100  1
  In  In54  1  0.14191718  0.33858129  0.19114370  1
  In  In55  1  0.50273208  0.32384299  0.50994923  1
  In  In56  1  -0.03900045  0.64975139  0.01760149  1
  In  In57  1  0.33859255  0.00492693  0.66257352  1
  In  In58  1  0.18758680  0.79796667  0.29009596  1
  In  In59  1  0.68957395  0.84664152  0.81280164  1
  In  In60  1  0.67418553  0.65431805  0.66066516  1
  In  In61  1  0.01019674  0.48312226  0.83485261  1
  In  In62  1  0.48704928  0.00280381  0.17092279  1
  In  In63  1  0.48620134  0.16868964  0.34706294  1
  In  In64  1  0.82533491  0.80736568  -0.01193039  1
  In  In65  1  0.83152767  0.01289730  0.81979177  1
  In  In66  1  0.01410631  0.83412790  0.51120813  1
  In  In67  1  0.84993690  0.83194167  0.32990690  1
  In  In68  1  0.00787372  0.80783870  0.16798340  1
  In  In69  1  0.00598768  0.65622873  0.65377758  1
  In  In70  1  0.18471354  0.49198934  0.02518595  1
  In  In71  1  -0.02476801  0.63599398  0.35532575  1
  Te  Te72  1  0.06970453  0.09611652  0.09838383  1
  Te  Te73  1  0.06493773  0.11128911  0.44958719  1
  Te  Te74  1  0.05934905  0.10646183  0.73448456  1
  Te  Te75  1  0.06704828  0.44413313  0.10908128  1
  Te  Te76  1  0.09650848  0.40362554  0.40804921  1
  Te  Te77  1  0.09392573  0.39594013  0.74517789  1
  Te  Te78  1  0.09091994  0.72070761  0.07987592  1
  Te  Te79  1  0.07444527  0.75543853  0.39550142  1
  Te  Te80  1  0.08045434  0.75781825  0.72997739  1
  Te  Te81  1  0.39931995  0.09016759  0.08473055  1
  Te  Te82  1  0.38437954  0.10948541  0.43708781  1
  Te  Te83  1  0.41363991  0.08494536  0.76667157  1
  Te  Te84  1  0.44726144  0.44725037  0.10603432  1
  Te  Te85  1  0.42890167  0.42583730  0.42456219  1
  Te  Te86  1  0.42775539  0.39831712  0.76072444  1
  Te  Te87  1  0.43043297  0.75197791  0.06856364  1
  Te  Te88  1  0.40645532  0.75163017  0.43117999  1
  Te  Te89  1  0.39250944  0.71867300  0.73369905  1
  Te  Te90  1  0.76003583  0.08325821  0.09722245  1
  Te  Te91  1  0.77652745  0.06996191  0.43345179  1
  Te  Te92  1  0.76499558  0.11801632  0.73908552  1
  Te  Te93  1  0.76161461  0.42561304  0.07464858  1
  Te  Te94  1  0.79748181  0.42250333  0.43241686  1
  Te  Te95  1  0.74527525  0.43398800  0.74426187  1
  Te  Te96  1  0.74468966  0.74769091  0.10352901  1
  Te  Te97  1  0.75348807  0.74433367  0.40832251  1
  Te  Te98  1  0.76768207  0.73114380  0.75420570  1
  Te  Te99  1  0.06845259  0.23773479  0.26679975  1
  Te  Te100  1  0.09548188  0.22925005  0.59613056  1
  Te  Te101  1  0.07219036  0.24614359  0.89769189  1
  Te  Te102  1  0.07271582  0.59061003  0.25624418  1
  Te  Te103  1  0.06448748  0.56401260  0.54933017  1
  Te  Te104  1  0.08952735  0.57183498  0.93047104  1
  Te  Te105  1  0.07673364  0.91743807  0.24638353  1
  Te  Te106  1  0.09058023  0.93383884  0.59300451  1
  Te  Te107  1  0.08686218  0.92057153  0.90488053  1
  Te  Te108  1  0.42127896  0.26770688  0.25207064  1
  Te  Te109  1  0.39561479  0.26553820  0.59731849  1
  Te  Te110  1  0.39388213  0.26619514  0.92525864  1
  Te  Te111  1  0.40407887  0.60552601  0.27595183  1
  Te  Te112  1  0.40238532  0.58596936  0.58592143  1
  Te  Te113  1  0.42530166  0.56573150  0.91920758  1
  Te  Te114  1  0.40009338  0.89990968  0.24069619  1
  Te  Te115  1  0.41334867  0.92256279  0.55935321  1
  Te  Te116  1  0.40734148  0.93901820  0.92238236  1
  Te  Te117  1  0.76904771  0.25471918  0.27943263  1
  Te  Te118  1  0.75915845  0.27087571  0.57356022  1
  Te  Te119  1  0.74935269  0.25538835  0.91900395  1
  Te  Te120  1  0.78925954  0.54477347  0.22341499  1
  Te  Te121  1  0.76521584  0.58826633  0.56595222  1
  Te  Te122  1  0.75956655  0.59595320  0.92244677  1
  Te  Te123  1  0.73521436  0.90506597  0.24945432  1
  Te  Te124  1  0.74600258  0.92434976  0.57801295  1
  Te  Te125  1  0.75489135  0.92603792  0.92258318  1
  Te  Te126  1  0.23257048  0.26672336  0.08313948  1
  Te  Te127  1  0.26491667  0.22607053  0.42446229  1
  Te  Te128  1  0.26599158  0.23162772  0.70115571  1
  Te  Te129  1  0.26580796  0.58293845  0.11117188  1
  Te  Te130  1  0.26517706  0.57611862  0.42948255  1
  Te  Te131  1  0.22894923  0.57349566  0.74730011  1
  Te  Te132  1  0.25870766  0.90736859  0.08794758  1
  Te  Te133  1  0.23775090  0.91360926  0.40567615  1
  Te  Te134  1  0.25104213  0.91230382  0.74416173  1
  Te  Te135  1  0.57106774  0.24872824  0.08912310  1
  Te  Te136  1  0.59481036  0.26091806  0.40277582  1
  Te  Te137  1  0.57927567  0.24566057  0.76005957  1
  Te  Te138  1  0.56889232  0.54722813  0.09012671  1
  Te  Te139  1  0.60117168  0.57383436  0.41810539  1
  Te  Te140  1  0.57568334  0.58458612  0.75264556  1
  Te  Te141  1  0.58623699  0.94627809  0.06883118  1
  Te  Te142  1  0.56698429  0.94566372  0.40917261  1
  Te  Te143  1  0.57477692  0.90803944  0.73273942  1
  Te  Te144  1  0.93275461  0.25827842  0.09280771  1
  Te  Te145  1  0.92324244  0.23596608  0.47055210  1
  Te  Te146  1  0.90154581  0.23444771  0.74517491  1
  Te  Te147  1  0.86472581  0.56210497  0.08815155  1
  Te  Te148  1  0.85579663  0.56360194  0.41196978  1
  Te  Te149  1  0.92296451  0.57350723  0.75127985  1
  Te  Te150  1  0.91191385  0.90407087  0.09014630  1
  Te  Te151  1  0.92185030  0.92180244  0.42661736  1
  Te  Te152  1  0.91772014  0.91793796  0.73938645  1
  Te  Te153  1  0.24061495  0.08968471  0.26178246  1
  Te  Te154  1  0.24080543  0.10620940  0.60972894  1
  Te  Te155  1  0.24507026  0.08118649  0.91142266  1
  Te  Te156  1  0.25827722  0.41882118  0.24536470  1
  Te  Te157  1  0.26829343  0.40294643  0.58482015  1
  Te  Te158  1  0.23952628  0.40545158  0.91433981  1
  Te  Te159  1  0.27441552  0.69759676  0.23166941  1
  Te  Te160  1  0.21496278  0.74395381  0.60120826  1
  Te  Te161  1  0.25512875  0.75293732  0.91069274  1
  Te  Te162  1  0.58124116  0.10000672  0.24267345  1
  Te  Te163  1  0.57520202  0.09276586  0.56994276  1
  Te  Te164  1  0.60026429  0.09928714  0.91441305  1
  Te  Te165  1  0.59012329  0.41185206  0.23728793  1
  Te  Te166  1  0.59435656  0.43077192  0.57021545  1
  Te  Te167  1  0.56810398  0.40190973  0.90408277  1
  Te  Te168  1  0.58769658  0.73487785  0.26729763  1
  Te  Te169  1  0.59235086  0.76208577  0.57729766  1
  Te  Te170  1  0.60592094  0.75271768  0.90828711  1
  Te  Te171  1  0.92330324  0.10716861  0.26380491  1
  Te  Te172  1  0.88515243  0.11171500  0.55504587  1
  Te  Te173  1  0.92565074  0.08560726  0.91644452  1
  Te  Te174  1  0.91316797  0.42772203  0.27689622  1
  Te  Te175  1  0.92924896  0.40306740  0.55144659  1
  Te  Te176  1  0.91223854  0.41754977  0.92921739  1
  Te  Te177  1  0.90770165  0.72417053  0.24259227  1
  Te  Te178  1  0.91065462  0.73577669  0.56321779  1
  Te  Te179  1  0.93626613  0.74931303  0.91344800  1
