# generated using pymatgen
data_In2Te3
_symmetry_space_group_name_H-M   'P 1'
_cell_length_a   18.75359124
_cell_length_b   18.75793691
_cell_length_c   18.75392963
_cell_angle_alpha   89.95656171
_cell_angle_beta   90.00262733
_cell_angle_gamma   90.03850363
_symmetry_Int_Tables_number   1
_chemical_formula_structural   In2Te3
_chemical_formula_sum   'In72 Te108'
_cell_volume   6597.22924183
_cell_formula_units_Z   36
loop_
 _symmetry_equiv_pos_site_id
 _symmetry_equiv_pos_as_xyz
  1  'x, y, z'
loop_
 _atom_site_type_symbol
 _atom_site_label
 _atom_site_symmetry_multiplicity
 _atom_site_fract_x
 _atom_site_fract_y
 _atom_site_fract_z
 _atom_site_occupancy
  In  In0  1  0.00859930  0.82007647  0.16216582  1
  In  In1  1  0.82417634  0.16830157  0.32469382  1
  In  In2  1  -0.00367186  0.85361636  0.87598570  1
  In  In3  1  0.17126090  0.17475654  0.67112885  1
  In  In4  1  0.82861004  0.18551364  0.66619608  1
  In  In5  1  0.81755637  0.01201273  0.46361535  1
  In  In6  1  0.83493071  0.34406453  0.49604814  1
  In  In7  1  0.34746449  -0.00891286  0.32927878  1
  In  In8  1  0.52511043  0.00310803  0.19986081  1
  In  In9  1  0.83818630  0.62683418  0.45910485  1
  In  In10  1  0.16865355  0.65707692  0.86529451  1
  In  In11  1  0.16165266  0.18664347  0.33062752  1
  In  In12  1  0.66748706  0.48692331  0.85639752  1
  In  In13  1  0.14324252  0.16133574  0.00174110  1
  In  In14  1  0.00027271  0.16906381  0.49715350  1
  In  In15  1  0.32549538  0.34603122  -0.02095003  1
  In  In16  1  0.65493543  0.67288247  0.03045739  1
  In  In17  1  0.83061393  0.81693317  0.02533659  1
  In  In18  1  0.32969324  0.69171706  0.31714626  1
  In  In19  1  0.32532108  0.17241503  0.82036559  1
  In  In20  1  0.17846226  -0.00132797  0.48846472  1
  In  In21  1  0.85113642  0.51039793  0.31665308  1
  In  In22  1  0.17774384  0.80577653  0.66290673  1
  In  In23  1  0.32231512  0.33529357  0.31633195  1
  In  In24  1  0.50863182  0.17225765  0.00240080  1
  In  In25  1  0.66313071  0.31458400  0.65719711  1
  In  In26  1  0.84396841  0.83432267  0.65889245  1
  In  In27  1  0.49581366  0.17740495  0.67206266  1
  In  In28  1  0.82936332  -0.00106830  0.18525269  1
  In  In29  1  0.33058214  0.66595893  0.65002503  1
  In  In30  1  0.84129163  0.48809917  0.64121871  1
  In  In31  1  0.50297735  0.49261233  0.31615869  1
  In  In32  1  0.34234981  0.83003001  0.85433067  1
  In  In33  1  0.32117101  -0.03379543  0.02152917  1
  In  In34  1  0.02675221  0.02017691  0.66197192  1
  In  In35  1  0.83045859  0.16317227  -0.00013410  1
  In  In36  1  0.15156638  -0.01361132  0.15130804  1
  In  In37  1  0.66741420  0.00496526  0.67654717  1
  In  In38  1  0.17085990  0.47340218  0.66846843  1
  In  In39  1  0.63419507  0.63425202  0.69669818  1
  In  In40  1  0.65943507  0.69218084  0.29194746  1
  In  In41  1  0.51358537  0.32784241  0.17073180  1
  In  In42  1  0.34742302  0.01261901  0.65393794  1
  In  In43  1  0.65485226  0.00384820  0.01218376  1
  In  In44  1  0.51385025  0.29570711  0.48099060  1
  In  In45  1  0.82951416  0.34846384  0.17222984  1
  In  In46  1  0.50066113  0.50732571  -0.00602978  1
  In  In47  1  0.50200445  0.84706082  0.65538678  1
  In  In48  1  0.83940854  0.31077986  0.84502995  1
  In  In49  1  0.51916891  0.65504291  0.84486677  1
  In  In50  1  0.14915156  0.33286319  0.16374706  1
  In  In51  1  0.83923518  0.02848076  0.83641334  1
  In  In52  1  0.66772918  0.48646384  0.49433478  1
  In  In53  1  0.84573737  0.69445694  0.85045690  1
  In  In54  1  0.33546268  0.69226751  0.03685866  1
  In  In55  1  0.00339961  0.34091937  0.00732533  1
  In  In56  1  0.31060881  0.50576309  0.49786499  1
  In  In57  1  0.01874578  0.49686524  0.83118780  1
  In  In58  1  0.63838998  0.83720420  0.47760187  1
  In  In59  1  0.00924520  0.47045230  0.46554251  1
  In  In60  1  0.15927162  -0.01184927  0.84381960  1
  In  In61  1  0.33447549  0.46690393  0.83681365  1
  In  In62  1  0.01947813  0.80783738  0.46428209  1
  In  In63  1  0.14627625  0.68471281  0.47606335  1
  In  In64  1  0.65819530  0.82137504  0.85549554  1
  In  In65  1  0.00884267  0.66220054  0.66898107  1
  In  In66  1  0.34857615  0.16916758  0.17612801  1
  In  In67  1  0.31282158  0.50573706  0.17945508  1
  In  In68  1  0.50909916  0.01187756  0.47086900  1
  In  In69  1  0.83767095  0.83900786  0.31343788  1
  In  In70  1  0.47399073  0.66035771  0.47181089  1
  In  In71  1  0.84921128  0.51540609  0.04137892  1
  Te  Te72  1  0.06203739  0.09606335  0.10522166  1
  Te  Te73  1  0.07683210  0.07482663  0.40536036  1
  Te  Te74  1  0.08232152  0.10197574  0.77658928  1
  Te  Te75  1  0.08353222  0.43984901  0.08490567  1
  Te  Te76  1  0.11217440  0.39825583  0.39140945  1
  Te  Te77  1  0.08004523  0.38975251  0.75179529  1
  Te  Te78  1  0.10789382  0.70923560  0.12105692  1
  Te  Te79  1  0.11378828  0.76946364  0.35034119  1
  Te  Te80  1  0.07514052  0.75704410  0.76988219  1
  Te  Te81  1  0.42544138  0.07077071  0.08890706  1
  Te  Te82  1  0.40247826  0.09786515  0.41561226  1
  Te  Te83  1  0.42805328  0.07205194  0.76589827  1
  Te  Te84  1  0.40413349  0.41377752  0.09482681  1
  Te  Te85  1  0.41535853  0.41888675  0.41500241  1
  Te  Te86  1  0.43488678  0.41202022  0.74823211  1
  Te  Te87  1  0.42749786  0.77081991  0.12467360  1
  Te  Te88  1  0.42837727  0.77491693  0.39301252  1
  Te  Te89  1  0.42286628  0.74367164  0.74694519  1
  Te  Te90  1  0.73996169  0.09200802  0.10208219  1
  Te  Te91  1  0.70943631  0.08117753  0.38498796  1
  Te  Te92  1  0.73452040  0.11152755  0.76278058  1
  Te  Te93  1  0.74250976  0.42146895  0.07428038  1
  Te  Te94  1  0.74930023  0.41331494  0.39135103  1
  Te  Te95  1  0.74995232  0.41621320  0.74061958  1
  Te  Te96  1  0.75207651  0.73880577  0.12432669  1
  Te  Te97  1  0.75488424  0.75160337  0.41764354  1
  Te  Te98  1  0.73870543  0.74936744  0.74472094  1
  Te  Te99  1  0.05808735  0.24724720  0.24338263  1
  Te  Te100  1  0.08908944  0.25522279  0.57630078  1
  Te  Te101  1  0.09796831  0.27100453  0.91555867  1
  Te  Te102  1  0.05561424  0.60647522  0.21936976  1
  Te  Te103  1  0.09120101  0.57404214  0.57675107  1
  Te  Te104  1  0.07056446  0.57815989  0.94327694  1
  Te  Te105  1  0.07377851  0.91490763  0.25858520  1
  Te  Te106  1  0.08005773  0.90105087  0.58124168  1
  Te  Te107  1  0.09930215  0.91836601  0.96019076  1
  Te  Te108  1  0.43716017  0.24191630  0.27469612  1
  Te  Te109  1  0.41070203  0.25371325  0.57769311  1
  Te  Te110  1  0.42283590  0.25684175  0.90491223  1
  Te  Te111  1  0.42249753  0.59509201  0.23779449  1
  Te  Te112  1  0.42576217  0.56855371  0.58291909  1
  Te  Te113  1  0.39507026  0.59769603  0.92225210  1
  Te  Te114  1  0.40944633  0.90426210  0.22142596  1
  Te  Te115  1  0.41160051  0.91561964  0.55650558  1
  Te  Te116  1  0.43018028  0.91695005  0.93414208  1
  Te  Te117  1  0.73394384  0.25435125  0.24142992  1
  Te  Te118  1  0.74197052  0.23602977  0.55110909  1
  Te  Te119  1  0.73456290  0.25187774  0.92801562  1
  Te  Te120  1  0.75006235  0.58817358  0.23760023  1
  Te  Te121  1  0.74510967  0.59383513  0.58426569  1
  Te  Te122  1  0.74686157  0.60120997  0.92418234  1
  Te  Te123  1  0.72528812  0.91710154  0.25553278  1
  Te  Te124  1  0.73875421  0.91844534  0.57045977  1
  Te  Te125  1  0.76524742  0.91228108  0.91633305  1
  Te  Te126  1  0.25630149  0.24854503  0.08464241  1
  Te  Te127  1  0.24529663  0.26605338  0.42382854  1
  Te  Te128  1  0.25389491  0.27587387  0.74427273  1
  Te  Te129  1  0.23339163  0.59514393  0.09006531  1
  Te  Te130  1  0.23893731  0.59172306  0.39568626  1
  Te  Te131  1  0.24291267  0.58828619  0.74825389  1
  Te  Te132  1  0.25416294  0.87637253  0.12561019  1
  Te  Te133  1  0.24775921  0.90459077  0.39965595  1
  Te  Te134  1  0.25298923  0.91741022  0.74119933  1
  Te  Te135  1  0.60432926  0.23668987  0.09637750  1
  Te  Te136  1  0.60468069  0.22644229  0.38788083  1
  Te  Te137  1  0.58006935  0.25800989  0.76467571  1
  Te  Te138  1  0.57648283  0.57065960  0.10358399  1
  Te  Te139  1  0.59620114  0.59346409  0.40650719  1
  Te  Te140  1  0.54090098  0.52426185  0.75960210  1
  Te  Te141  1  0.60523458  0.90608576  0.11401685  1
  Te  Te142  1  0.57537502  0.91975446  0.37165445  1
  Te  Te143  1  0.57813095  0.91905521  0.76663312  1
  Te  Te144  1  0.91766629  0.24884021  0.09217144  1
  Te  Te145  1  0.92229798  0.26057384  0.40333291  1
  Te  Te146  1  0.93213583  0.24921573  0.74896444  1
  Te  Te147  1  0.92743256  0.60267081  0.13646196  1
  Te  Te148  1  0.96940340  0.59576033  0.38757370  1
  Te  Te149  1  0.90366127  0.58334222  0.75064901  1
  Te  Te150  1  0.91936734  0.92390096  0.08561863  1
  Te  Te151  1  0.92574190  0.92020690  0.40922510  1
  Te  Te152  1  0.92893440  0.92306896  0.75241914  1
  Te  Te153  1  0.24371996  0.08181214  0.24364631  1
  Te  Te154  1  0.25952051  0.10103255  0.56740038  1
  Te  Te155  1  0.26124561  0.07979978  0.92846256  1
  Te  Te156  1  0.21119643  0.43576475  0.27378946  1
  Te  Te157  1  0.26088717  0.39400619  0.58140959  1
  Te  Te158  1  0.22117626  0.43669470  0.92573830  1
  Te  Te159  1  0.22572239  0.75715664  0.22786286  1
  Te  Te160  1  0.26457264  0.75707872  0.54733286  1
  Te  Te161  1  0.23307976  0.77152833  0.94172864  1
  Te  Te162  1  0.59070063  0.11252619  0.27875443  1
  Te  Te163  1  0.58521790  0.08938421  0.58004002  1
  Te  Te164  1  0.58709096  0.08437193  0.91025409  1
  Te  Te165  1  0.60721770  0.41705501  0.24562528  1
  Te  Te166  1  0.57078021  0.40745729  0.57695087  1
  Te  Te167  1  0.58147653  0.39725031  0.93594591  1
  Te  Te168  1  0.56184199  0.76382316  0.20722826  1
  Te  Te169  1  0.58264635  0.73791494  0.58421112  1
  Te  Te170  1  0.55628629  0.76100440  0.95077013  1
  Te  Te171  1  0.92664936  0.08329527  0.25924946  1
  Te  Te172  1  0.90272905  0.06961722  0.58549575  1
  Te  Te173  1  0.93729191  0.08808433  0.92736022  1
  Te  Te174  1  0.93899564  0.41089057  0.25194949  1
  Te  Te175  1  0.94820260  0.39592968  0.58660456  1
  Te  Te176  1  0.90091200  0.43122038  0.91877563  1
  Te  Te177  1  0.91377977  0.73053204  0.24144338  1
  Te  Te178  1  0.91939895  0.73483501  0.56727893  1
  Te  Te179  1  0.94508621  0.73413352  0.95799459  1
