# generated using pymatgen
data_In2Te3
_symmetry_space_group_name_H-M   'P 1'
_cell_length_a   18.98660429
_cell_length_b   19.00486957
_cell_length_c   18.99299432
_cell_angle_alpha   89.93643532
_cell_angle_beta   90.07613325
_cell_angle_gamma   89.96454457
_symmetry_Int_Tables_number   1
_chemical_formula_structural   In2Te3
_chemical_formula_sum   'In72 Te108'
_cell_volume   6853.38132244
_cell_formula_units_Z   36
loop_
 _symmetry_equiv_pos_site_id
 _symmetry_equiv_pos_as_xyz
  1  'x, y, z'
loop_
 _atom_site_type_symbol
 _atom_site_label
 _atom_site_symmetry_multiplicity
 _atom_site_fract_x
 _atom_site_fract_y
 _atom_site_fract_z
 _atom_site_occupancy
  In  In0  1  0.68791438  0.85840839  0.82199410  1
  In  In1  1  0.68307824  0.64933135  0.34923596  1
  In  In2  1  0.31820029  0.14774304  0.46914874  1
  In  In3  1  0.49412788  0.34734954  0.50278541  1
  In  In4  1  0.35761902  0.35467109  0.00636047  1
  In  In5  1  0.17104194  -0.01460589  0.49703783  1
  In  In6  1  0.49004422  0.85302530  0.00338091  1
  In  In7  1  0.80173735  0.34457026  0.16016076  1
  In  In8  1  0.32169424  0.14820612  0.81751759  1
  In  In9  1  0.17520760  0.46923503  0.65129883  1
  In  In10  1  0.64349767  0.68063425  0.02755168  1
  In  In11  1  0.65830160  0.32678521  0.03408330  1
  In  In12  1  0.67672633  0.82200701  0.50676682  1
  In  In13  1  0.49317224  0.48943681  0.67145025  1
  In  In14  1  0.82291432  -0.00060230  0.84662662  1
  In  In15  1  0.03889985  0.34307975  0.34513636  1
  In  In16  1  0.81872447  0.02073478  0.16608579  1
  In  In17  1  0.18423869  0.82947243  0.66512633  1
  In  In18  1  0.32870334  0.84570283  0.83472518  1
  In  In19  1  0.15612644  0.32166900  0.16598628  1
  In  In20  1  0.84256379  0.48451503  0.33803677  1
  In  In21  1  0.63990628  0.17509802  0.83290596  1
  In  In22  1  0.02170503  0.15905347  0.82029323  1
  In  In23  1  0.31324624  0.65919461  0.65459223  1
  In  In24  1  0.35790909  0.49483795  0.83090512  1
  In  In25  1  0.47755287  0.15639948  0.65387536  1
  In  In26  1  -0.02937457  0.34872397  0.01940858  1
  In  In27  1  0.83876093  0.67518200  0.83810179  1
  In  In28  1  0.15467902  0.67131289  0.17834091  1
  In  In29  1  -0.01716457  0.83746892  0.16418383  1
  In  In30  1  0.84156382  0.83331748  0.66680623  1
  In  In31  1  0.66888852  0.63282579  0.62842508  1
  In  In32  1  0.16510592  0.68006524  0.85002413  1
  In  In33  1  0.48206637  0.66977890  0.18909204  1
  In  In34  1  0.01833933  -0.00326893  0.00566078  1
  In  In35  1  0.01604196  0.00017786  0.64826302  1
  In  In36  1  0.01555923  0.32005983  0.65729609  1
  In  In37  1  0.00518009  0.49756592  0.48789682  1
  In  In38  1  0.20085228  0.64142325  0.46772532  1
  In  In39  1  0.31568304  0.32997735  0.34786191  1
  In  In40  1  0.34408139  0.15172133  0.17689982  1
  In  In41  1  0.64695704  0.01697031  0.67732580  1
  In  In42  1  -0.01883194  0.65937818  0.64583080  1
  In  In43  1  0.02355753  0.83719607  0.85458925  1
  In  In44  1  0.00104886  0.68019233  0.00727368  1
  In  In45  1  0.49985922  0.16283992  0.33787676  1
  In  In46  1  0.50096081  0.66720565  0.47677739  1
  In  In47  1  0.66978470  0.17036454  0.48721818  1
  In  In48  1  0.66301836  0.00151810  0.32989836  1
  In  In49  1  0.68920099  0.49919925  0.84077102  1
  In  In50  1  0.49092377  0.66796959  0.84645704  1
  In  In51  1  0.50307963  0.32852887  0.80982022  1
  In  In52  1  0.33151519  0.85016399  0.17115544  1
  In  In53  1  0.18602556  0.32772704  0.82565027  1
  In  In54  1  0.48828878  0.13662367  -0.01309680  1
  In  In55  1  0.01088687  0.50941482  0.17751644  1
  In  In56  1  0.84749912  0.16952465  0.34366834  1
  In  In57  1  0.81579706  0.51272848  0.65781344  1
  In  In58  1  0.50706622  0.50530428  0.02198083  1
  In  In59  1  0.66191974  0.84105573  0.17020387  1
  In  In60  1  0.46516067  0.86524015  0.62863755  1
  In  In61  1  0.16785106  0.83375457  0.34010024  1
  In  In62  1  0.17600860  0.01391903  0.16948779  1
  In  In63  1  -0.03320485  -0.03724367  0.36571483  1
  In  In64  1  0.83688890  0.67998581  0.18829677  1
  In  In65  1  0.16801657  0.17397317  -0.01729510  1
  In  In66  1  0.81469006  0.17157449  0.00965359  1
  In  In67  1  0.00749087  0.16324817  0.51452517  1
  In  In68  1  0.31907275  0.52127224  0.18276551  1
  In  In69  1  0.80406146  0.34040282  0.49820299  1
  In  In70  1  0.86092691  0.33387362  0.82532371  1
  In  In71  1  0.48334219  0.84581209  0.33897938  1
  Te  Te72  1  0.08267232  0.10542221  0.08782212  1
  Te  Te73  1  0.06806724  0.06361697  0.41738909  1
  Te  Te74  1  0.10326485  0.06177106  0.74818361  1
  Te  Te75  1  0.08766177  0.42459375  0.07736143  1
  Te  Te76  1  0.11776501  0.41209162  0.44817334  1
  Te  Te77  1  0.08125211  0.41497595  0.75600629  1
  Te  Te78  1  0.09230781  0.77421928  0.08141552  1
  Te  Te79  1  0.09703397  0.73316855  0.42096357  1
  Te  Te80  1  0.06728701  0.74899444  0.73914586  1
  Te  Te81  1  0.39124226  0.06424926  0.06884427  1
  Te  Te82  1  0.42846146  0.05894003  0.41925513  1
  Te  Te83  1  0.43950400  0.07396210  0.76900704  1
  Te  Te84  1  0.42448956  0.42728314  0.12118008  1
  Te  Te85  1  0.40564440  0.43172513  0.41412588  1
  Te  Te86  1  0.38344118  0.38431444  0.72511772  1
  Te  Te87  1  0.41333488  0.74870258  0.08250368  1
  Te  Te88  1  0.40269682  0.76569230  0.43061086  1
  Te  Te89  1  0.40690095  0.74051773  0.74453071  1
  Te  Te90  1  0.72077697  0.11477918  0.10835295  1
  Te  Te91  1  0.76381234  0.07055641  0.42151872  1
  Te  Te92  1  0.74879518  0.09492465  0.75638824  1
  Te  Te93  1  0.76900941  0.42649650  0.03956679  1
  Te  Te94  1  0.73039923  0.40721361  0.39309161  1
  Te  Te95  1  0.75168336  0.40442092  0.74171969  1
  Te  Te96  1  0.75737445  0.76161362  0.08499971  1
  Te  Te97  1  0.76399011  0.76305263  0.40207782  1
  Te  Te98  1  0.74320964  0.73691049  0.73660242  1
  Te  Te99  1  0.08588071  0.23516099  0.25957852  1
  Te  Te100  1  0.11228284  0.22540797  0.59946136  1
  Te  Te101  1  0.06583504  0.27117923  0.91671326  1
  Te  Te102  1  0.08589586  0.58568014  0.27691812  1
  Te  Te103  1  0.10265762  0.58719590  0.58765831  1
  Te  Te104  1  0.06848528  0.59201665  0.91299614  1
  Te  Te105  1  0.07403182  0.92214810  0.25512531  1
  Te  Te106  1  0.07947193  0.88797469  0.57106956  1
  Te  Te107  1  0.11014064  0.94579903  0.90200494  1
  Te  Te108  1  0.41480748  0.25936851  0.25711208  1
  Te  Te109  1  0.39999433  0.24323395  0.55891558  1
  Te  Te110  1  0.40876993  0.25458014  0.90146727  1
  Te  Te111  1  0.39700140  0.59688031  0.28789364  1
  Te  Te112  1  0.41907052  0.58309182  0.58041557  1
  Te  Te113  1  0.40693579  0.58742138  0.94231046  1
  Te  Te114  1  0.44208384  0.93328671  0.22658176  1
  Te  Te115  1  0.39133632  0.95911649  0.53946558  1
  Te  Te116  1  0.42544413  0.93585331  0.90122998  1
  Te  Te117  1  0.74946323  0.23471221  0.25246052  1
  Te  Te118  1  0.75422375  0.23746364  0.58657500  1
  Te  Te119  1  0.74682760  0.25824547  0.90301725  1
  Te  Te120  1  0.75366762  0.56686020  0.24351840  1
  Te  Te121  1  0.77328181  0.58610592  0.53810260  1
  Te  Te122  1  0.74176076  0.60663967  0.93267639  1
  Te  Te123  1  0.76328981  0.91230362  0.25646160  1
  Te  Te124  1  0.74160286  0.92394306  0.59891182  1
  Te  Te125  1  0.71985785  0.94442018  0.93805915  1
  Te  Te126  1  0.26635024  0.25344526  0.07407748  1
  Te  Te127  1  0.22128911  0.25169076  0.42929886  1
  Te  Te128  1  0.23408704  0.22858952  0.72890761  1
  Te  Te129  1  0.23074699  0.58537193  0.08656143  1
  Te  Te130  1  0.30465395  0.55500109  0.41017812  1
  Te  Te131  1  0.24763144  0.57512950  0.76217669  1
  Te  Te132  1  0.24135441  0.92017504  0.07935483  1
  Te  Te133  1  0.26694382  0.92421041  0.40289010  1
  Te  Te134  1  0.27007965  0.92869355  0.72725849  1
  Te  Te135  1  0.53517798  0.25324469  0.06516488  1
  Te  Te136  1  0.58411060  0.26689665  0.40839156  1
  Te  Te137  1  0.58485772  0.25023687  0.71172256  1
  Te  Te138  1  0.59020667  0.57812729  0.12476424  1
  Te  Te139  1  0.58464861  0.56465997  0.41548662  1
  Te  Te140  1  0.58377750  0.58392894  0.75884819  1
  Te  Te141  1  0.56107733  0.93006811  0.10872689  1
  Te  Te142  1  0.58549995  0.91466325  0.42771364  1
  Te  Te143  1  0.56914725  0.90669210  0.74255710  1
  Te  Te144  1  0.91017766  0.24137336  0.10267547  1
  Te  Te145  1  0.92831320  0.26672039  0.43157960  1
  Te  Te146  1  0.91971243  0.22891579  0.73233376  1
  Te  Te147  1  0.91480356  0.58997606  0.09243927  1
  Te  Te148  1  0.92263634  0.58647322  0.40750792  1
  Te  Te149  1  0.91517674  0.57597566  0.75354051  1
  Te  Te150  1  0.90225743  0.92977899  0.07491171  1
  Te  Te151  1  0.88968116  0.86511700  0.44228348  1
  Te  Te152  1  0.92157845  0.91910056  0.76299039  1
  Te  Te153  1  0.25272707  0.08669495  0.27028410  1
  Te  Te154  1  0.27333393  0.05653533  0.58226150  1
  Te  Te155  1  0.24605635  0.06999436  0.91701601  1
  Te  Te156  1  0.23276378  0.41729777  0.25372954  1
  Te  Te157  1  0.30207883  0.42238778  0.60072665  1
  Te  Te158  1  0.25465696  0.42524664  0.92031748  1
  Te  Te159  1  0.26128477  0.74788059  0.25652581  1
  Te  Te160  1  0.25960203  0.75799202  0.55483963  1
  Te  Te161  1  0.25279896  0.76290219  0.92892813  1
  Te  Te162  1  0.58669423  0.09125383  0.24239962  1
  Te  Te163  1  0.57252532  0.08028246  0.56311638  1
  Te  Te164  1  0.60219370  0.06499067  0.92395123  1
  Te  Te165  1  0.64848854  0.34559590  0.18456719  1
  Te  Te166  1  0.58952526  0.42563443  0.58374083  1
  Te  Te167  1  0.56760196  0.42956363  0.90273023  1
  Te  Te168  1  0.58861848  0.74923746  0.26706650  1
  Te  Te169  1  0.57476531  0.74650773  0.59389715  1
  Te  Te170  1  0.59050695  0.76357418  0.91074067  1
  Te  Te171  1  0.92554652  0.07058839  0.26069061  1
  Te  Te172  1  0.91208898  0.06988705  0.57506657  1
  Te  Te173  1  0.92154927  0.09439497  0.92328425  1
  Te  Te174  1  0.92967106  0.39855874  0.24655016  1
  Te  Te175  1  0.92134003  0.41941712  0.58789008  1
  Te  Te176  1  0.89599661  0.43616535  0.92599467  1
  Te  Te177  1  0.94573854  0.73881717  0.26552059  1
  Te  Te178  1  0.90552776  0.75308421  0.55813033  1
  Te  Te179  1  0.90685031  0.77562563  0.92752804  1
