# generated using pymatgen
data_In2Te3
_symmetry_space_group_name_H-M   'P 1'
_cell_length_a   18.75157037
_cell_length_b   18.74718549
_cell_length_c   18.76033148
_cell_angle_alpha   89.94869597
_cell_angle_beta   89.96012272
_cell_angle_gamma   89.98882963
_symmetry_Int_Tables_number   1
_chemical_formula_structural   In2Te3
_chemical_formula_sum   'In72 Te108'
_cell_volume   6594.98695214
_cell_formula_units_Z   36
loop_
 _symmetry_equiv_pos_site_id
 _symmetry_equiv_pos_as_xyz
  1  'x, y, z'
loop_
 _atom_site_type_symbol
 _atom_site_label
 _atom_site_symmetry_multiplicity
 _atom_site_fract_x
 _atom_site_fract_y
 _atom_site_fract_z
 _atom_site_occupancy
  In  In0  1  0.00152354  0.83262748  0.16612578  1
  In  In1  1  0.48710302  0.16374749  0.68549308  1
  In  In2  1  0.83956651  0.53728683  -0.00438824  1
  In  In3  1  0.83848832  0.17636037  0.64870558  1
  In  In4  1  0.36109592  0.35982772  0.70437063  1
  In  In5  1  -0.00299662  0.51646155  0.51978158  1
  In  In6  1  0.51392424  0.51341799  -0.00744947  1
  In  In7  1  0.68861434  0.17710023  0.49650668  1
  In  In8  1  0.19590837  0.14411845  -0.02890725  1
  In  In9  1  0.85210555  -0.00817680  0.51954394  1
  In  In10  1  0.50780194  0.16209469  0.32031648  1
  In  In11  1  0.16806084  0.66691228  0.83112613  1
  In  In12  1  0.32644520  -0.02406186  0.33024676  1
  In  In13  1  0.01104570  0.15803346  0.50614460  1
  In  In14  1  0.52539245  0.80043327  0.28933223  1
  In  In15  1  0.84149597  0.50389103  0.69127484  1
  In  In16  1  0.31797728  0.14627300  0.53008219  1
  In  In17  1  0.33631008  0.84342779  0.84920544  1
  In  In18  1  0.65880210  -0.00161230  0.67509874  1
  In  In19  1  0.12466485  0.15752546  0.32591625  1
  In  In20  1  0.82275148  0.34219142  0.84320786  1
  In  In21  1  0.01545351  0.67932934  0.31607503  1
  In  In22  1  0.65727637  0.34570338  -0.00883880  1
  In  In23  1  0.16711453  0.00401787  0.16805744  1
  In  In24  1  0.81952728  0.50752594  0.30478283  1
  In  In25  1  -0.00927308  0.33544753  0.00839313  1
  In  In26  1  0.53859766  -0.00873713  0.12712520  1
  In  In27  1  0.69654395  0.16379603  0.14957444  1
  In  In28  1  0.83752387  0.35536366  0.51704747  1
  In  In29  1  -0.00241103  0.15004931  0.83371168  1
  In  In30  1  0.15365075  0.50876263  -0.00876351  1
  In  In31  1  0.65402559  0.51140468  0.48316862  1
  In  In32  1  0.35348268  0.53680687  0.18655737  1
  In  In33  1  0.65126826  0.16918611  0.84028849  1
  In  In34  1  0.65835452  0.50987682  0.14605474  1
  In  In35  1  0.51349935  0.65641150  0.85014399  1
  In  In36  1  0.80237038  0.84900175  0.30647815  1
  In  In37  1  0.32651232  0.32717280  -0.01476026  1
  In  In38  1  0.84455901  0.68642134  0.49781488  1
  In  In39  1  0.15764259  0.66991650  0.15844777  1
  In  In40  1  0.85961140  -0.02100925  0.82647611  1
  In  In41  1  0.34083929  0.80991312  0.52238694  1
  In  In42  1  -0.00399839  -0.01376806  -0.00569625  1
  In  In43  1  0.34775028  0.17940026  0.13850762  1
  In  In44  1  0.16430995  0.15618393  0.70147191  1
  In  In45  1  0.17423321  0.32644773  0.51672193  1
  In  In46  1  0.65900879  0.66423874  -0.00183034  1
  In  In47  1  0.31592988  0.35265660  0.34394413  1
  In  In48  1  0.81706232  0.16351389  0.31980656  1
  In  In49  1  0.14952592  0.35036189  0.81034307  1
  In  In50  1  0.32260967  0.00474116  0.69908282  1
  In  In51  1  -0.02568626  0.01997417  0.35882280  1
  In  In52  1  0.67617723  0.66276144  0.68762274  1
  In  In53  1  0.51387424  0.36082190  0.16528502  1
  In  In54  1  0.68647710  0.84566590  0.49202782  1
  In  In55  1  0.65868522  0.81563878  0.83594881  1
  In  In56  1  -0.01016763  0.18586326  0.16863979  1
  In  In57  1  0.50916100  0.34170978  0.49461701  1
  In  In58  1  0.14852097  0.81674540  -0.00732431  1
  In  In59  1  0.52556484  0.82836908  0.68535904  1
  In  In60  1  0.33246630  0.48639952  0.50226277  1
  In  In61  1  0.51006050  -0.02200414  0.48823607  1
  In  In62  1  0.31814258  0.65826112  0.66117827  1
  In  In63  1  0.49019804  0.66072094  0.48448054  1
  In  In64  1  0.35050272  0.81995071  0.14067152  1
  In  In65  1  0.49216036  0.15557586  -0.01961485  1
  In  In66  1  0.17790932  0.81667655  0.33973258  1
  In  In67  1  -0.02619249  0.35095073  0.32732277  1
  In  In68  1  0.00093520  0.67325067  0.68373647  1
  In  In69  1  0.16759208  0.51172966  0.32848283  1
  In  In70  1  0.16020850  0.65755257  0.51210989  1
  In  In71  1  0.83814578  0.79798428  -0.02925178  1
  Te  Te72  1  0.08047198  0.08975326  0.07604148  1
  Te  Te73  1  0.10109000  0.05448385  0.43587849  1
  Te  Te74  1  0.09819099  0.05094730  0.78537213  1
  Te  Te75  1  0.08298284  0.42044417  0.08713479  1
  Te  Te76  1  0.08625236  0.41677066  0.42646319  1
  Te  Te77  1  0.05575842  0.43076906  0.73135192  1
  Te  Te78  1  0.04461483  0.72210662  0.06119277  1
  Te  Te79  1  0.07295699  0.75695040  0.43442819  1
  Te  Te80  1  0.08544321  0.77235167  0.76055184  1
  Te  Te81  1  0.40665672  0.05705489  0.07436852  1
  Te  Te82  1  0.41600248  0.08352430  0.41852923  1
  Te  Te83  1  0.41591692  0.08049197  0.78819944  1
  Te  Te84  1  0.40707576  0.42446171  0.07784928  1
  Te  Te85  1  0.43343205  0.43448034  0.39668258  1
  Te  Te86  1  0.45464345  0.44575020  0.77941734  1
  Te  Te87  1  0.44504866  0.73454873  0.06589675  1
  Te  Te88  1  0.41728718  0.76496408  0.39937099  1
  Te  Te89  1  0.41763380  0.74387998  0.75068532  1
  Te  Te90  1  0.75277218  0.03784594  0.09725102  1
  Te  Te91  1  0.75366571  0.06359599  0.41998173  1
  Te  Te92  1  0.76204145  0.08568579  0.74810885  1
  Te  Te93  1  0.75885154  0.42322445  0.07203345  1
  Te  Te94  1  0.75058479  0.41542737  0.40886540  1
  Te  Te95  1  0.73497043  0.42780571  0.75954092  1
  Te  Te96  1  0.73697398  0.76233586  0.08348983  1
  Te  Te97  1  0.73966016  0.73611032  0.40071884  1
  Te  Te98  1  0.76582985  0.76220919  0.74819360  1
  Te  Te99  1  0.08484832  0.27992481  0.24632242  1
  Te  Te100  1  0.08141891  0.24747048  0.60795572  1
  Te  Te101  1  0.08996133  0.24663708  0.91450247  1
  Te  Te102  1  0.06628858  0.56550259  0.22811104  1
  Te  Te103  1  0.09904421  0.56880543  0.62111027  1
  Te  Te104  1  0.06111179  0.58928155  0.90461343  1
  Te  Te105  1  0.08314876  0.91865880  0.26451672  1
  Te  Te106  1  0.00732031  0.91592933  0.60630463  1
  Te  Te107  1  0.08553918  0.91543534  0.89847257  1
  Te  Te108  1  0.41191275  0.26200504  0.25163431  1
  Te  Te109  1  0.40793356  0.26087198  0.58104967  1
  Te  Te110  1  0.42031568  0.25460893  0.89666322  1
  Te  Te111  1  0.44903492  0.58343488  0.28796189  1
  Te  Te112  1  0.42442394  0.57236539  0.58970046  1
  Te  Te113  1  0.40503075  0.58358520  0.91930987  1
  Te  Te114  1  0.43111809  0.91774711  0.23545440  1
  Te  Te115  1  0.42045533  0.92287945  0.59956448  1
  Te  Te116  1  0.39441332  0.94684663  0.93781887  1
  Te  Te117  1  0.74569589  0.26694368  0.24318137  1
  Te  Te118  1  0.73434315  0.27882551  0.60196253  1
  Te  Te119  1  0.75183617  0.23951600  0.93282136  1
  Te  Te120  1  0.74138311  0.60761666  0.22577440  1
  Te  Te121  1  0.76312281  0.58249705  0.57680215  1
  Te  Te122  1  0.72706805  0.57253464  0.90518325  1
  Te  Te123  1  0.73471502  0.94708196  0.21583255  1
  Te  Te124  1  0.76138393  0.90432861  0.61126422  1
  Te  Te125  1  0.75166547  0.91302250  0.91271591  1
  Te  Te126  1  0.22933595  0.25194867  0.07891163  1
  Te  Te127  1  0.24492805  0.23559431  0.41481166  1
  Te  Te128  1  0.26322319  0.25218121  0.76277785  1
  Te  Te129  1  0.25839296  0.58973189  0.07781319  1
  Te  Te130  1  0.26125892  0.59380940  0.41715008  1
  Te  Te131  1  0.25645237  0.56848910  0.76022389  1
  Te  Te132  1  0.24115215  0.90854304  0.07669850  1
  Te  Te133  1  0.24826720  0.90777314  0.44086969  1
  Te  Te134  1  0.23817847  0.89310423  0.74794594  1
  Te  Te135  1  0.57205205  0.24474009  0.08443019  1
  Te  Te136  1  0.59736013  0.25575956  0.40160224  1
  Te  Te137  1  0.58718095  0.25664297  0.74018632  1
  Te  Te138  1  0.54519039  0.61880314  0.10490794  1
  Te  Te139  1  0.57860288  0.59504192  0.38070655  1
  Te  Te140  1  0.57326644  0.57018778  0.74180199  1
  Te  Te141  1  0.59554081  0.86876374  0.06672171  1
  Te  Te142  1  0.59369877  0.90680676  0.38604162  1
  Te  Te143  1  0.56922108  0.93649219  0.78104688  1
  Te  Te144  1  0.89173202  0.24962302  0.07991743  1
  Te  Te145  1  0.91047033  0.24385613  0.42762619  1
  Te  Te146  1  0.91580543  0.25285447  0.75616807  1
  Te  Te147  1  0.92385062  0.62186537  0.08028212  1
  Te  Te148  1  0.92131851  0.58186447  0.40457544  1
  Te  Te149  1  0.89844713  0.61283143  0.77941114  1
  Te  Te150  1  0.90047812  0.90082735  0.07535372  1
  Te  Te151  1  0.90651406  0.89567612  0.41104218  1
  Te  Te152  1  0.95343678  0.89253774  0.74883709  1
  Te  Te153  1  0.25805004  0.09231171  0.25320027  1
  Te  Te154  1  0.21716090  0.05590411  0.59574099  1
  Te  Te155  1  0.28280520  0.05016627  0.89612525  1
  Te  Te156  1  0.25088964  0.42888031  0.22958353  1
  Te  Te157  1  0.25015301  0.41851261  0.61113834  1
  Te  Te158  1  0.24826020  0.42730040  0.89961850  1
  Te  Te159  1  0.26533813  0.73886315  0.24441510  1
  Te  Te160  1  0.21991529  0.76443698  0.60476247  1
  Te  Te161  1  0.26314957  0.73700809  0.93219128  1
  Te  Te162  1  0.60138750  0.07210876  0.24331092  1
  Te  Te163  1  0.57996717  0.09125177  0.57429912  1
  Te  Te164  1  0.60346026  0.06748964  0.93718174  1
  Te  Te165  1  0.60316475  0.42871054  0.25896811  1
  Te  Te166  1  0.58676119  0.42797465  0.58497039  1
  Te  Te167  1  0.55381326  0.40196375  0.89659691  1
  Te  Te168  1  0.63469561  0.73998539  0.20781691  1
  Te  Te169  1  0.58986739  0.74791584  0.57236049  1
  Te  Te170  1  0.54618022  0.78505199  0.94280682  1
  Te  Te171  1  0.90732902  0.07242469  0.23405467  1
  Te  Te172  1  0.94826713  0.06799878  0.61790284  1
  Te  Te173  1  0.89846095  0.08622419  0.93065539  1
  Te  Te174  1  0.90567836  0.42257575  0.21877203  1
  Te  Te175  1  0.94439537  0.40627883  0.61801054  1
  Te  Te176  1  0.92418191  0.43244289  0.91185063  1
  Te  Te177  1  0.90069069  0.74479095  0.24171979  1
  Te  Te178  1  0.93275389  0.76896441  0.58686694  1
  Te  Te179  1  0.93644137  0.71116924  0.89836397  1
