# generated using pymatgen
data_In2Te3
_symmetry_space_group_name_H-M   'P 1'
_cell_length_a   18.89662377
_cell_length_b   18.93312777
_cell_length_c   18.89853666
_cell_angle_alpha   89.88351137
_cell_angle_beta   90.03230654
_cell_angle_gamma   89.96846782
_symmetry_Int_Tables_number   1
_chemical_formula_structural   In2Te3
_chemical_formula_sum   'In72 Te108'
_cell_volume   6761.35481281
_cell_formula_units_Z   36
loop_
 _symmetry_equiv_pos_site_id
 _symmetry_equiv_pos_as_xyz
  1  'x, y, z'
loop_
 _atom_site_type_symbol
 _atom_site_label
 _atom_site_symmetry_multiplicity
 _atom_site_fract_x
 _atom_site_fract_y
 _atom_site_fract_z
 _atom_site_occupancy
  In  In0  1  0.17754408  0.17636988  0.00339253  1
  In  In1  1  0.15242750  0.33180393  0.14782656  1
  In  In2  1  0.85010906  0.84566139  0.01206551  1
  In  In3  1  0.85740931  0.18320873  -0.01544292  1
  In  In4  1  0.01242176  0.63518648  -0.02402563  1
  In  In5  1  0.67608953  0.82410282  0.80939697  1
  In  In6  1  0.83768003  -0.00777004  0.16295895  1
  In  In7  1  0.35333362  -0.02295081  0.67551817  1
  In  In8  1  0.49553306  0.16996080  0.32715488  1
  In  In9  1  0.31701950  0.50651759  0.15180960  1
  In  In10  1  0.48994536  -0.00732763  0.51452202  1
  In  In11  1  0.36339975  0.18582397  0.84956096  1
  In  In12  1  0.49302543  0.35262796  0.84242660  1
  In  In13  1  0.64713637  0.49249603  0.49819743  1
  In  In14  1  0.14748382  0.49483766  0.35542076  1
  In  In15  1  0.62379675  0.80554954  0.18376646  1
  In  In16  1  0.20221040  0.00522512  0.47707232  1
  In  In17  1  0.67983474  0.68001114  -0.00800900  1
  In  In18  1  0.14294845  0.65399479  0.50634083  1
  In  In19  1  0.49047395  0.80775772  0.68046215  1
  In  In20  1  0.17279176  0.16221115  0.68085067  1
  In  In21  1  -0.00917618  0.35124471  0.33883701  1
  In  In22  1  0.48700637  0.65362555  0.83212483  1
  In  In23  1  0.67057083  0.84040773  0.48370994  1
  In  In24  1  0.28708274  0.79150502  0.86486799  1
  In  In25  1  -0.00089819  0.82381319  0.49505324  1
  In  In26  1  0.00328113  -0.01069307  0.66756193  1
  In  In27  1  0.82998324  0.34191261  0.49437887  1
  In  In28  1  0.35261633  0.18065340  0.48713398  1
  In  In29  1  0.86888812  0.63554564  0.80513095  1
  In  In30  1  0.66797362  0.34812174  0.67188633  1
  In  In31  1  0.17857581  0.65848243  0.13193067  1
  In  In32  1  0.24459511  0.41418693  0.73834656  1
  In  In33  1  0.82466032  0.18930818  0.67806176  1
  In  In34  1  0.00522245  0.16021372  0.14909476  1
  In  In35  1  0.52259585  -0.01204042  0.84424574  1
  In  In36  1  0.48228017  0.64164254  0.48593823  1
  In  In37  1  0.15806605  0.80215254  0.65792533  1
  In  In38  1  0.85723828  0.01992314  0.83817448  1
  In  In39  1  0.84149844  0.83384081  0.32772932  1
  In  In40  1  0.45706940  0.81259084  0.00967267  1
  In  In41  1  0.67678470  0.16834457  0.85020955  1
  In  In42  1  0.27418293  -0.03512598  0.26054988  1
  In  In43  1  0.64896252  0.20966110  0.13711805  1
  In  In44  1  0.65799332  0.01275508  0.33782648  1
  In  In45  1  0.48398417  -0.00911159  0.16413622  1
  In  In46  1  0.19875585  0.15651108  0.31180649  1
  In  In47  1  -0.01076153  0.50836535  0.56163633  1
  In  In48  1  -0.01367367  0.67468849  0.33633543  1
  In  In49  1  0.31909364  -0.03309494  0.01906779  1
  In  In50  1  0.84065262  0.67916197  0.51788440  1
  In  In51  1  0.16126565  -0.00860637  0.84579010  1
  In  In52  1  0.01961608  0.83590712  0.85332060  1
  In  In53  1  0.33682372  0.32060879  0.33014038  1
  In  In54  1  0.32697364  0.49657161  0.54619830  1
  In  In55  1  0.84097488  -0.02613083  0.48992706  1
  In  In56  1  -0.00217248  0.49183465  0.14700838  1
  In  In57  1  0.02244225  0.33938790  0.70936526  1
  In  In58  1  0.50955028  0.17012524  0.63833923  1
  In  In59  1  0.81179281  0.16677769  0.29912650  1
  In  In60  1  0.32546611  0.66273957  0.31379359  1
  In  In61  1  0.50433513  0.32815842  0.49600894  1
  In  In62  1  0.00757174  0.34126584  -0.00958033  1
  In  In63  1  0.65694390  0.50405443  0.16902497  1
  In  In64  1  0.65587743  0.64673402  0.66699055  1
  In  In65  1  0.66870557  0.00904414  0.00399916  1
  In  In66  1  0.01488793  0.15175979  0.49597590  1
  In  In67  1  0.49399950  0.49851438  -0.00201494  1
  In  In68  1  0.83530335  0.35351179  0.83330880  1
  In  In69  1  0.47844630  0.51349812  0.31110951  1
  In  In70  1  0.82423928  0.50352521  0.00467195  1
  In  In71  1  0.81267373  0.51387821  0.33303767  1
  Te  Te72  1  0.12315624  0.07870624  0.10481098  1
  Te  Te73  1  0.09649015  0.07490608  0.39384094  1
  Te  Te74  1  0.07202373  0.08391659  0.76382511  1
  Te  Te75  1  0.10580750  0.44183762  0.05240425  1
  Te  Te76  1  0.06628141  0.41434485  0.45186435  1
  Te  Te77  1  0.10316949  0.42667002  0.79572885  1
  Te  Te78  1  0.07452181  0.74022522  0.06158486  1
  Te  Te79  1  0.09722214  0.75642946  0.40150358  1
  Te  Te80  1  0.10047220  0.73407567  0.77836365  1
  Te  Te81  1  0.39905421  0.07746492  0.07758106  1
  Te  Te82  1  0.41269927  0.06970709  0.40594539  1
  Te  Te83  1  0.43356689  0.08251852  0.75051986  1
  Te  Te84  1  0.43029625  0.42045893  0.10898979  1
  Te  Te85  1  0.40992247  0.42159280  0.41991585  1
  Te  Te86  1  0.39832326  0.44674901  0.77156501  1
  Te  Te87  1  0.40412210  0.76470837  0.13801134  1
  Te  Te88  1  0.43271456  0.74256051  0.38700883  1
  Te  Te89  1  0.38112088  0.73445519  0.75636501  1
  Te  Te90  1  0.76343902  0.09935754  0.07991377  1
  Te  Te91  1  0.76242838  0.08397885  0.41970152  1
  Te  Te92  1  0.74685272  0.07880819  0.74926860  1
  Te  Te93  1  0.73727556  0.41518945  0.08165784  1
  Te  Te94  1  0.72819279  0.40688848  0.40208278  1
  Te  Te95  1  0.75768339  0.43924439  0.74242994  1
  Te  Te96  1  0.74755124  0.76901621  0.09429111  1
  Te  Te97  1  0.75496152  0.73840592  0.40764880  1
  Te  Te98  1  0.76499029  0.72996694  0.73434511  1
  Te  Te99  1  0.07962476  0.25435725  0.25844304  1
  Te  Te100  1  0.07758441  0.24525744  0.59629078  1
  Te  Te101  1  0.08241356  0.24151347  0.91352555  1
  Te  Te102  1  0.07529241  0.57629063  0.24916953  1
  Te  Te103  1  0.10623707  0.57473692  0.62695460  1
  Te  Te104  1  0.10877407  0.59873218  0.86886175  1
  Te  Te105  1  0.12986515  0.96529804  0.21363008  1
  Te  Te106  1  0.09940477  0.92477159  0.56972092  1
  Te  Te107  1  0.09106071  0.91824573  0.95099718  1
  Te  Te108  1  0.41616536  0.24768584  0.22950594  1
  Te  Te109  1  0.40312376  0.27000257  0.59877120  1
  Te  Te110  1  0.42482840  0.27489435  0.95412704  1
  Te  Te111  1  0.42052885  0.60936795  0.20500744  1
  Te  Te112  1  0.41709784  0.59284280  0.60806474  1
  Te  Te113  1  0.40821158  0.61428233  0.95273055  1
  Te  Te114  1  0.41027800  0.88283841  0.23463612  1
  Te  Te115  1  0.40564030  0.87879352  0.57367459  1
  Te  Te116  1  0.40529085  0.90682066  0.89911897  1
  Te  Te117  1  0.73630902  0.27354905  0.23561450  1
  Te  Te118  1  0.73367116  0.25242778  0.57380533  1
  Te  Te119  1  0.74753304  0.27462515  0.93023903  1
  Te  Te120  1  0.74978465  0.59992451  0.23393567  1
  Te  Te121  1  0.75198860  0.56853175  0.57696346  1
  Te  Te122  1  0.75470479  0.58833598  0.89807536  1
  Te  Te123  1  0.73356800  0.91512403  0.24690000  1
  Te  Te124  1  0.76166550  0.89660436  0.58426745  1
  Te  Te125  1  0.74844697  0.92009089  0.90972147  1
  Te  Te126  1  0.26208642  0.27778255  0.06789562  1
  Te  Te127  1  0.23501196  0.25294930  0.42471531  1
  Te  Te128  1  0.25369061  0.25132783  0.77111748  1
  Te  Te129  1  0.26675736  0.58666032  0.03239519  1
  Te  Te130  1  0.25813054  0.57510231  0.42190624  1
  Te  Te131  1  0.24734638  0.55784254  0.80503838  1
  Te  Te132  1  0.23844154  0.89565794  0.12270446  1
  Te  Te133  1  0.27482966  0.90632461  0.39866449  1
  Te  Te134  1  0.24002999  0.90500592  0.74649724  1
  Te  Te135  1  0.55825662  0.25861426  0.03556305  1
  Te  Te136  1  0.58790792  0.23845564  0.41689422  1
  Te  Te137  1  0.58183367  0.24643240  0.75800348  1
  Te  Te138  1  0.58315409  0.60287826  0.07572898  1
  Te  Te139  1  0.59003742  0.58493296  0.39184906  1
  Te  Te140  1  0.58625095  0.56445161  0.76912075  1
  Te  Te141  1  0.57797598  0.90630951  0.06953663  1
  Te  Te142  1  0.56451511  0.91477403  0.40351040  1
  Te  Te143  1  0.58737532  0.91660691  0.72598895  1
  Te  Te144  1  0.91906424  0.27107239  0.09258437  1
  Te  Te145  1  0.91338744  0.23979241  0.41384751  1
  Te  Te146  1  0.92327233  0.24161961  0.77854443  1
  Te  Te147  1  0.90951609  0.59878423  0.08672441  1
  Te  Te148  1  0.92262635  0.57262417  0.43041485  1
  Te  Te149  1  0.95254404  0.57506134  0.69911266  1
  Te  Te150  1  0.94547899  0.91216664  0.10250896  1
  Te  Te151  1  0.94572561  0.92397454  0.39374966  1
  Te  Te152  1  0.91756673  0.90507312  0.75830884  1
  Te  Te153  1  0.30409570  0.10882048  0.22063904  1
  Te  Te154  1  0.27257989  0.08452811  0.59314807  1
  Te  Te155  1  0.26898757  0.07767481  0.91058290  1
  Te  Te156  1  0.23676400  0.41786535  0.25605222  1
  Te  Te157  1  0.22242533  0.40658444  0.58876019  1
  Te  Te158  1  0.30075455  0.44271356  0.88770973  1
  Te  Te159  1  0.22121787  0.74136770  0.24543069  1
  Te  Te160  1  0.25071166  0.73413181  0.56832251  1
  Te  Te161  1  0.22225029  0.74048318  0.98820869  1
  Te  Te162  1  0.59140034  0.08640846  0.22178815  1
  Te  Te163  1  0.59678901  0.07609497  0.56945592  1
  Te  Te164  1  0.56705271  0.10043179  0.93720589  1
  Te  Te165  1  0.55644515  0.41433625  0.23597473  1
  Te  Te166  1  0.55756780  0.42555719  0.60037910  1
  Te  Te167  1  0.59302755  0.44243724  0.90245423  1
  Te  Te168  1  0.56241115  0.73757427  0.29704985  1
  Te  Te169  1  0.58177354  0.74048807  0.57130806  1
  Te  Te170  1  0.57768711  0.76280252  0.90729402  1
  Te  Te171  1  0.92635129  0.08025785  0.25163601  1
  Te  Te172  1  0.91192144  0.08726883  0.59149489  1
  Te  Te173  1  0.93983467  0.06734082  0.94892207  1
  Te  Te174  1  0.90046469  0.42383471  0.24329379  1
  Te  Te175  1  0.90922368  0.38896537  0.61283326  1
  Te  Te176  1  0.92926857  0.44397196  0.91015331  1
  Te  Te177  1  0.93162181  0.76483897  0.23422428  1
  Te  Te178  1  0.94204440  0.74346468  0.60285870  1
  Te  Te179  1  0.90564630  0.74230077  0.91412437  1
