# generated using pymatgen
data_In2Te3
_symmetry_space_group_name_H-M   'P 1'
_cell_length_a   18.78951391
_cell_length_b   18.79175371
_cell_length_c   18.78823137
_cell_angle_alpha   90.00268396
_cell_angle_beta   90.05585490
_cell_angle_gamma   89.98568261
_symmetry_Int_Tables_number   1
_chemical_formula_structural   In2Te3
_chemical_formula_sum   'In72 Te108'
_cell_volume   6633.89412762
_cell_formula_units_Z   36
loop_
 _symmetry_equiv_pos_site_id
 _symmetry_equiv_pos_as_xyz
  1  'x, y, z'
loop_
 _atom_site_type_symbol
 _atom_site_label
 _atom_site_symmetry_multiplicity
 _atom_site_fract_x
 _atom_site_fract_y
 _atom_site_fract_z
 _atom_site_occupancy
  In  In0  1  0.65876969  0.84944480  0.51460550  1
  In  In1  1  0.32395599  0.34183082  0.34329532  1
  In  In2  1  0.83072749  0.82256444  -0.00193591  1
  In  In3  1  0.83525691  0.85036178  0.67123269  1
  In  In4  1  0.15787386  0.33204137  0.18276156  1
  In  In5  1  0.17381056  0.67639753  0.51485954  1
  In  In6  1  0.34035808  0.17313950  0.51948644  1
  In  In7  1  0.18771553  0.69067971  0.17389395  1
  In  In8  1  0.30588900  0.15354855  0.85009691  1
  In  In9  1  0.01469036  0.82988904  0.49938976  1
  In  In10  1  0.84572999  0.65680463  0.85250666  1
  In  In11  1  0.01475979  -0.01198423  0.33690645  1
  In  In12  1  0.01633910  0.65622708  0.35502091  1
  In  In13  1  0.50079691  0.50965501  -0.01591440  1
  In  In14  1  0.64744685  0.84057988  0.17214492  1
  In  In15  1  0.50162611  -0.01906487  0.82420647  1
  In  In16  1  0.66462592  0.67733446  0.64504139  1
  In  In17  1  0.48615666  0.82861388  0.32784599  1
  In  In18  1  0.65592103  0.50286610  0.14765732  1
  In  In19  1  0.83971258  0.65909233  0.15636730  1
  In  In20  1  0.65061133  0.68746947  0.33398712  1
  In  In21  1  0.67982154  0.49389037  0.83424533  1
  In  In22  1  0.15924937  0.32807465  0.50866642  1
  In  In23  1  0.66771011  0.17119179  0.49761259  1
  In  In24  1  0.82822812  0.14996983  0.65996237  1
  In  In25  1  0.15982480  0.83156134  0.66141720  1
  In  In26  1  0.01431808  -0.02019949  -0.03058830  1
  In  In27  1  0.34441300  -0.01304132  0.65467402  1
  In  In28  1  0.31891602  0.68439404  0.67596006  1
  In  In29  1  0.16488441  0.50579261  0.32566999  1
  In  In30  1  0.51709955  0.33612907  0.17675543  1
  In  In31  1  0.50107191  0.18546312  0.65990956  1
  In  In32  1  0.82887048  0.65554954  0.50479179  1
  In  In33  1  -0.00208877  0.18324420  0.15099086  1
  In  In34  1  0.18123085  0.51883960  0.02130994  1
  In  In35  1  0.81917738  0.17986823  0.34467744  1
  In  In36  1  0.16335728  0.15095655  0.67028421  1
  In  In37  1  0.50084627  0.14616799  0.01716573  1
  In  In38  1  0.82493555  0.46786381  0.31810199  1
  In  In39  1  0.16743156  0.13821150  0.00799026  1
  In  In40  1  0.34582964  0.14046706  0.16431880  1
  In  In41  1  0.17963595  0.68254248  0.83479209  1
  In  In42  1  0.84318779  0.02281052  0.83139646  1
  In  In43  1  0.02074891  0.50445608  0.81501615  1
  In  In44  1  0.66224368  0.50624962  0.47346374  1
  In  In45  1  0.48695509  0.67457270  0.84812557  1
  In  In46  1  0.48758417  0.50285036  0.66957258  1
  In  In47  1  -0.01256902  0.32887289  -0.00497948  1
  In  In48  1  -0.01184278  0.33142796  0.31423113  1
  In  In49  1  0.64041878  0.82069881  0.83881234  1
  In  In50  1  0.52505414  0.15254207  0.33732903  1
  In  In51  1  0.00169359  0.15862061  0.81348092  1
  In  In52  1  0.80930342  0.29765581  0.85098987  1
  In  In53  1  0.50860206  0.34641104  0.82066452  1
  In  In54  1  0.34427188  0.33877690  0.00306629  1
  In  In55  1  -0.01122423  0.14249056  0.48807031  1
  In  In56  1  0.47658532  0.53329427  0.30837435  1
  In  In57  1  0.66077640  -0.00462796  0.01421644  1
  In  In58  1  0.33957828  0.83060131  0.84247102  1
  In  In59  1  0.01759774  0.82866398  0.15626203  1
  In  In60  1  0.66418659  0.33129889  0.66452345  1
  In  In61  1  0.31618296  -0.04093339  0.33976976  1
  In  In62  1  0.15256165  0.51614571  0.66923968  1
  In  In63  1  0.49997649  0.00899597  0.49950054  1
  In  In64  1  0.84126579  0.85882464  0.31981021  1
  In  In65  1  0.20622688  -0.02999542  0.15216657  1
  In  In66  1  0.66949830  0.16863400  0.18063533  1
  In  In67  1  0.82879137  0.50540035  0.00137025  1
  In  In68  1  0.03506598  0.66242514  0.68104497  1
  In  In69  1  0.17287627  0.33460400  0.81755720  1
  In  In70  1  0.81940543  0.02157053  0.16384739  1
  In  In71  1  0.32805408  0.50024915  0.50099787  1
  Te  Te72  1  0.07669573  0.05811940  0.09983677  1
  Te  Te73  1  0.10105195  0.07258531  0.42084493  1
  Te  Te74  1  0.10298964  0.06111800  0.77113031  1
  Te  Te75  1  0.08226186  0.41613991  0.08077445  1
  Te  Te76  1  0.07852353  0.41353417  0.41057366  1
  Te  Te77  1  0.06656726  0.38752760  0.72071344  1
  Te  Te78  1  0.10217856  0.74864435  0.06557308  1
  Te  Te79  1  0.11416890  0.76712047  0.39996341  1
  Te  Te80  1  0.06862051  0.77881384  0.78206032  1
  Te  Te81  1  0.38901675  0.05263015  0.05161966  1
  Te  Te82  1  0.40227775  0.08355811  0.40478582  1
  Te  Te83  1  0.41164482  0.09232244  0.74781815  1
  Te  Te84  1  0.42602256  0.42669657  0.09435848  1
  Te  Te85  1  0.42788380  0.42641941  0.41303284  1
  Te  Te86  1  0.40086772  0.42412077  0.75920819  1
  Te  Te87  1  0.36770656  0.81381370  0.14204545  1
  Te  Te88  1  0.38229557  0.74409750  0.39116665  1
  Te  Te89  1  0.43218984  0.76522396  0.73861863  1
  Te  Te90  1  0.75947428  0.10937161  0.05476739  1
  Te  Te91  1  0.74211618  0.07520526  0.41309651  1
  Te  Te92  1  0.73476922  0.08907370  0.75735262  1
  Te  Te93  1  0.75523911  0.41148719  0.08819705  1
  Te  Te94  1  0.75355772  0.39990114  0.42737694  1
  Te  Te95  1  0.76726385  0.40944245  0.74592271  1
  Te  Te96  1  0.73506707  0.74517170  0.08692069  1
  Te  Te97  1  0.76048372  0.76087818  0.41468270  1
  Te  Te98  1  0.75327120  0.74211790  0.75446231  1
  Te  Te99  1  0.08922476  0.22643759  0.26677052  1
  Te  Te100  1  0.06788169  0.23588343  0.58714386  1
  Te  Te101  1  0.09512945  0.24691664  0.91827299  1
  Te  Te102  1  0.08112024  0.59222003  0.23213023  1
  Te  Te103  1  0.06456332  0.56929047  0.55148078  1
  Te  Te104  1  0.08908232  0.59038070  0.91938246  1
  Te  Te105  1  0.10985149  0.90267687  0.25130147  1
  Te  Te106  1  0.07575951  0.92969351  0.58940895  1
  Te  Te107  1  0.09655085  0.88683294  0.89445336  1
  Te  Te108  1  0.41122483  0.25035736  0.24950451  1
  Te  Te109  1  0.42623277  0.27908360  0.57442289  1
  Te  Te110  1  0.42048353  0.24132249  0.91371933  1
  Te  Te111  1  0.38033314  0.60930213  0.22654811  1
  Te  Te112  1  0.40935083  0.60082897  0.58208493  1
  Te  Te113  1  0.39168728  0.58636407  0.91842003  1
  Te  Te114  1  0.42105135  0.93215312  0.23478185  1
  Te  Te115  1  0.42697013  0.90051784  0.56787798  1
  Te  Te116  1  0.42770163  0.91191402  0.93305804  1
  Te  Te117  1  0.74725616  0.27021965  0.25282086  1
  Te  Te118  1  0.76512982  0.26111881  0.57467007  1
  Te  Te119  1  0.73432651  0.22702043  0.95310074  1
  Te  Te120  1  0.74446696  0.59267221  0.25848037  1
  Te  Te121  1  0.74719469  0.56074650  0.59153937  1
  Te  Te122  1  0.72885554  0.60016765  0.93198600  1
  Te  Te123  1  0.72905593  0.93987342  0.25569747  1
  Te  Te124  1  0.75438827  0.93668164  0.58423738  1
  Te  Te125  1  0.74951267  0.91592483  0.90891665  1
  Te  Te126  1  0.24931240  0.24694169  0.08592775  1
  Te  Te127  1  0.24272975  0.23803609  0.41768964  1
  Te  Te128  1  0.26550746  0.24700085  0.73481181  1
  Te  Te129  1  0.28417448  0.59463288  0.10113263  1
  Te  Te130  1  0.25414930  0.59667751  0.40968965  1
  Te  Te131  1  0.25962062  0.57413184  0.76215702  1
  Te  Te132  1  0.24693484  0.85598371  0.06274215  1
  Te  Te133  1  0.23219398  0.88329913  0.43266457  1
  Te  Te134  1  0.25125707  0.91662241  0.75232476  1
  Te  Te135  1  0.59225684  0.25579720  0.07243900  1
  Te  Te136  1  0.57513956  0.25945939  0.42248393  1
  Te  Te137  1  0.59994964  0.23763550  0.76598826  1
  Te  Te138  1  0.56632164  0.59979911  0.08295437  1
  Te  Te139  1  0.55735810  0.60444990  0.42068176  1
  Te  Te140  1  0.58565339  0.58800804  0.75639662  1
  Te  Te141  1  0.55977473  0.89902015  0.06571765  1
  Te  Te142  1  0.58237808  0.92210638  0.40385493  1
  Te  Te143  1  0.58810002  0.90611955  0.73106736  1
  Te  Te144  1  0.89310580  0.26952715  0.09345097  1
  Te  Te145  1  0.91468599  0.26449306  0.42938687  1
  Te  Te146  1  0.90868473  0.25414458  0.74326764  1
  Te  Te147  1  0.93147161  0.59178736  0.06423060  1
  Te  Te148  1  0.90842162  0.56567368  0.41102999  1
  Te  Te149  1  0.91112991  0.58197310  0.73621024  1
  Te  Te150  1  0.90823632  0.91993509  0.09152843  1
  Te  Te151  1  0.91134141  0.92652026  0.43437629  1
  Te  Te152  1  0.92721519  0.92378651  0.75987391  1
  Te  Te153  1  0.24455970  0.07508035  0.25556734  1
  Te  Te154  1  0.24442411  0.06631143  0.57071958  1
  Te  Te155  1  0.25189531  0.04274074  0.93265368  1
  Te  Te156  1  0.26219803  0.43002525  0.23519434  1
  Te  Te157  1  0.24808025  0.41456717  0.59702483  1
  Te  Te158  1  0.24675980  0.42131144  0.91928118  1
  Te  Te159  1  0.29526481  0.75541461  0.26832132  1
  Te  Te160  1  0.27208554  0.78470796  0.56540359  1
  Te  Te161  1  0.27187391  0.73813481  0.93947876  1
  Te  Te162  1  0.56547674  0.07216374  0.22107057  1
  Te  Te163  1  0.59166157  0.08106705  0.59685073  1
  Te  Te164  1  0.58540672  0.07835490  0.90976323  1
  Te  Te165  1  0.58883192  0.43401273  0.26757363  1
  Te  Te166  1  0.57936152  0.42323042  0.57842995  1
  Te  Te167  1  0.59896795  0.40557798  0.92807215  1
  Te  Te168  1  0.55380527  0.73165904  0.22543558  1
  Te  Te169  1  0.56454855  0.74689783  0.56291663  1
  Te  Te170  1  0.55948829  0.76023942  0.94724135  1
  Te  Te171  1  0.91998313  0.08780879  0.25742099  1
  Te  Te172  1  0.93088729  0.06166415  0.59880052  1
  Te  Te173  1  0.92775062  0.10054023  0.93386861  1
  Te  Te174  1  0.92766235  0.42797889  0.22059770  1
  Te  Te175  1  0.97199295  0.46556934  0.61953350  1
  Te  Te176  1  0.91562143  0.42064061  0.89593325  1
  Te  Te177  1  0.92676702  0.74691352  0.26094870  1
  Te  Te178  1  0.92654099  0.73940568  0.58971556  1
  Te  Te179  1  0.93514792  0.74800207  0.92579947  1
