# generated using pymatgen
data_In2Te3
_symmetry_space_group_name_H-M   'P 1'
_cell_length_a   18.93836348
_cell_length_b   18.94475140
_cell_length_c   18.95649541
_cell_angle_alpha   89.93598579
_cell_angle_beta   89.82079925
_cell_angle_gamma   89.94540385
_symmetry_Int_Tables_number   1
_chemical_formula_structural   In2Te3
_chemical_formula_sum   'In72 Te108'
_cell_volume   6801.21990526
_cell_formula_units_Z   36
loop_
 _symmetry_equiv_pos_site_id
 _symmetry_equiv_pos_as_xyz
  1  'x, y, z'
loop_
 _atom_site_type_symbol
 _atom_site_label
 _atom_site_symmetry_multiplicity
 _atom_site_fract_x
 _atom_site_fract_y
 _atom_site_fract_z
 _atom_site_occupancy
  In  In0  1  0.00435063  0.65012164  -0.00694693  1
  In  In1  1  -0.00474128  0.33795407  0.68264774  1
  In  In2  1  0.17171069  0.34779883  0.87036460  1
  In  In3  1  0.01530712  0.02752432  -0.02138842  1
  In  In4  1  0.51563197  0.16891548  0.01871340  1
  In  In5  1  0.66437761  0.33580479  0.68933538  1
  In  In6  1  0.82730177  0.52260162  0.34142151  1
  In  In7  1  0.02054723  0.66165339  0.32160041  1
  In  In8  1  0.01580466  0.35111379  0.30357535  1
  In  In9  1  0.15176241  0.00121108  0.83692738  1
  In  In10  1  0.83258648  -0.00994781  0.50210330  1
  In  In11  1  0.65864211  0.60317101  -0.03425546  1
  In  In12  1  0.66419049  0.14264913  0.49752896  1
  In  In13  1  0.35232850  0.00271343  0.63894963  1
  In  In14  1  0.68225056  0.15561619  0.82802912  1
  In  In15  1  0.32493571  0.34032576  0.67367395  1
  In  In16  1  0.00895475  0.14651377  0.49178735  1
  In  In17  1  0.65054183  0.66854513  0.32359604  1
  In  In18  1  0.33434071  0.50316636  0.86057665  1
  In  In19  1  0.48688355  0.53361859  0.01884896  1
  In  In20  1  0.64724970  0.35640346  0.31945258  1
  In  In21  1  0.34717332  -0.01217516  0.02258481  1
  In  In22  1  0.46602774  0.32311233  0.49879450  1
  In  In23  1  -0.02575523  0.65995233  0.68139080  1
  In  In24  1  0.16972813  -0.02096186  0.48434817  1
  In  In25  1  0.65096470  0.82476150  0.17325797  1
  In  In26  1  0.18553960  0.17974055  -0.00279444  1
  In  In27  1  0.81869753  0.34898976  0.16901209  1
  In  In28  1  0.66953278  -0.01699270  0.66356083  1
  In  In29  1  0.83003475  0.15926489  0.34613983  1
  In  In30  1  0.14451195  0.18045824  0.66755916  1
  In  In31  1  0.83741317  0.66416488  0.16120819  1
  In  In32  1  0.67074307  0.51645347  0.52079708  1
  In  In33  1  0.47885662  -0.01525912  0.19658137  1
  In  In34  1  0.83637810  0.85053221  -0.02001963  1
  In  In35  1  0.03398707  0.16287237  0.17052914  1
  In  In36  1  0.34377974  0.15194154  0.47948157  1
  In  In37  1  -0.00922362  0.48647123  0.50172569  1
  In  In38  1  0.48445785  0.50368624  0.67251105  1
  In  In39  1  0.32570274  0.48929328  0.50401730  1
  In  In40  1  0.00519554  0.51084360  0.86065667  1
  In  In41  1  -0.01082996  0.15444518  0.83584287  1
  In  In42  1  0.51349669  0.83499221  0.65127731  1
  In  In43  1  0.15176665  0.64295288  0.48746462  1
  In  In44  1  0.16113798  0.63707309  0.84837727  1
  In  In45  1  0.20684147  0.69402466  0.19165652  1
  In  In46  1  0.18247273  0.51662250  0.31258133  1
  In  In47  1  0.65165263  0.35967051  0.00585437  1
  In  In48  1  0.84617768  0.34966417  0.84335658  1
  In  In49  1  0.13606754  0.83737598  0.65659350  1
  In  In50  1  -0.00431236  0.84487715  0.17938821  1
  In  In51  1  0.33887315  0.31999667  0.32197660  1
  In  In52  1  0.51096986  0.15587196  0.32459581  1
  In  In53  1  0.32464401  0.66395697  0.66488320  1
  In  In54  1  0.69677958  0.68216650  0.67672842  1
  In  In55  1  0.48847734  0.80662220  0.03427726  1
  In  In56  1  -0.04597950  0.84857739  0.79377875  1
  In  In57  1  0.84659526  0.17658124  0.01891415  1
  In  In58  1  0.35461512  0.82487195  0.42269909  1
  In  In59  1  0.16522365  0.34970126  0.13879177  1
  In  In60  1  0.68402746  -0.00485196  -0.01140299  1
  In  In61  1  0.48998243  0.52876545  0.28405688  1
  In  In62  1  0.32158115  0.84668561  0.84186407  1
  In  In63  1  0.83316994  0.31550442  0.51285107  1
  In  In64  1  -0.00650131  0.81320699  0.49832778  1
  In  In65  1  0.53030326  0.67491154  0.81958218  1
  In  In66  1  0.01589146  0.00666389  0.33012248  1
  In  In67  1  0.17289456  0.84631622  0.01617565  1
  In  In68  1  0.36161934  0.17422837  0.84160952  1
  In  In69  1  0.52935591  0.15142299  0.68463562  1
  In  In70  1  0.80536274  -0.01812628  0.16680394  1
  In  In71  1  0.62396579  0.82807419  0.47102069  1
  Te  Te72  1  0.12053292  0.06112073  0.08800192  1
  Te  Te73  1  0.11567649  0.09831056  0.39858546  1
  Te  Te74  1  0.06440776  0.06926778  0.73370224  1
  Te  Te75  1  0.07537884  0.42052385  0.04718967  1
  Te  Te76  1  0.09480849  0.43092637  0.40503522  1
  Te  Te77  1  0.08836377  0.42208388  0.76698046  1
  Te  Te78  1  0.07672283  0.75123570  0.08899923  1
  Te  Te79  1  0.10108803  0.75991604  0.40417286  1
  Te  Te80  1  0.08527179  0.73961040  0.76064630  1
  Te  Te81  1  0.41426658  0.09092478  0.10741024  1
  Te  Te82  1  0.44029759  0.05792136  0.41593967  1
  Te  Te83  1  0.42529505  0.06386424  0.75704954  1
  Te  Te84  1  0.37626672  0.44994256  0.07117516  1
  Te  Te85  1  0.42651342  0.43049907  0.39852626  1
  Te  Te86  1  0.41803494  0.40865035  0.77011399  1
  Te  Te87  1  0.37309480  0.72444194  0.08364897  1
  Te  Te88  1  0.49030488  0.75908700  0.41152308  1
  Te  Te89  1  0.40875657  0.75401559  0.75284980  1
  Te  Te90  1  0.73964044  0.09509152  0.09095861  1
  Te  Te91  1  0.73479699  0.05347560  0.39877468  1
  Te  Te92  1  0.76741649  0.06724998  0.74052914  1
  Te  Te93  1  0.75962308  0.43811015  0.06843830  1
  Te  Te94  1  0.75451512  0.41337644  0.42332401  1
  Te  Te95  1  0.74976139  0.42692510  0.76391362  1
  Te  Te96  1  0.75964068  0.76648256  0.07969911  1
  Te  Te97  1  0.73482510  0.75066925  0.40858404  1
  Te  Te98  1  0.74605255  0.75784217  0.79294546  1
  Te  Te99  1  0.11993007  0.25178119  0.25583478  1
  Te  Te100  1  0.06874330  0.26619135  0.57002727  1
  Te  Te101  1  0.07032775  0.24582870  0.92569456  1
  Te  Te102  1  0.09306742  0.58640698  0.21296865  1
  Te  Te103  1  0.07059906  0.57534612  0.59655135  1
  Te  Te104  1  0.12394165  0.54738001  0.96760624  1
  Te  Te105  1  0.10470243  0.91135587  0.25618797  1
  Te  Te106  1  0.05562968  0.93338905  0.57292113  1
  Te  Te107  1  0.06821848  0.89768718  0.90860393  1
  Te  Te108  1  0.44264722  0.25559633  0.24079437  1
  Te  Te109  1  0.41533842  0.22907621  0.60760244  1
  Te  Te110  1  0.42068645  0.25678052  0.94479428  1
  Te  Te111  1  0.40244292  0.61668675  0.20168634  1
  Te  Te112  1  0.41820361  0.59227132  0.56944823  1
  Te  Te113  1  0.41687078  0.61760500  0.90707977  1
  Te  Te114  1  0.41581843  0.85455958  0.23493976  1
  Te  Te115  1  0.39470334  0.87896106  0.56804428  1
  Te  Te116  1  0.43102340  0.90432781  0.92716280  1
  Te  Te117  1  0.74310865  0.25255050  0.26120480  1
  Te  Te118  1  0.73360978  0.23668077  0.59587566  1
  Te  Te119  1  0.75133700  0.25124315  0.92581478  1
  Te  Te120  1  0.73478024  0.57805797  0.23606768  1
  Te  Te121  1  0.77440416  0.59478345  0.58498884  1
  Te  Te122  1  0.77157699  0.63160659  0.87236495  1
  Te  Te123  1  0.74563643  0.89137603  0.26419187  1
  Te  Te124  1  0.73511674  0.89224540  0.56322594  1
  Te  Te125  1  0.73216633  0.89814043  0.88483648  1
  Te  Te126  1  0.25822206  0.23924229  0.10781335  1
  Te  Te127  1  0.26634261  0.26800877  0.43932579  1
  Te  Te128  1  0.23718471  0.24138675  0.77115055  1
  Te  Te129  1  0.28312376  0.59658944  0.10155933  1
  Te  Te130  1  0.27190153  0.59423726  0.40694583  1
  Te  Te131  1  0.24902324  0.56254074  0.74825490  1
  Te  Te132  1  0.26671800  0.90453062  0.11975368  1
  Te  Te133  1  0.27924244  0.94903638  0.39197950  1
  Te  Te134  1  0.24384323  0.92132824  0.73229452  1
  Te  Te135  1  0.59096431  0.26572325  0.10079159  1
  Te  Te136  1  0.58644756  0.25666048  0.42844217  1
  Te  Te137  1  0.57507799  0.25716266  0.78318721  1
  Te  Te138  1  0.58281540  0.61992208  0.09038188  1
  Te  Te139  1  0.58279414  0.56063639  0.40791463  1
  Te  Te140  1  0.60152534  0.57076045  0.73783218  1
  Te  Te141  1  0.58076417  0.92725879  0.08169163  1
  Te  Te142  1  0.52074416  0.91820753  0.41109174  1
  Te  Te143  1  0.57533615  0.91572628  0.75518766  1
  Te  Te144  1  0.93316985  0.25927777  0.11031009  1
  Te  Te145  1  0.92790432  0.26569687  0.39974572  1
  Te  Te146  1  0.90019769  0.24138096  0.74961450  1
  Te  Te147  1  0.90228514  0.57294084  0.06574973  1
  Te  Te148  1  0.92522176  0.60113329  0.42594747  1
  Te  Te149  1  0.89910383  0.57517680  0.77849148  1
  Te  Te150  1  0.92652115  0.93816146  0.07928806  1
  Te  Te151  1  0.92252655  0.91327793  0.40569162  1
  Te  Te152  1  0.88675745  0.96380692  0.74105395  1
  Te  Te153  1  0.21193612  0.02264222  0.20226972  1
  Te  Te154  1  0.23763340  0.08878397  0.58528733  1
  Te  Te155  1  0.26337747  0.06695462  0.91534747  1
  Te  Te156  1  0.26722577  0.42146826  0.23395824  1
  Te  Te157  1  0.23302593  0.41601956  0.59025687  1
  Te  Te158  1  0.28790970  0.39459589  0.95574324  1
  Te  Te159  1  0.29046086  0.76797803  0.29347135  1
  Te  Te160  1  0.22611521  0.74217637  0.57885180  1
  Te  Te161  1  0.24057288  0.74658605  0.92155240  1
  Te  Te162  1  0.59314522  0.06437833  0.24408060  1
  Te  Te163  1  0.56750649  0.05551744  0.57439543  1
  Te  Te164  1  0.58227088  0.07923493  0.91386010  1
  Te  Te165  1  0.56968844  0.42479436  0.21589934  1
  Te  Te166  1  0.56915179  0.40628639  0.58269896  1
  Te  Te167  1  0.58722504  0.46734083  0.92423468  1
  Te  Te168  1  0.53983515  0.76086981  0.25482181  1
  Te  Te169  1  0.58455433  0.72279754  0.58400148  1
  Te  Te170  1  0.58970007  0.74385404  0.93994644  1
  Te  Te171  1  0.91535852  0.08542276  0.24187852  1
  Te  Te172  1  0.89321704  0.10558924  0.56985477  1
  Te  Te173  1  0.88704798  0.07235024  0.91440561  1
  Te  Te174  1  0.91563304  0.44518637  0.24289175  1
  Te  Te175  1  0.89612977  0.42102567  0.60162833  1
  Te  Te176  1  0.93730971  0.40805890  0.94503404  1
  Te  Te177  1  0.91146850  0.74961457  0.26219061  1
  Te  Te178  1  0.90652922  0.76834345  0.60824970  1
  Te  Te179  1  0.92587058  0.75203582  0.90722760  1
