# generated using pymatgen
data_In2Te3
_symmetry_space_group_name_H-M   'P 1'
_cell_length_a   18.87566131
_cell_length_b   18.86565634
_cell_length_c   18.86889492
_cell_angle_alpha   90.02999588
_cell_angle_beta   89.95890057
_cell_angle_gamma   90.03189128
_symmetry_Int_Tables_number   1
_chemical_formula_structural   In2Te3
_chemical_formula_sum   'In72 Te108'
_cell_volume   6719.24261379
_cell_formula_units_Z   36
loop_
 _symmetry_equiv_pos_site_id
 _symmetry_equiv_pos_as_xyz
  1  'x, y, z'
loop_
 _atom_site_type_symbol
 _atom_site_label
 _atom_site_symmetry_multiplicity
 _atom_site_fract_x
 _atom_site_fract_y
 _atom_site_fract_z
 _atom_site_occupancy
  In  In0  1  -0.06295948  0.30263750  0.01246994  1
  In  In1  1  0.82630092  0.47792260  0.65904671  1
  In  In2  1  0.49990043  0.50072586  0.00237252  1
  In  In3  1  0.18633954  0.31065981  0.82277797  1
  In  In4  1  0.81797890  0.02608363  0.49480566  1
  In  In5  1  0.67508089  0.03024637  0.32487906  1
  In  In6  1  0.16548674  0.15208923  -0.00009958  1
  In  In7  1  0.15122720  0.53342393  0.65925529  1
  In  In8  1  0.34778306  0.82863830  0.84489512  1
  In  In9  1  0.18411757  0.68889049  0.82508182  1
  In  In10  1  -0.00459631  0.48153421  0.86106364  1
  In  In11  1  0.35694861  0.34499627  0.66142046  1
  In  In12  1  0.15679182  0.01571161  0.15774293  1
  In  In13  1  0.15490106  0.65473552  0.17165528  1
  In  In14  1  0.31253712  0.66267116  0.32665475  1
  In  In15  1  0.35216108  0.34140569  -0.00577657  1
  In  In16  1  0.82163023  -0.00032927  0.84562490  1
  In  In17  1  0.51916106  0.00704562  0.15905867  1
  In  In18  1  0.51015336  0.85545849  0.30791548  1
  In  In19  1  0.49358012  0.65712239  0.50838811  1
  In  In20  1  0.36469908  0.19031465  0.81633384  1
  In  In21  1  0.16419895  0.33946916  0.49262557  1
  In  In22  1  0.52002626  0.32523089  0.48162660  1
  In  In23  1  0.52140846  0.34387391  0.83907579  1
  In  In24  1  0.48435105  0.02998352  0.50528345  1
  In  In25  1  0.81474741  0.84257081  0.34081362  1
  In  In26  1  0.82647178  0.44931493  0.31078864  1
  In  In27  1  0.82781563  0.05882089  0.20169710  1
  In  In28  1  0.83150868  0.82548551  0.69313223  1
  In  In29  1  0.17968549  0.86724998  0.32468384  1
  In  In30  1  0.16228450  0.00007086  0.83577690  1
  In  In31  1  0.00340604  0.83341343  0.16166600  1
  In  In32  1  0.69641687  0.19125932  0.87077143  1
  In  In33  1  0.51064498  0.81889744  -0.01116141  1
  In  In34  1  0.34629594  0.53852329  0.51824576  1
  In  In35  1  0.36692777  0.67847747  0.65562740  1
  In  In36  1  0.53297059  0.86543327  0.68701888  1
  In  In37  1  0.82378785  0.66951074  0.84373173  1
  In  In38  1  0.65943706  -0.00037557  -0.01225583  1
  In  In39  1  0.53243158  0.17601505  0.66295004  1
  In  In40  1  -0.00532511  0.65056854  0.65086294  1
  In  In41  1  0.66138262  0.48714386  0.51185202  1
  In  In42  1  0.82331839  0.64393329  0.50661930  1
  In  In43  1  0.50473760  0.68537366  0.16142050  1
  In  In44  1  0.01363164  0.85497659  0.49662910  1
  In  In45  1  0.66536436  0.64377420  0.00646796  1
  In  In46  1  0.33905027  0.01881434  0.65850126  1
  In  In47  1  0.66967840  0.83781640  0.50294848  1
  In  In48  1  0.83078593  0.61370927  0.13735128  1
  In  In49  1  0.14869636  0.34952561  0.15675065  1
  In  In50  1  0.15946132  0.83803632  0.64944672  1
  In  In51  1  0.33563215  -0.01503951  0.00653275  1
  In  In52  1  0.35305077  0.48565685  0.14222627  1
  In  In53  1  0.35619291  0.17658827  0.17770870  1
  In  In54  1  0.12987574  0.66719231  0.53337663  1
  In  In55  1  -0.00922996  0.33519011  0.66035713  1
  In  In56  1  -0.02932830  0.83449855  0.84824828  1
  In  In57  1  -0.00812607  0.16039356  0.83098503  1
  In  In58  1  0.31612214  0.33303494  0.33158001  1
  In  In59  1  0.12790280  0.50759682  0.33522398  1
  In  In60  1  0.51596680  0.47894005  0.32845125  1
  In  In61  1  0.33093423  0.85461737  0.46635039  1
  In  In62  1  0.15370365  0.50553496  0.01400899  1
  In  In63  1  0.80192084  0.18754135  0.64379461  1
  In  In64  1  0.82211254  0.84047209  0.00763747  1
  In  In65  1  -0.01806251  0.66595326  0.34470251  1
  In  In66  1  0.66616239  0.50079245  0.83405102  1
  In  In67  1  0.14911569  0.18366476  0.34039281  1
  In  In68  1  0.68681954  0.43052624  0.16921102  1
  In  In69  1  -0.00582769  0.00522615  -0.01762171  1
  In  In70  1  0.35285441  -0.00217035  0.33942320  1
  In  In71  1  -0.02881100  0.19699058  0.48328446  1
  Te  Te72  1  0.05051540  0.10213225  0.08847398  1
  Te  Te73  1  0.05199021  0.09373958  0.40858189  1
  Te  Te74  1  0.09451599  0.09527318  0.74822095  1
  Te  Te75  1  0.03947734  0.41696349  0.07008754  1
  Te  Te76  1  0.06651906  0.38283851  0.38795642  1
  Te  Te77  1  0.09370692  0.41807347  0.74956141  1
  Te  Te78  1  0.07525231  0.73642240  0.07896949  1
  Te  Te79  1  0.09487033  0.75724027  0.40204988  1
  Te  Te80  1  0.06472836  0.75528351  0.74581683  1
  Te  Te81  1  0.42466090  0.09048527  0.07243331  1
  Te  Te82  1  0.43776376  0.10625397  0.38894236  1
  Te  Te83  1  0.44457104  0.08009236  0.74681286  1
  Te  Te84  1  0.45626615  0.38485798  0.09876334  1
  Te  Te85  1  0.40402355  0.42749266  0.42913953  1
  Te  Te86  1  0.39805145  0.41136594  0.78730753  1
  Te  Te87  1  0.41018410  0.74126229  0.06592875  1
  Te  Te88  1  0.41988059  0.74644775  0.40207860  1
  Te  Te89  1  0.44885890  0.75588376  0.75814201  1
  Te  Te90  1  0.74155860  0.09079673  0.07900927  1
  Te  Te91  1  0.75039863  0.12965499  0.40887571  1
  Te  Te92  1  0.74614827  0.09486365  0.75539364  1
  Te  Te93  1  0.80090108  0.39844814  0.07393538  1
  Te  Te94  1  0.74411732  0.39475183  0.42658029  1
  Te  Te95  1  0.73840506  0.40235701  0.74976869  1
  Te  Te96  1  0.75109376  0.73679414  0.09440422  1
  Te  Te97  1  0.73893649  0.73374009  0.41566222  1
  Te  Te98  1  0.73332792  0.72919105  0.74501732  1
  Te  Te99  1  0.08216380  0.23295183  0.21721658  1
  Te  Te100  1  0.08468149  0.24578873  0.58152379  1
  Te  Te101  1  0.08324050  0.25465869  0.92169732  1
  Te  Te102  1  0.03939787  0.57496325  0.23339086  1
  Te  Te103  1  0.04119524  0.54261111  0.55367995  1
  Te  Te104  1  0.09052004  0.59108446  0.90428973  1
  Te  Te105  1  0.06558871  0.93812567  0.25425591  1
  Te  Te106  1  0.07599157  0.94472633  0.59435319  1
  Te  Te107  1  0.08780490  0.90033343  0.92239637  1
  Te  Te108  1  0.43065567  0.27413356  0.25987464  1
  Te  Te109  1  0.42746414  0.24301499  0.57568012  1
  Te  Te110  1  0.44974765  0.24170358  0.93071672  1
  Te  Te111  1  0.41517369  0.57471176  0.25617103  1
  Te  Te112  1  0.45894238  0.55564978  0.61902098  1
  Te  Te113  1  0.43479729  0.56176010  0.88459409  1
  Te  Te114  1  0.40482592  0.91797864  0.22113959  1
  Te  Te115  1  0.42341008  0.90322763  0.57866929  1
  Te  Te116  1  0.43943857  0.93045910  0.91017073  1
  Te  Te117  1  0.72890666  0.26534923  0.21764592  1
  Te  Te118  1  0.73611830  0.28503507  0.55079250  1
  Te  Te119  1  0.75051219  0.29633155  0.96416562  1
  Te  Te120  1  0.74262051  0.55907230  0.24652016  1
  Te  Te121  1  0.72929361  0.58610446  0.60988749  1
  Te  Te122  1  0.76818044  0.55853438  0.93054968  1
  Te  Te123  1  0.74619510  0.92885890  0.23724365  1
  Te  Te124  1  0.76324567  0.91785494  0.59111359  1
  Te  Te125  1  0.72989121  0.88453472  0.89198441  1
  Te  Te126  1  0.25508145  0.25297027  0.08120762  1
  Te  Te127  1  0.26022156  0.23567392  0.43416131  1
  Te  Te128  1  0.26108462  0.23561930  0.71365107  1
  Te  Te129  1  0.26390426  0.58910822  0.07823781  1
  Te  Te130  1  0.22777623  0.58043912  0.42474698  1
  Te  Te131  1  0.26599540  0.59417219  0.73868432  1
  Te  Te132  1  0.22657411  0.91619166  0.07531561  1
  Te  Te133  1  0.22574325  0.96411995  0.43760416  1
  Te  Te134  1  0.25868346  0.90794956  0.74425564  1
  Te  Te135  1  0.63692220  0.19661874  0.12060445  1
  Te  Te136  1  0.62202114  0.21304657  0.47350201  1
  Te  Te137  1  0.61737849  0.26392454  0.75235334  1
  Te  Te138  1  0.58789030  0.56286201  0.11288912  1
  Te  Te139  1  0.58822023  0.58054651  0.41456744  1
  Te  Te140  1  0.54301528  0.56146222  0.78055972  1
  Te  Te141  1  0.59814673  0.90022172  0.08541821  1
  Te  Te142  1  0.58492906  0.93279331  0.41605567  1
  Te  Te143  1  0.63572770  0.92332348  0.77216905  1
  Te  Te144  1  0.86806828  0.27301886  0.14517965  1
  Te  Te145  1  0.89859065  0.25789641  0.36717664  1
  Te  Te146  1  0.90075918  0.24939627  0.74736138  1
  Te  Te147  1  0.93664702  0.53757780  0.07314462  1
  Te  Te148  1  0.89620129  0.55754663  0.40604043  1
  Te  Te149  1  0.91739068  0.57299698  0.75688272  1
  Te  Te150  1  0.90734701  0.93624309  0.08829452  1
  Te  Te151  1  0.91123112  0.93249478  0.41420798  1
  Te  Te152  1  0.92355626  0.93784620  0.74964379  1
  Te  Te153  1  0.25360140  0.09085511  0.25155678  1
  Te  Te154  1  0.26524802  0.07069121  0.54651381  1
  Te  Te155  1  0.26855223  0.09515449  0.90127467  1
  Te  Te156  1  0.23984827  0.43962292  0.24391135  1
  Te  Te157  1  0.24861994  0.42912732  0.58719874  1
  Te  Te158  1  0.23962431  0.41525464  0.92258943  1
  Te  Te159  1  0.24703438  0.76359540  0.23540899  1
  Te  Te160  1  0.25950745  0.75130212  0.56495243  1
  Te  Te161  1  0.26111149  0.75002219  0.93391383  1
  Te  Te162  1  0.57651618  0.11479218  0.24768327  1
  Te  Te163  1  0.60527065  0.07667713  0.57799220  1
  Te  Te164  1  0.58782265  0.09670643  0.90467478  1
  Te  Te165  1  0.60711128  0.36909462  0.28116305  1
  Te  Te166  1  0.56457591  0.40997580  0.59414107  1
  Te  Te167  1  0.60787398  0.40690434  0.94790861  1
  Te  Te168  1  0.59574972  0.74883862  0.25686058  1
  Te  Te169  1  0.58220716  0.75103235  0.59089946  1
  Te  Te170  1  0.58711086  0.72037284  0.90926799  1
  Te  Te171  1  0.91567739  0.11539840  0.30800168  1
  Te  Te172  1  0.91344846  0.09960487  0.58790167  1
  Te  Te173  1  0.89115586  0.10574607  0.93197347  1
  Te  Te174  1  0.94604616  0.37081373  0.26767710  1
  Te  Te175  1  0.89640743  0.39161726  0.56103743  1
  Te  Te176  1  0.89373126  0.37737068  0.89009730  1
  Te  Te177  1  0.90234766  0.75476321  0.25005685  1
  Te  Te178  1  0.91500588  0.75681123  0.56735729  1
  Te  Te179  1  0.91515761  0.73411487  0.94764148  1
