# generated using pymatgen
data_In2Te3
_symmetry_space_group_name_H-M   'P 1'
_cell_length_a   18.83029578
_cell_length_b   18.82871173
_cell_length_c   18.83433529
_cell_angle_alpha   90.03614035
_cell_angle_beta   90.02477437
_cell_angle_gamma   90.01194887
_symmetry_Int_Tables_number   1
_chemical_formula_structural   In2Te3
_chemical_formula_sum   'In72 Te108'
_cell_volume   6677.71545469
_cell_formula_units_Z   36
loop_
 _symmetry_equiv_pos_site_id
 _symmetry_equiv_pos_as_xyz
  1  'x, y, z'
loop_
 _atom_site_type_symbol
 _atom_site_label
 _atom_site_symmetry_multiplicity
 _atom_site_fract_x
 _atom_site_fract_y
 _atom_site_fract_z
 _atom_site_occupancy
  In  In0  1  0.01982839  0.64771500  0.62766219  1
  In  In1  1  0.16081752  0.18143566  -0.01721297  1
  In  In2  1  0.16269182  0.84248157  0.60866610  1
  In  In3  1  0.50141327  0.67262602  0.79811253  1
  In  In4  1  0.83998618  0.68595891  0.48613691  1
  In  In5  1  0.34534986  0.16590673  0.18669898  1
  In  In6  1  0.31539869  0.49894494  0.81960643  1
  In  In7  1  0.03956204  0.62700907  0.35707496  1
  In  In8  1  0.16320591  0.64986126  0.22414023  1
  In  In9  1  0.49697512  0.48774212  0.01665420  1
  In  In10  1  0.64060012  0.34688516  0.34686198  1
  In  In11  1  0.84305598  0.49608370  0.31591399  1
  In  In12  1  -0.01685641  0.82864535  0.18071682  1
  In  In13  1  0.34423302  -0.02203698  0.62734643  1
  In  In14  1  0.29935062  0.34161620  0.64659522  1
  In  In15  1  0.16801357  0.33899919  0.81841366  1
  In  In16  1  -0.00905364  0.63913613  0.00474459  1
  In  In17  1  0.01744994  0.18769710  0.51334063  1
  In  In18  1  0.31573784  0.62817380  0.62168145  1
  In  In19  1  0.35185750  0.03893866  0.00621332  1
  In  In20  1  0.16656580  0.33443484  0.18105838  1
  In  In21  1  0.66477921  0.51204808  0.50691170  1
  In  In22  1  0.01010585  0.17483694  0.80979352  1
  In  In23  1  0.19201967  0.67062661  0.81370875  1
  In  In24  1  0.67628925  0.00190014  -0.00292774  1
  In  In25  1  0.80949292  0.00267723  0.18619629  1
  In  In26  1  0.81225817  0.84615510  0.00249629  1
  In  In27  1  -0.01592589  0.83268066  0.80204434  1
  In  In28  1  0.50341657  0.18962016  0.34195437  1
  In  In29  1  0.35189575  0.64505295  0.02735757  1
  In  In30  1  0.00998986  0.03073625  -0.00329831  1
  In  In31  1  0.49368878  0.15087615  0.67090956  1
  In  In32  1  0.65924813  0.32843051  0.00990888  1
  In  In33  1  0.16340514  0.83708745  0.34967927  1
  In  In34  1  0.65800387  0.48498945  0.17118487  1
  In  In35  1  0.33192881  0.48924148  0.18590810  1
  In  In36  1  0.33975110  -0.02058517  0.34603755  1
  In  In37  1  0.34601127  0.83078422  0.83018719  1
  In  In38  1  0.15854697  0.02511640  0.13265359  1
  In  In39  1  0.52013223  0.69643665  0.22154572  1
  In  In40  1  0.65557376  0.00720878  0.66782329  1
  In  In41  1  0.66964957  0.17581022  0.15830005  1
  In  In42  1  0.86652762  0.31340271  0.16100776  1
  In  In43  1  0.52652113  0.83820499  0.01598537  1
  In  In44  1  0.00446955  0.00284978  0.34603979  1
  In  In45  1  0.31994767  0.82886276  0.19951093  1
  In  In46  1  0.52916231  0.00764677  0.82925676  1
  In  In47  1  0.82266634  0.66253857  0.84261716  1
  In  In48  1  0.15657054  0.83284160  0.01621850  1
  In  In49  1  0.46993727  0.65738802  0.47427840  1
  In  In50  1  0.67287035  0.16763329  0.83789850  1
  In  In51  1  0.48220772  0.32973382  0.84565307  1
  In  In52  1  0.85183189  0.00053730  0.48753414  1
  In  In53  1  0.83469477  0.17212430  0.34805530  1
  In  In54  1  0.01005685  0.48105932  0.81274150  1
  In  In55  1  0.66966848  -0.01224636  0.34682477  1
  In  In56  1  0.65665304  0.65367758  0.65927113  1
  In  In57  1  0.15850442  0.17043749  0.34693113  1
  In  In58  1  0.16411531  0.47464792  0.00107741  1
  In  In59  1  0.86234785  0.47507960  0.66902583  1
  In  In60  1  0.68920521  0.64593780  0.01082849  1
  In  In61  1  0.65495122  0.82773385  0.48775250  1
  In  In62  1  0.14820276  0.00245746  0.79999107  1
  In  In63  1  0.67133500  0.34236782  0.63975270  1
  In  In64  1  0.83892001  0.67755564  0.16922761  1
  In  In65  1  0.35120988  0.19661133  0.82223950  1
  In  In66  1  0.84497830  0.31937618  0.51390340  1
  In  In67  1  0.84598987  0.83267153  0.67364145  1
  In  In68  1  0.46368235  0.48518760  0.36231395  1
  In  In69  1  0.64755051  0.85927630  0.84061696  1
  In  In70  1  0.85025305  0.33225571  0.82848520  1
  In  In71  1  0.31596646  0.17717464  0.50388633  1
  Te  Te72  1  0.05604400  0.13837930  0.09955386  1
  Te  Te73  1  0.09934512  0.06420555  0.45262746  1
  Te  Te74  1  0.06522537  0.07992793  0.70674679  1
  Te  Te75  1  0.07346023  0.39055112  0.07807174  1
  Te  Te76  1  0.12227724  0.47184626  0.41211759  1
  Te  Te77  1  0.08686540  0.40446653  0.70718684  1
  Te  Te78  1  0.08031861  0.73397418  0.10242655  1
  Te  Te79  1  0.08018158  0.74828141  0.43440655  1
  Te  Te80  1  0.09381299  0.75152848  0.72878915  1
  Te  Te81  1  0.43616610  0.06796572  0.12172454  1
  Te  Te82  1  0.41116115  0.09316487  0.41881479  1
  Te  Te83  1  0.40092232  0.06338429  0.76098750  1
  Te  Te84  1  0.39019305  0.40831152  0.07725828  1
  Te  Te85  1  0.37700440  0.38494737  0.43011377  1
  Te  Te86  1  0.40535223  0.40847310  0.73805177  1
  Te  Te87  1  0.42308841  0.75702556  0.09949544  1
  Te  Te88  1  0.38884182  0.77879386  0.44362919  1
  Te  Te89  1  0.38789917  0.73358250  0.72063573  1
  Te  Te90  1  0.76926814  0.09696710  0.07417578  1
  Te  Te91  1  0.73937798  0.09264887  0.43500388  1
  Te  Te92  1  0.75257738  0.08574762  0.74544035  1
  Te  Te93  1  0.76084811  0.40817566  0.09251896  1
  Te  Te94  1  0.75659000  0.41775133  0.42479666  1
  Te  Te95  1  0.74653911  0.41999758  0.74711445  1
  Te  Te96  1  0.73129998  0.76411092  0.09941632  1
  Te  Te97  1  0.72778043  0.73032240  0.39761744  1
  Te  Te98  1  0.73784077  0.75698492  0.75594919  1
  Te  Te99  1  0.07040025  0.25662914  0.26650962  1
  Te  Te100  1  0.07754217  0.30063644  0.58883279  1
  Te  Te101  1  0.06696411  0.27696126  0.91315391  1
  Te  Te102  1  0.05733602  0.54535010  0.23232849  1
  Te  Te103  1  0.11351350  0.58084071  0.53167169  1
  Te  Te104  1  0.09845638  0.58534892  0.90315545  1
  Te  Te105  1  0.09260735  0.92289442  0.23320175  1
  Te  Te106  1  0.07555398  0.93958121  0.54515427  1
  Te  Te107  1  0.07984941  0.91266755  0.91197268  1
  Te  Te108  1  0.40266035  0.27330483  0.27045686  1
  Te  Te109  1  0.41533441  0.25404854  0.59275327  1
  Te  Te110  1  0.42588153  0.23270760  0.94365408  1
  Te  Te111  1  0.41478178  0.59338236  0.26266784  1
  Te  Te112  1  0.43693775  0.55525287  0.57889919  1
  Te  Te113  1  0.41374547  0.58410063  0.90246178  1
  Te  Te114  1  0.43146413  0.90727818  0.25591223  1
  Te  Te115  1  0.43070461  0.89748191  0.53512363  1
  Te  Te116  1  0.42874494  0.91714947  0.92569512  1
  Te  Te117  1  0.74849356  0.26626627  0.26189669  1
  Te  Te118  1  0.75653241  0.23272675  0.59344376  1
  Te  Te119  1  0.76190432  0.25239753  0.92637801  1
  Te  Te120  1  0.74016271  0.58595957  0.24904633  1
  Te  Te121  1  0.77814656  0.58772991  0.59350776  1
  Te  Te122  1  0.76444244  0.55461054  0.92358697  1
  Te  Te123  1  0.75726793  0.89270175  0.26931335  1
  Te  Te124  1  0.74889240  0.90923800  0.58025392  1
  Te  Te125  1  0.76721952  0.93834441  0.88955873  1
  Te  Te126  1  0.25051840  0.24082248  0.08933576  1
  Te  Te127  1  0.25728974  0.27118717  0.40168186  1
  Te  Te128  1  0.23404015  0.22905380  0.73413951  1
  Te  Te129  1  0.23237428  0.58277135  0.09370648  1
  Te  Te130  1  0.23879329  0.56119005  0.43238064  1
  Te  Te131  1  0.21808767  0.55576506  0.71797268  1
  Te  Te132  1  0.26556042  0.92000639  0.07959978  1
  Te  Te133  1  0.23159537  0.93573596  0.43885714  1
  Te  Te134  1  0.24652734  0.90162058  0.73634740  1
  Te  Te135  1  0.56642572  0.26563111  0.10476092  1
  Te  Te136  1  0.57938127  0.26082796  0.44806465  1
  Te  Te137  1  0.58088516  0.25234624  0.75067801  1
  Te  Te138  1  0.57039710  0.59597205  0.09617943  1
  Te  Te139  1  0.58104396  0.57836258  0.39946342  1
  Te  Te140  1  0.58931767  0.56402691  0.75438934  1
  Te  Te141  1  0.59644061  0.93487434  0.10111060  1
  Te  Te142  1  0.55798533  0.92508172  0.42811298  1
  Te  Te143  1  0.55537245  0.89796095  0.72796830  1
  Te  Te144  1  0.92692261  0.21973154  0.06588492  1
  Te  Te145  1  0.94098996  0.26511306  0.40545009  1
  Te  Te146  1  0.92933191  0.26649342  0.72376903  1
  Te  Te147  1  0.90330958  0.56627418  0.09602983  1
  Te  Te148  1  0.91578653  0.56729536  0.42990385  1
  Te  Te149  1  0.92897909  0.60442297  0.74790870  1
  Te  Te150  1  0.91933070  0.92849440  0.08265428  1
  Te  Te151  1  0.90737311  0.90164044  0.39342456  1
  Te  Te152  1  0.92544973  0.94535221  0.72846720  1
  Te  Te153  1  0.23792891  0.07402807  0.25655459  1
  Te  Te154  1  0.25099201  0.09016781  0.60563762  1
  Te  Te155  1  0.23680141  0.06981080  0.91124209  1
  Te  Te156  1  0.21969563  0.44303070  0.27361761  1
  Te  Te157  1  0.26927231  0.43496607  0.53119832  1
  Te  Te158  1  0.26734842  0.39614250  0.92101654  1
  Te  Te159  1  0.26795258  0.72967329  0.30157931  1
  Te  Te160  1  0.26266831  0.74893018  0.54722009  1
  Te  Te161  1  0.25533582  0.75079112  0.93241723  1
  Te  Te162  1  0.59461347  0.09416292  0.26276512  1
  Te  Te163  1  0.57020981  0.07642426  0.57057391  1
  Te  Te164  1  0.57650618  0.10201210  0.93751896  1
  Te  Te165  1  0.54810188  0.41592822  0.24843781  1
  Te  Te166  1  0.56638995  0.42169342  0.57108977  1
  Te  Te167  1  0.58546325  0.42202759  0.91298954  1
  Te  Te168  1  0.61367927  0.78064763  0.29600753  1
  Te  Te169  1  0.56653672  0.73575125  0.57186688  1
  Te  Te170  1  0.58889524  0.73492102  0.91856146  1
  Te  Te171  1  0.91744101  0.08767242  0.25196639  1
  Te  Te172  1  0.91835226  0.09721984  0.57646078  1
  Te  Te173  1  0.92111650  0.09816007  0.90312787  1
  Te  Te174  1  0.94275925  0.40563867  0.25225849  1
  Te  Te175  1  0.95003503  0.41566995  0.56430547  1
  Te  Te176  1  0.91922648  0.43141720  0.91612402  1
  Te  Te177  1  0.93299594  0.72644789  0.27706867  1
  Te  Te178  1  0.93766694  0.76492325  0.57182990  1
  Te  Te179  1  0.91924329  0.75490396  0.93169442  1
