# generated using pymatgen
data_In2Te3
_symmetry_space_group_name_H-M   'P 1'
_cell_length_a   18.94330249
_cell_length_b   18.92701294
_cell_length_c   18.94267092
_cell_angle_alpha   89.91193751
_cell_angle_beta   90.04024787
_cell_angle_gamma   90.05731879
_symmetry_Int_Tables_number   1
_chemical_formula_structural   In2Te3
_chemical_formula_sum   'In72 Te108'
_cell_volume   6791.69462961
_cell_formula_units_Z   36
loop_
 _symmetry_equiv_pos_site_id
 _symmetry_equiv_pos_as_xyz
  1  'x, y, z'
loop_
 _atom_site_type_symbol
 _atom_site_label
 _atom_site_symmetry_multiplicity
 _atom_site_fract_x
 _atom_site_fract_y
 _atom_site_fract_z
 _atom_site_occupancy
  In  In0  1  0.81354236  0.51813788  0.33807820  1
  In  In1  1  0.66711005  0.83852710  0.83554669  1
  In  In2  1  0.66470844  0.68629905  0.64739456  1
  In  In3  1  -0.00361176  0.86342503  0.80696458  1
  In  In4  1  0.20295453  0.65542735  0.81938291  1
  In  In5  1  0.84662138  0.48146789  -0.01722103  1
  In  In6  1  0.68379210  0.31468255  0.68637117  1
  In  In7  1  0.01925946  0.49859766  0.52982768  1
  In  In8  1  0.15612158  0.85311515  0.35174453  1
  In  In9  1  0.82165256  0.01017384  0.49476387  1
  In  In10  1  0.16833168  0.80642884  -0.00956197  1
  In  In11  1  0.16212512  0.49445215  0.00329954  1
  In  In12  1  0.32599777  0.84083380  0.18417923  1
  In  In13  1  0.33492463  0.50887855  0.16688852  1
  In  In14  1  0.19603206  0.18919155  0.32682723  1
  In  In15  1  0.86214545  0.32245486  0.80689174  1
  In  In16  1  0.32574338  0.49861726  0.51478161  1
  In  In17  1  0.01272276  0.16281350  0.16682290  1
  In  In18  1  -0.02333397  -0.03552732  0.02419479  1
  In  In19  1  0.66863080  -0.00756158  0.00114989  1
  In  In20  1  -0.03076968  0.51823081  0.17417203  1
  In  In21  1  0.83154989  0.17801882  0.32127495  1
  In  In22  1  0.33202658  0.64489707  -0.01046609  1
  In  In23  1  0.00532774  0.31248151  -0.02449021  1
  In  In24  1  0.62878698  0.49698417  0.20586550  1
  In  In25  1  0.66640275  0.51123410  0.49593602  1
  In  In26  1  -0.01567128  0.67605309  0.33449798  1
  In  In27  1  0.67386552  0.67589935  0.02279163  1
  In  In28  1  0.34098106  0.00676620  -0.04298030  1
  In  In29  1  0.17126163  0.67887237  0.51420432  1
  In  In30  1  0.17434039  0.34067769  0.81512267  1
  In  In31  1  0.66218998  0.48747841  0.82211474  1
  In  In32  1  0.51054081  0.14893007  -0.01037307  1
  In  In33  1  0.00583147  0.66984582  0.66083828  1
  In  In34  1  0.32501849  -0.01151072  0.34525139  1
  In  In35  1  0.18457287  0.83509043  0.66075098  1
  In  In36  1  0.49548231  0.31820679  0.82142759  1
  In  In37  1  0.36088123  0.01770467  0.69210424  1
  In  In38  1  0.86041391  0.14500297  0.67842759  1
  In  In39  1  0.33163572  0.33201546  0.02302801  1
  In  In40  1  0.83468710  0.14481552  -0.02034080  1
  In  In41  1  0.66256902  0.33200609  0.02472223  1
  In  In42  1  0.65388427  -0.00531746  0.66781434  1
  In  In43  1  0.83533908  0.33417408  0.18260977  1
  In  In44  1  0.31954931  0.32435447  0.66040825  1
  In  In45  1  0.14822078  0.02691188  0.81829251  1
  In  In46  1  0.67495587  0.83130270  0.16501077  1
  In  In47  1  0.37196875  0.17393381  0.18377427  1
  In  In48  1  0.84548102  0.69196039  0.52461250  1
  In  In49  1  0.49768493  0.83734583  -0.01242661  1
  In  In50  1  0.51068123  0.66909012  0.16559057  1
  In  In51  1  0.16730769  0.33529959  0.16437783  1
  In  In52  1  0.84198115  0.35232122  0.50576893  1
  In  In53  1  0.15188521  -0.01498613  0.15127003  1
  In  In54  1  0.50237026  0.50831219  0.63791910  1
  In  In55  1  0.84266247  0.66892958  0.82457412  1
  In  In56  1  0.35519401  0.70332838  0.36623536  1
  In  In57  1  0.31713493  0.17565362  0.50826825  1
  In  In58  1  0.16660427  -0.00814438  0.52134140  1
  In  In59  1  0.40275677  0.64889678  0.78699373  1
  In  In60  1  0.66830304  0.16086844  0.85572479  1
  In  In61  1  0.65145804  0.18543713  0.48408112  1
  In  In62  1  0.48241566  -0.00872911  0.49797676  1
  In  In63  1  0.14958738  0.48572393  0.34606953  1
  In  In64  1  0.48437667  0.33495896  0.49055585  1
  In  In65  1  0.01617218  0.67073544  -0.02005344  1
  In  In66  1  0.02473087  0.18247933  0.51740892  1
  In  In67  1  0.64229535  0.65843317  0.33855643  1
  In  In68  1  0.62740348  0.14082887  0.19352299  1
  In  In69  1  0.82002124  0.84131245  0.31884275  1
  In  In70  1  -0.00934740  0.01965926  0.33870646  1
  In  In71  1  0.64154487  0.85008158  0.48329292  1
  Te  Te72  1  0.07786740  0.08128085  0.06028603  1
  Te  Te73  1  0.10472488  0.08965626  0.41402302  1
  Te  Te74  1  0.07591308  0.11661857  0.72413779  1
  Te  Te75  1  0.05870149  0.41875934  0.08987328  1
  Te  Te76  1  0.07925380  0.39810960  0.44013353  1
  Te  Te77  1  0.07258482  0.36681931  0.70894607  1
  Te  Te78  1  0.08137018  0.74416417  0.08934109  1
  Te  Te79  1  0.06881373  0.75677293  0.43189213  1
  Te  Te80  1  0.09705566  0.75260057  0.76328349  1
  Te  Te81  1  0.41341452  0.07341540  0.07859717  1
  Te  Te82  1  0.40548756  0.09581001  0.41589221  1
  Te  Te83  1  0.45385396  0.08107383  0.78504671  1
  Te  Te84  1  0.42918742  0.41863705  0.09409844  1
  Te  Te85  1  0.42632369  0.44895526  0.41644544  1
  Te  Te86  1  0.42401481  0.41503685  0.73018474  1
  Te  Te87  1  0.40727163  0.74984460  0.08540839  1
  Te  Te88  1  0.46211146  0.77620997  0.43327823  1
  Te  Te89  1  0.40086271  0.76702778  0.69968552  1
  Te  Te90  1  0.73309633  0.10250101  0.08230032  1
  Te  Te91  1  0.73573975  0.09044122  0.40021309  1
  Te  Te92  1  0.74966947  0.07592545  0.75761580  1
  Te  Te93  1  0.75504346  0.43143690  0.09581673  1
  Te  Te94  1  0.73668362  0.40661480  0.40897328  1
  Te  Te95  1  0.77225000  0.42650348  0.73793393  1
  Te  Te96  1  0.77214402  0.78473532  0.05760386  1
  Te  Te97  1  0.74579592  0.74112900  0.42110688  1
  Te  Te98  1  0.75939151  0.76252556  0.73915890  1
  Te  Te99  1  0.07628112  0.26005084  0.26251128  1
  Te  Te100  1  0.10690509  0.23829488  0.62831041  1
  Te  Te101  1  0.12319768  0.24847766  0.92132193  1
  Te  Te102  1  0.07802928  0.58614802  0.25470439  1
  Te  Te103  1  0.11792029  0.57727068  0.61411242  1
  Te  Te104  1  0.09569123  0.57505335  0.89281832  1
  Te  Te105  1  0.06125704  0.91559537  0.25018667  1
  Te  Te106  1  0.07273133  0.90814971  0.59749751  1
  Te  Te107  1  0.09258632  0.91875752  0.92175560  1
  Te  Te108  1  0.43545198  0.27328991  0.27093453  1
  Te  Te109  1  0.42689174  0.23924621  0.59249553  1
  Te  Te110  1  0.41303427  0.24583918  0.92513297  1
  Te  Te111  1  0.40930966  0.60560799  0.25783207  1
  Te  Te112  1  0.40924383  0.60433556  0.57587583  1
  Te  Te113  1  0.43745659  0.57983050  0.91235428  1
  Te  Te114  1  0.42450632  0.92680647  0.25342280  1
  Te  Te115  1  0.42595165  0.90965614  0.61048898  1
  Te  Te116  1  0.42037155  0.90762411  0.88398244  1
  Te  Te117  1  0.72394919  0.25446146  0.24603212  1
  Te  Te118  1  0.76630640  0.23413298  0.58575058  1
  Te  Te119  1  0.75885485  0.27221277  0.91432896  1
  Te  Te120  1  0.73797505  0.59965175  0.23492295  1
  Te  Te121  1  0.76080201  0.58231793  0.59054754  1
  Te  Te122  1  0.74383959  0.57984059  0.91492345  1
  Te  Te123  1  0.74531182  0.93814545  0.23765081  1
  Te  Te124  1  0.74484316  0.90979739  0.57790040  1
  Te  Te125  1  0.76141076  0.91397074  0.92017189  1
  Te  Te126  1  0.25208990  0.22875028  0.10022890  1
  Te  Te127  1  0.25403147  0.28175307  0.42562352  1
  Te  Te128  1  0.27071469  0.23673516  0.76902831  1
  Te  Te129  1  0.23263780  0.59443090  0.09255187  1
  Te  Te130  1  0.24296369  0.59262057  0.41126529  1
  Te  Te131  1  0.29024389  0.56124513  0.74928330  1
  Te  Te132  1  0.25829450  0.91509313  0.06745673  1
  Te  Te133  1  0.26309948  0.89805757  0.45024553  1
  Te  Te134  1  0.24973693  0.93095254  0.75683041  1
  Te  Te135  1  0.56465165  0.24263800  0.09659179  1
  Te  Te136  1  0.55645912  0.25054960  0.39030125  1
  Te  Te137  1  0.58054267  0.21994234  0.74372263  1
  Te  Te138  1  0.58147584  0.56785286  0.07855873  1
  Te  Te139  1  0.55728735  0.55831678  0.40761328  1
  Te  Te140  1  0.58717075  0.58951117  0.73816941  1
  Te  Te141  1  0.57086205  0.91923806  0.08994513  1
  Te  Te142  1  0.58373976  0.95358106  0.39179768  1
  Te  Te143  1  0.57712965  0.88433924  0.72747941  1
  Te  Te144  1  0.90961133  0.24926184  0.07824788  1
  Te  Te145  1  0.91787599  0.24542892  0.42625176  1
  Te  Te146  1  0.95443815  0.20908909  0.77716724  1
  Te  Te147  1  0.90662326  0.59693471  0.06165077  1
  Te  Te148  1  0.91656319  0.57728594  0.43736718  1
  Te  Te149  1  0.92413221  0.58015672  0.74299446  1
  Te  Te150  1  0.88399310  0.88471825  0.10444171  1
  Te  Te151  1  0.91197009  0.91590325  0.41631857  1
  Te  Te152  1  0.91039929  0.97555977  0.76969031  1
  Te  Te153  1  0.24244197  0.07009807  0.24099300  1
  Te  Te154  1  0.25010191  0.08393987  0.60690190  1
  Te  Te155  1  0.25093858  0.10529800  0.89380023  1
  Te  Te156  1  0.25476196  0.41580399  0.25718045  1
  Te  Te157  1  0.23209548  0.39356116  0.56167242  1
  Te  Te158  1  0.26348770  0.42144053  0.92138979  1
  Te  Te159  1  0.23928495  0.75476363  0.27128443  1
  Te  Te160  1  0.28166039  0.73341457  0.60379417  1
  Te  Te161  1  0.27993172  0.75872886  0.90092894  1
  Te  Te162  1  0.54306146  0.04955677  0.27182690  1
  Te  Te163  1  0.57770160  0.08607212  0.57261409  1
  Te  Te164  1  0.56668693  0.04695946  0.88778896  1
  Te  Te165  1  0.52009234  0.39942447  0.23046917  1
  Te  Te166  1  0.60290020  0.39778121  0.58729132  1
  Te  Te167  1  0.57936673  0.40294090  0.91708443  1
  Te  Te168  1  0.57336993  0.76844140  0.26093509  1
  Te  Te169  1  0.56485067  0.73627454  0.54417065  1
  Te  Te170  1  0.58500599  0.73636994  0.91587717  1
  Te  Te171  1  0.90285984  0.07934789  0.22985269  1
  Te  Te172  1  0.93825401  0.06818104  0.57254447  1
  Te  Te173  1  0.92049903  0.04733542  0.90761402  1
  Te  Te174  1  0.91597455  0.41996952  0.27768726  1
  Te  Te175  1  0.94110263  0.39453666  0.60832739  1
  Te  Te176  1  0.94715732  0.42159481  0.88724441  1
  Te  Te177  1  0.90521608  0.75211440  0.23671847  1
  Te  Te178  1  0.92884902  0.78267009  0.60440077  1
  Te  Te179  1  0.92618761  0.76763924  0.90354839  1
