# generated using pymatgen
data_In2Te3
_symmetry_space_group_name_H-M   'P 1'
_cell_length_a   18.98539709
_cell_length_b   19.00765193
_cell_length_c   18.99599191
_cell_angle_alpha   90.08780405
_cell_angle_beta   89.89134034
_cell_angle_gamma   89.92408049
_symmetry_Int_Tables_number   1
_chemical_formula_structural   In2Te3
_chemical_formula_sum   'In72 Te108'
_cell_volume   6855.01575963
_cell_formula_units_Z   36
loop_
 _symmetry_equiv_pos_site_id
 _symmetry_equiv_pos_as_xyz
  1  'x, y, z'
loop_
 _atom_site_type_symbol
 _atom_site_label
 _atom_site_symmetry_multiplicity
 _atom_site_fract_x
 _atom_site_fract_y
 _atom_site_fract_z
 _atom_site_occupancy
  In  In0  1  0.52666359  0.14354302  0.68830588  1
  In  In1  1  0.00365290  0.48776589  0.84055338  1
  In  In2  1  0.65389229  0.48700269  0.80148818  1
  In  In3  1  0.00716302  0.30732034  0.30231405  1
  In  In4  1  0.32328227  0.68421494  0.70953292  1
  In  In5  1  0.33683200  0.19505455  0.47967001  1
  In  In6  1  0.67015233  0.82647917  0.82786743  1
  In  In7  1  0.83319240  0.68003503  0.84962945  1
  In  In8  1  0.86123683  0.82553637  0.32539943  1
  In  In9  1  0.67769632  0.80055883  0.18395667  1
  In  In10  1  0.67914383  0.64868328  0.00154660  1
  In  In11  1  0.15337123  0.85601792  0.70722572  1
  In  In12  1  0.67108229  0.31785862  0.31244274  1
  In  In13  1  0.69668805  0.85347846  0.51402336  1
  In  In14  1  0.15284347  0.48632006  0.62821362  1
  In  In15  1  0.00429800  0.46807016  0.46705364  1
  In  In16  1  0.50863051  0.15583773  0.33695651  1
  In  In17  1  0.66641605  0.17479331  0.85191537  1
  In  In18  1  0.83423765  0.64981554  0.17135109  1
  In  In19  1  0.33164871  0.02235068  0.32841065  1
  In  In20  1  0.31998166  -0.00277566  0.01585129  1
  In  In21  1  0.32965350  0.34664591  0.30765980  1
  In  In22  1  0.01589720  0.68564268  0.68168224  1
  In  In23  1  -0.00239998  0.84254538  0.49658189  1
  In  In24  1  0.64334307  0.47846593  0.45317854  1
  In  In25  1  0.33520201  0.66463109  0.33844022  1
  In  In26  1  0.47960030  0.31974452  0.85626550  1
  In  In27  1  0.71030989  0.00595800  0.37133443  1
  In  In28  1  0.51958388  0.83068067  0.67705911  1
  In  In29  1  0.83019007  0.50947696  0.64710286  1
  In  In30  1  0.17988719  0.64996554  0.15299049  1
  In  In31  1  -0.03963198  0.29967581  0.66784112  1
  In  In32  1  0.14939161  0.31577976  0.46416632  1
  In  In33  1  0.15573188  0.86953612  0.32453777  1
  In  In34  1  0.00389084  0.16043974  0.85147162  1
  In  In35  1  0.81994576  0.49441293  0.32287448  1
  In  In36  1  0.17853942  0.49866161  0.00995813  1
  In  In37  1  0.32151903  0.17365782  0.16301749  1
  In  In38  1  0.31222932  0.56742121  0.85148128  1
  In  In39  1  -0.00246953  0.51111312  0.16340528  1
  In  In40  1  0.65437870  0.16961205  0.16214629  1
  In  In41  1  0.66126353  0.64183824  0.66563223  1
  In  In42  1  0.65927956  -0.00723146  -0.04091854  1
  In  In43  1  -0.00858452  0.01904839  0.28963727  1
  In  In44  1  0.70619689  0.28149953  0.64834466  1
  In  In45  1  0.31368871  0.86041215  0.16291344  1
  In  In46  1  0.30850670  0.33526969  0.67628678  1
  In  In47  1  0.18093623  0.02421334  0.85833933  1
  In  In48  1  0.84874846  0.67240632  0.49180834  1
  In  In49  1  0.02284254  0.01838301  0.03276122  1
  In  In50  1  0.00429423  0.34957055  0.01670923  1
  In  In51  1  -0.00197257  0.66636224  0.02150672  1
  In  In52  1  0.17013609  0.66407030  0.48506227  1
  In  In53  1  0.50319753  -0.02363750  0.16986196  1
  In  In54  1  -0.00505108  0.14750050  0.47148765  1
  In  In55  1  0.50208440  0.67674999  0.14606730  1
  In  In56  1  0.14447875  0.33469394  0.84740873  1
  In  In57  1  0.69084006  0.34784120  0.06652510  1
  In  In58  1  0.47985169  0.63741437  0.50318933  1
  In  In59  1  0.84041205  0.18981004  -0.00035312  1
  In  In60  1  0.14983909  0.16938934  0.69245874  1
  In  In61  1  0.83798817  0.00923293  0.14746668  1
  In  In62  1  0.16016767  0.01323551  0.49564444  1
  In  In63  1  -0.08586648  -0.02641544  0.68569812  1
  In  In64  1  0.48906643  0.50630908  0.66651556  1
  In  In65  1  0.69791579  0.02391229  0.67243411  1
  In  In66  1  0.33739529  0.02424379  0.67440959  1
  In  In67  1  0.49125866  0.48547004  0.29557648  1
  In  In68  1  0.49890292  0.32738351  0.49397944  1
  In  In69  1  0.33217943  0.83189632  0.54882185  1
  In  In70  1  0.48272486  0.47423096  0.03086271  1
  In  In71  1  0.49841150  0.84676488  -0.00606390  1
  Te  Te72  1  0.11393287  0.09065849  0.12641198  1
  Te  Te73  1  0.09850291  0.08617984  0.38007008  1
  Te  Te74  1  0.06732774  0.06164918  0.75475182  1
  Te  Te75  1  0.10473353  0.41572083  0.11198739  1
  Te  Te76  1  0.10012384  0.41670313  0.36287789  1
  Te  Te77  1  0.07121399  0.39772685  0.72428533  1
  Te  Te78  1  0.11100975  0.74860777  0.06796656  1
  Te  Te79  1  0.08421795  0.75976268  0.40510181  1
  Te  Te80  1  0.08060776  0.75943653  0.78867468  1
  Te  Te81  1  0.42559618  0.07965599  0.09771993  1
  Te  Te82  1  0.42336599  0.07853705  0.43583599  1
  Te  Te83  1  0.41066817  0.10867687  0.76845631  1
  Te  Te84  1  0.36711298  0.39744883  0.09778767  1
  Te  Te85  1  0.41522523  0.42125204  0.41175606  1
  Te  Te86  1  0.40916039  0.41504239  0.75693792  1
  Te  Te87  1  0.40080060  0.76874970  0.07800873  1
  Te  Te88  1  0.40628321  0.75481489  0.44138956  1
  Te  Te89  1  0.42640306  0.77039225  0.77525509  1
  Te  Te90  1  0.73572246  0.08766233  0.05890685  1
  Te  Te91  1  0.76633557  0.11993915  0.43917659  1
  Te  Te92  1  0.77141364  0.10286105  0.77559132  1
  Te  Te93  1  0.79507773  0.44020142  0.10438807  1
  Te  Te94  1  0.75799531  0.38977467  0.41572413  1
  Te  Te95  1  0.75755733  0.40429803  0.72799123  1
  Te  Te96  1  0.76716030  0.74794125  0.07409498  1
  Te  Te97  1  0.75305777  0.75676987  0.41159354  1
  Te  Te98  1  0.75254698  0.73976365  0.73344478  1
  Te  Te99  1  0.06716045  0.21983922  0.19959458  1
  Te  Te100  1  0.07744538  0.24236511  0.57697625  1
  Te  Te101  1  0.08930055  0.23852820  0.94770221  1
  Te  Te102  1  0.07059213  0.60980595  0.24457944  1
  Te  Te103  1  0.05524132  0.58346391  0.56463466  1
  Te  Te104  1  0.08329066  0.58148454  0.92334826  1
  Te  Te105  1  0.05713926  0.90493021  0.22047586  1
  Te  Te106  1  0.08056333  0.92744690  0.59043335  1
  Te  Te107  1  0.09657969  0.93105675  0.93616825  1
  Te  Te108  1  0.42769839  0.24498366  0.24823115  1
  Te  Te109  1  0.41561355  0.25290055  0.59669737  1
  Te  Te110  1  0.39401849  0.28975611  0.97259739  1
  Te  Te111  1  0.40522761  0.58866715  0.22753419  1
  Te  Te112  1  0.37913972  0.58337155  0.59940834  1
  Te  Te113  1  0.41747256  0.58538036  0.95686616  1
  Te  Te114  1  0.41317651  0.90942660  0.27096883  1
  Te  Te115  1  0.43258648  0.93103623  0.60018135  1
  Te  Te116  1  0.42083505  0.94487998  0.92092931  1
  Te  Te117  1  0.76615558  0.23368125  0.23506697  1
  Te  Te118  1  0.79887383  0.19763802  0.56933156  1
  Te  Te119  1  0.73712465  0.28030497  0.93609501  1
  Te  Te120  1  0.73215805  0.59010129  0.25695977  1
  Te  Te121  1  0.73673070  0.57527048  0.54559756  1
  Te  Te122  1  0.74756183  0.56390434  0.89587557  1
  Te  Te123  1  0.76121651  0.91280788  0.24798915  1
  Te  Te124  1  0.79235422  0.93034418  0.59725721  1
  Te  Te125  1  0.77126316  0.91195881  0.89899922  1
  Te  Te126  1  0.26915293  0.27305746  0.06602725  1
  Te  Te127  1  0.24135533  0.23745333  0.37195591  1
  Te  Te128  1  0.24881976  0.24175648  0.77932930  1
  Te  Te129  1  0.27891536  0.60020425  0.05286762  1
  Te  Te130  1  0.25090482  0.56903348  0.41081563  1
  Te  Te131  1  0.21361689  0.57365639  0.73181508  1
  Te  Te132  1  0.21627701  0.89605900  0.05589144  1
  Te  Te133  1  0.25931539  0.91633407  0.43414014  1
  Te  Te134  1  0.26794192  0.92965145  0.76976915  1
  Te  Te135  1  0.57125990  0.26867657  0.09125460  1
  Te  Te136  1  0.59922508  0.23955192  0.42419474  1
  Te  Te137  1  0.58674947  0.27016680  0.74792817  1
  Te  Te138  1  0.59152785  0.56640739  0.09177627  1
  Te  Te139  1  0.56559874  0.58795015  0.38824804  1
  Te  Te140  1  0.55646733  0.59847494  0.76542682  1
  Te  Te141  1  0.61043125  0.90828456  0.08455231  1
  Te  Te142  1  0.60370444  0.92270294  0.42674850  1
  Te  Te143  1  0.59801979  0.93547555  0.75213926  1
  Te  Te144  1  0.93867147  0.24158770  0.09793595  1
  Te  Te145  1  0.92184857  0.25715966  0.40981738  1
  Te  Te146  1  0.89275976  0.22198772  0.77254359  1
  Te  Te147  1  0.89351907  0.55305110  0.05800544  1
  Te  Te148  1  0.92210656  0.57732831  0.40030253  1
  Te  Te149  1  0.91691775  0.58237811  0.74754823  1
  Te  Te150  1  0.93800475  0.91261062  0.09822791  1
  Te  Te151  1  0.92537204  0.93669699  0.40534721  1
  Te  Te152  1  0.89242962  0.89011988  0.80180059  1
  Te  Te153  1  0.23746645  0.06026516  0.22010888  1
  Te  Te154  1  0.24484581  0.11001001  0.57787593  1
  Te  Te155  1  0.24809194  0.11073602  0.95494727  1
  Te  Te156  1  0.27072026  0.43487807  0.20816695  1
  Te  Te157  1  0.24667041  0.39579381  0.55186277  1
  Te  Te158  1  0.24881312  0.43044256  0.89461007  1
  Te  Te159  1  0.24435159  0.76013339  0.25864058  1
  Te  Te160  1  0.21244083  0.75496358  0.59963868  1
  Te  Te161  1  0.28847499  0.71459690  0.85381297  1
  Te  Te162  1  0.59944926  0.06213196  0.25897636  1
  Te  Te163  1  0.60386388  0.08789464  0.57927685  1
  Te  Te164  1  0.56516340  0.09867089  0.92456469  1
  Te  Te165  1  0.58842895  0.40083540  0.22175370  1
  Te  Te166  1  0.58148084  0.42225584  0.58023997  1
  Te  Te167  1  0.57175884  0.42602362  0.91278174  1
  Te  Te168  1  0.55880244  0.75704459  0.25483135  1
  Te  Te169  1  0.57862247  0.73325125  0.57621355  1
  Te  Te170  1  0.58914098  0.74438654  0.92530007  1
  Te  Te171  1  0.88010991  0.10819057  0.24907456  1
  Te  Te172  1  0.91985766  0.08720984  0.59019078  1
  Te  Te173  1  0.91581815  0.07359113  0.93791284  1
  Te  Te174  1  0.90695654  0.40942317  0.23263747  1
  Te  Te175  1  0.91075327  0.40617832  0.57034398  1
  Te  Te176  1  0.91862671  0.38907299  0.90422465  1
  Te  Te177  1  0.93657999  0.72580285  0.24602262  1
  Te  Te178  1  0.91626165  0.75997637  0.59455919  1
  Te  Te179  1  0.92783371  0.75896699  0.92802725  1
