# generated using pymatgen
data_In2Te3
_symmetry_space_group_name_H-M   'P 1'
_cell_length_a   18.93043394
_cell_length_b   18.93926989
_cell_length_c   18.93469906
_cell_angle_alpha   89.95494331
_cell_angle_beta   89.97640947
_cell_angle_gamma   89.97323732
_symmetry_Int_Tables_number   1
_chemical_formula_structural   In2Te3
_chemical_formula_sum   'In72 Te108'
_cell_volume   6788.62768085
_cell_formula_units_Z   36
loop_
 _symmetry_equiv_pos_site_id
 _symmetry_equiv_pos_as_xyz
  1  'x, y, z'
loop_
 _atom_site_type_symbol
 _atom_site_label
 _atom_site_symmetry_multiplicity
 _atom_site_fract_x
 _atom_site_fract_y
 _atom_site_fract_z
 _atom_site_occupancy
  In  In0  1  0.52524110  0.68603938  0.50965348  1
  In  In1  1  -0.00094457  0.66584805  0.66929402  1
  In  In2  1  0.35784986  0.51057952  0.17681797  1
  In  In3  1  0.68117967  0.16764257  0.17241300  1
  In  In4  1  0.35181884  0.83200209  0.85276244  1
  In  In5  1  0.14189672  0.01374600  0.47849646  1
  In  In6  1  0.34556147  0.15832002  0.82948212  1
  In  In7  1  0.32467494  0.34471428  0.66435485  1
  In  In8  1  0.33629006  -0.00708280  0.00365462  1
  In  In9  1  0.83284685  0.14833733  0.65693156  1
  In  In10  1  0.34295401  0.81369090  0.51348103  1
  In  In11  1  0.17986252  0.68867609  0.49309410  1
  In  In12  1  -0.03385523  0.81122689  0.85507196  1
  In  In13  1  0.17720528  0.00945672  0.17052840  1
  In  In14  1  0.53086259  0.84054074  0.02449974  1
  In  In15  1  0.49223936  0.67089522  0.82237886  1
  In  In16  1  0.66014408  -0.01542708  0.66614997  1
  In  In17  1  0.16640537  0.65527245  0.82267786  1
  In  In18  1  0.50094923  0.16818827  0.33613493  1
  In  In19  1  -0.02230667  0.15198976  0.17196791  1
  In  In20  1  0.00253504  -0.00596040  0.64075876  1
  In  In21  1  0.66389272  0.33858812  0.31343312  1
  In  In22  1  0.53571318  0.68622839  0.16027060  1
  In  In23  1  0.15317015  0.67246831  0.17144122  1
  In  In24  1  0.66966337  0.84374434  0.51033709  1
  In  In25  1  0.18730412  0.34048766  0.15982450  1
  In  In26  1  0.17060442  0.84527719  0.32229420  1
  In  In27  1  0.51989308  0.16789690  0.68483034  1
  In  In28  1  0.81653756  0.68180237  0.14486301  1
  In  In29  1  0.15468685  0.33418918  0.81979294  1
  In  In30  1  0.83686310  0.51853387  0.32313278  1
  In  In31  1  0.50796130  0.49128587  0.67823064  1
  In  In32  1  0.82025418  0.64948712  0.53202994  1
  In  In33  1  0.82730458  0.84758917  0.33104231  1
  In  In34  1  -0.00433810  0.85112985  0.47389811  1
  In  In35  1  0.33455270  0.83608395  0.15718289  1
  In  In36  1  0.17417323  0.50209929  0.67153029  1
  In  In37  1  0.00455734  0.00490582  0.00899124  1
  In  In38  1  0.34847643  -0.00173093  0.66676829  1
  In  In39  1  0.00680519  0.83343038  0.16588086  1
  In  In40  1  0.81097099  0.31851478  0.16005470  1
  In  In41  1  0.34631387  0.50645127  0.49922011  1
  In  In42  1  0.15850898  0.49650074  -0.02781737  1
  In  In43  1  0.69224594  0.01221488  0.34924455  1
  In  In44  1  0.29695895  0.31716313  0.38246930  1
  In  In45  1  0.32574372  0.64977019  -0.02139194  1
  In  In46  1  0.68419962  0.81443281  0.83331688  1
  In  In47  1  -0.02558840  0.32943627  0.32232427  1
  In  In48  1  -0.00422179  0.16944386  0.83164728  1
  In  In49  1  0.15785793  0.51666470  0.34346839  1
  In  In50  1  0.81363189  -0.00067784  0.16092776  1
  In  In51  1  0.27280047  0.18951336  0.50950385  1
  In  In52  1  0.34878571  -0.00140840  0.32082596  1
  In  In53  1  0.51333471  0.13640882  -0.00675280  1
  In  In54  1  -0.01024960  0.51026990  0.81496933  1
  In  In55  1  0.47828310  0.32736149  0.16277662  1
  In  In56  1  0.83869537  0.32820649  0.50508990  1
  In  In57  1  0.66552554  0.50454582  0.85807724  1
  In  In58  1  0.84509908  0.50311973  0.00135079  1
  In  In59  1  0.52052525  0.52258889  0.35394600  1
  In  In60  1  0.51012279  0.49668710  0.01640498  1
  In  In61  1  0.80776794  -0.01287823  0.84421899  1
  In  In62  1  0.50465018  0.32223372  0.52600972  1
  In  In63  1  0.66120319  0.34298736  0.67856285  1
  In  In64  1  0.81432494  0.84141314  0.66893443  1
  In  In65  1  0.00286107  0.33559022  0.01204962  1
  In  In66  1  -0.02814695  0.49632332  0.50500920  1
  In  In67  1  0.50546818  -0.00048896  0.49544742  1
  In  In68  1  0.15544197  0.00209467  0.82383268  1
  In  In69  1  0.32191849  0.16450464  0.14765440  1
  In  In70  1  0.80406188  0.29575279  0.85057687  1
  In  In71  1  0.69615481  0.50112933  0.15708900  1
  Te  Te72  1  0.09379199  0.10111198  0.08350955  1
  Te  Te73  1  0.06933958  0.11371061  0.40113253  1
  Te  Te74  1  0.07986223  0.09463288  0.73106260  1
  Te  Te75  1  0.08722668  0.43380427  0.09026372  1
  Te  Te76  1  0.06288157  0.42016334  0.41177453  1
  Te  Te77  1  0.06474040  0.41198464  0.72535109  1
  Te  Te78  1  0.08249527  0.75140616  0.07113575  1
  Te  Te79  1  0.07938324  0.74980522  0.39687424  1
  Te  Te80  1  0.07531919  0.76071679  0.75834785  1
  Te  Te81  1  0.42480017  0.06507606  0.10308918  1
  Te  Te82  1  0.40601701  0.09425397  0.42980141  1
  Te  Te83  1  0.44505751  0.06242579  0.76421291  1
  Te  Te84  1  0.39385920  0.41020847  0.06860551  1
  Te  Te85  1  0.43148165  0.40888949  0.41545551  1
  Te  Te86  1  0.43429032  0.38783508  0.75409675  1
  Te  Te87  1  0.41449004  0.73688263  0.06770011  1
  Te  Te88  1  0.42978375  0.74848904  0.41636461  1
  Te  Te89  1  0.39300234  0.74407488  0.74227113  1
  Te  Te90  1  0.75243846  0.09517669  0.06356879  1
  Te  Te91  1  0.75353531  0.06843397  0.46713039  1
  Te  Te92  1  0.73286409  0.08507426  0.75462111  1
  Te  Te93  1  0.74014023  0.40028055  0.05346111  1
  Te  Te94  1  0.76005769  0.41492731  0.40231232  1
  Te  Te95  1  0.75595397  0.41670168  0.76982900  1
  Te  Te96  1  0.75717568  0.76369692  0.03617189  1
  Te  Te97  1  0.76357807  0.75529585  0.43223771  1
  Te  Te98  1  0.77280048  0.72637621  0.75020255  1
  Te  Te99  1  0.07053544  0.26313477  0.22276287  1
  Te  Te100  1  0.14916487  0.24793227  0.55945529  1
  Te  Te101  1  0.08876463  0.24580751  0.92421103  1
  Te  Te102  1  0.06702335  0.58678195  0.25378069  1
  Te  Te103  1  0.08812661  0.58681962  0.57267690  1
  Te  Te104  1  0.06016918  0.59726332  0.91766280  1
  Te  Te105  1  0.07314646  0.93909119  0.25444777  1
  Te  Te106  1  0.09927929  0.89839016  0.57419258  1
  Te  Te107  1  0.07167367  0.91096785  0.91159506  1
  Te  Te108  1  0.39574613  0.25135300  0.26450270  1
  Te  Te109  1  0.40641539  0.22807124  0.59279367  1
  Te  Te110  1  0.41259048  0.22923116  0.93897987  1
  Te  Te111  1  0.44138369  0.60818818  0.25619542  1
  Te  Te112  1  0.43241099  0.58813077  0.58930154  1
  Te  Te113  1  0.42599528  0.56265436  0.90735060  1
  Te  Te114  1  0.42933077  0.90305651  0.24604660  1
  Te  Te115  1  0.43916740  0.90350708  0.59141590  1
  Te  Te116  1  0.44759103  0.92391097  0.92706269  1
  Te  Te117  1  0.76815770  0.23313049  0.27910242  1
  Te  Te118  1  0.73777749  0.24865160  0.58893953  1
  Te  Te119  1  0.72673979  0.19640654  0.93076502  1
  Te  Te120  1  0.73428450  0.60754174  0.25611640  1
  Te  Te121  1  0.70765800  0.56278186  0.56068872  1
  Te  Te122  1  0.76556411  0.59850158  0.91985255  1
  Te  Te123  1  0.72716024  0.87819617  0.21299223  1
  Te  Te124  1  0.77783163  0.94924244  0.56196545  1
  Te  Te125  1  0.73892194  0.90044895  0.94358804  1
  Te  Te126  1  0.25510123  0.25871812  0.05780822  1
  Te  Te127  1  0.16258425  0.23628925  0.40579447  1
  Te  Te128  1  0.24813065  0.24070171  0.74483065  1
  Te  Te129  1  0.25084112  0.57288928  0.08757770  1
  Te  Te130  1  0.26876972  0.59896299  0.40724634  1
  Te  Te131  1  0.26875712  0.56622100  0.76288769  1
  Te  Te132  1  0.23061184  0.90743442  0.07302260  1
  Te  Te133  1  0.26018844  0.92032667  0.42024434  1
  Te  Te134  1  0.25996936  0.91478818  0.75799551  1
  Te  Te135  1  0.57771496  0.24374625  0.08956232  1
  Te  Te136  1  0.59280917  0.25377394  0.42016216  1
  Te  Te137  1  0.56799276  0.27570317  0.77303053  1
  Te  Te138  1  0.61319569  0.59395077  0.06964362  1
  Te  Te139  1  0.62141739  0.60092887  0.42883272  1
  Te  Te140  1  0.59807062  0.58884971  0.74995365  1
  Te  Te141  1  0.60325453  0.91688094  0.12607522  1
  Te  Te142  1  0.58844286  0.91413216  0.40246569  1
  Te  Te143  1  0.58623541  0.88576781  0.74561604  1
  Te  Te144  1  0.90291215  0.23768632  0.07011133  1
  Te  Te145  1  0.93677203  0.23956940  0.43472783  1
  Te  Te146  1  0.90386626  0.25191160  0.74464854  1
  Te  Te147  1  0.91526467  0.57940728  0.10488402  1
  Te  Te148  1  0.91436728  0.60657184  0.41973750  1
  Te  Te149  1  0.89196503  0.59816608  0.74497553  1
  Te  Te150  1  0.90915072  0.91235762  0.07945307  1
  Te  Te151  1  0.92071229  0.94606863  0.39010431  1
  Te  Te152  1  0.91849809  0.92496613  0.75088296  1
  Te  Te153  1  0.24971016  0.10036488  0.26631902  1
  Te  Te154  1  0.23607371  0.06390296  0.59080069  1
  Te  Te155  1  0.24683922  0.07960417  0.91762797  1
  Te  Te156  1  0.26256400  0.42332669  0.26668528  1
  Te  Te157  1  0.23900263  0.41828372  0.56054413  1
  Te  Te158  1  0.25085351  0.42755433  0.88251918  1
  Te  Te159  1  0.25993991  0.74474898  0.25311847  1
  Te  Te160  1  0.25818758  0.73672676  0.60686041  1
  Te  Te161  1  0.23659494  0.75397634  0.91713044  1
  Te  Te162  1  0.59050089  0.07686023  0.25594382  1
  Te  Te163  1  0.59391488  0.09117820  0.57684298  1
  Te  Te164  1  0.62019136  0.08866768  0.90455258  1
  Te  Te165  1  0.57321899  0.43159599  0.23204050  1
  Te  Te166  1  0.60047551  0.43282680  0.56463877  1
  Te  Te167  1  0.58976298  0.40368064  0.93469460  1
  Te  Te168  1  0.60500340  0.78502327  0.24251777  1
  Te  Te169  1  0.60003183  0.76367922  0.61215807  1
  Te  Te170  1  0.58189450  0.74052101  0.92148800  1
  Te  Te171  1  0.89038332  0.07471351  0.26296743  1
  Te  Te172  1  0.94434897  0.10820506  0.56750323  1
  Te  Te173  1  0.90992893  0.07812634  0.91536981  1
  Te  Te174  1  0.90224221  0.42163201  0.22465660  1
  Te  Te175  1  0.88962521  0.42645330  0.60238264  1
  Te  Te176  1  0.91976104  0.40114317  0.90288005  1
  Te  Te177  1  0.91052456  0.75154421  0.24821306  1
  Te  Te178  1  0.92097292  0.76606229  0.58018662  1
  Te  Te179  1  0.87081194  0.73080381  0.93596910  1
