# generated using pymatgen
data_In2Te3
_symmetry_space_group_name_H-M   'P 1'
_cell_length_a   18.79379788
_cell_length_b   18.79010756
_cell_length_c   18.78322467
_cell_angle_alpha   89.99399840
_cell_angle_beta   90.05342686
_cell_angle_gamma   90.00956431
_symmetry_Int_Tables_number   1
_chemical_formula_structural   In2Te3
_chemical_formula_sum   'In72 Te108'
_cell_volume   6633.05768503
_cell_formula_units_Z   36
loop_
 _symmetry_equiv_pos_site_id
 _symmetry_equiv_pos_as_xyz
  1  'x, y, z'
loop_
 _atom_site_type_symbol
 _atom_site_label
 _atom_site_symmetry_multiplicity
 _atom_site_fract_x
 _atom_site_fract_y
 _atom_site_fract_z
 _atom_site_occupancy
  In  In0  1  0.50375450  0.83333243  0.33357718  1
  In  In1  1  0.82232190  0.18117185  0.65185467  1
  In  In2  1  0.35485849  0.50286829  0.17540044  1
  In  In3  1  0.65457192  -0.01818998  0.33722715  1
  In  In4  1  0.80577846  0.16532183  0.01140577  1
  In  In5  1  0.32560455  0.51789341  0.84016048  1
  In  In6  1  0.17071681  0.18456595  0.02487744  1
  In  In7  1  0.51434335  0.53266657  0.34780287  1
  In  In8  1  0.16618558  0.01332805  0.83282824  1
  In  In9  1  0.16084513  0.84550981  0.66839888  1
  In  In10  1  0.00339426  0.66511030  0.34264875  1
  In  In11  1  0.50911836  0.82482482  0.65791590  1
  In  In12  1  0.15830128  0.32433906  0.14204834  1
  In  In13  1  -0.00339738  0.66695109  0.00540814  1
  In  In14  1  0.16673395  0.14259832  0.31773244  1
  In  In15  1  0.65848550  0.31941315  0.66100827  1
  In  In16  1  0.16996698  0.52831499  0.33129256  1
  In  In17  1  0.83183513  0.00206852  0.16230836  1
  In  In18  1  0.34578230  0.65033792  0.65645171  1
  In  In19  1  0.66510410  0.33982032  0.00752147  1
  In  In20  1  0.67135879  0.51096866  0.16920224  1
  In  In21  1  0.17093807  0.82953961  0.05515920  1
  In  In22  1  0.00120932  0.35526211  -0.01852066  1
  In  In23  1  0.35849714  0.00261509  -0.00033915  1
  In  In24  1  0.49913615  0.49512228  0.64948994  1
  In  In25  1  0.18142950  0.51580602  -0.00062461  1
  In  In26  1  0.82752162  0.32339306  0.85413887  1
  In  In27  1  0.82150384  0.64234544  0.83757991  1
  In  In28  1  -0.01001163  0.16496509  0.16644127  1
  In  In29  1  0.50537474  0.31873174  0.48488257  1
  In  In30  1  0.35193666  0.69208917  0.03731763  1
  In  In31  1  0.51863675  0.66622683  0.18703280  1
  In  In32  1  0.49429578  0.34894462  0.17532043  1
  In  In33  1  0.14601461  0.64812581  0.50746129  1
  In  In34  1  -0.00202563  0.84146372  0.81436345  1
  In  In35  1  0.66885680  0.68064666  0.65028734  1
  In  In36  1  -0.03803388  0.33231919  0.36651836  1
  In  In37  1  0.66891096  0.84392147  0.87029863  1
  In  In38  1  0.33697404  0.86208011  0.85958950  1
  In  In39  1  0.18149625  0.67878778  0.81282553  1
  In  In40  1  0.50907835  0.69210899  0.85122770  1
  In  In41  1  0.81244507  0.84351771  0.33754569  1
  In  In42  1  0.16326625  0.34945356  0.49851687  1
  In  In43  1  0.17850890  -0.01220156  0.49308282  1
  In  In44  1  0.17379126  -0.00485199  0.18352890  1
  In  In45  1  -0.00522303  0.49302459  0.80276984  1
  In  In46  1  0.35175335  0.84050369  0.49574088  1
  In  In47  1  0.81192451  -0.02779043  0.82151933  1
  In  In48  1  0.83379964  0.82420835  0.03235877  1
  In  In49  1  0.66531199  -0.00166117  0.65617236  1
  In  In50  1  0.82423139  -0.00202926  0.51110535  1
  In  In51  1  0.00385489  -0.00582360  0.33314614  1
  In  In52  1  0.51486786  0.32096033  0.82115031  1
  In  In53  1  0.36065058  0.15883330  0.49219409  1
  In  In54  1  0.82370494  0.67797708  0.48866693  1
  In  In55  1  0.30581180  0.14604683  0.16590276  1
  In  In56  1  0.51469427  0.15605524  0.00247617  1
  In  In57  1  0.66310513  0.16688629  0.50520544  1
  In  In58  1  0.34178559  0.33564556  0.33508368  1
  In  In59  1  0.82494124  0.66911650  0.16986979  1
  In  In60  1  -0.00361653  0.15933802  0.80565659  1
  In  In61  1  0.15326162  0.35353672  0.80925727  1
  In  In62  1  0.85802814  0.46979450  0.63528715  1
  In  In63  1  0.38132707  0.12967754  0.81157075  1
  In  In64  1  0.16172816  0.19092824  0.64382952  1
  In  In65  1  0.30961713  0.33161789  0.65603119  1
  In  In66  1  0.83999111  0.83027440  0.64606559  1
  In  In67  1  -0.02457975  -0.02005428  -0.01549041  1
  In  In68  1  0.82567954  0.48446816  0.35505994  1
  In  In69  1  0.67368789  0.50734221  0.84280772  1
  In  In70  1  0.80185161  0.32324975  0.20855847  1
  In  In71  1  0.51160700  0.13716582  0.34090904  1
  Te  Te72  1  0.08135488  0.07004499  0.07976888  1
  Te  Te73  1  0.07628232  0.09088028  0.42667954  1
  Te  Te74  1  0.08662011  0.07529959  0.71872662  1
  Te  Te75  1  0.07680333  0.44024287  0.08295246  1
  Te  Te76  1  0.07499667  0.42913600  0.40380433  1
  Te  Te77  1  0.08355367  0.42702064  0.69787123  1
  Te  Te78  1  0.07125434  0.73285765  0.11721591  1
  Te  Te79  1  0.08999085  0.75580389  0.42221359  1
  Te  Te80  1  0.06790405  0.73675941  0.72934243  1
  Te  Te81  1  0.43187006  0.08034064  0.10868040  1
  Te  Te82  1  0.42573690  0.04409243  0.42048927  1
  Te  Te83  1  0.44166133  0.03892501  0.71388521  1
  Te  Te84  1  0.42182866  0.42494882  0.06995708  1
  Te  Te85  1  0.41887654  0.43036350  0.42227210  1
  Te  Te86  1  0.41023727  0.42131104  0.75171955  1
  Te  Te87  1  0.45516165  0.77935216  0.10495316  1
  Te  Te88  1  0.39927633  0.74235416  0.39359280  1
  Te  Te89  1  0.40275849  0.75415720  0.75813421  1
  Te  Te90  1  0.72857086  0.10173329  0.11937273  1
  Te  Te91  1  0.74784202  0.08120101  0.40921049  1
  Te  Te92  1  0.74603340  0.08898581  0.75012216  1
  Te  Te93  1  0.76521192  0.41657255  0.09207158  1
  Te  Te94  1  0.73634839  0.41304221  0.44771377  1
  Te  Te95  1  0.74771575  0.41321789  0.74430980  1
  Te  Te96  1  0.72229643  0.74907261  0.09422965  1
  Te  Te97  1  0.71855940  0.74696684  0.40410900  1
  Te  Te98  1  0.74993791  0.75879692  0.75585323  1
  Te  Te99  1  0.07797432  0.25461724  0.25446581  1
  Te  Te100  1  0.05545081  0.26620958  0.56770139  1
  Te  Te101  1  0.08030598  0.24461598  0.90955394  1
  Te  Te102  1  0.07304959  0.58748676  0.23611949  1
  Te  Te103  1  0.09030189  0.55499694  0.60551977  1
  Te  Te104  1  0.08390490  0.58294828  0.89830377  1
  Te  Te105  1  0.10528676  0.89934144  0.27487638  1
  Te  Te106  1  0.07550955  0.91474868  0.57098692  1
  Te  Te107  1  0.09601269  0.90435009  0.91581668  1
  Te  Te108  1  0.41679539  0.23279109  0.25371600  1
  Te  Te109  1  0.42479252  0.25036750  0.59723978  1
  Te  Te110  1  0.42211243  0.23992495  0.91181957  1
  Te  Te111  1  0.40202056  0.61027556  0.27251828  1
  Te  Te112  1  0.44098747  0.59641849  0.55414853  1
  Te  Te113  1  0.41629467  0.59835481  0.93166276  1
  Te  Te114  1  0.43416559  0.89028073  0.21464667  1
  Te  Te115  1  0.41469078  0.92919622  0.60317350  1
  Te  Te116  1  0.46039367  0.91363904  0.93064199  1
  Te  Te117  1  0.72971278  0.22771443  0.28877219  1
  Te  Te118  1  0.76881916  0.28297107  0.53303062  1
  Te  Te119  1  0.71624697  0.23548128  0.90726168  1
  Te  Te120  1  0.74631792  0.58830364  0.27635127  1
  Te  Te121  1  0.75508329  0.57611548  0.58355362  1
  Te  Te122  1  0.73255865  0.59631740  0.94550470  1
  Te  Te123  1  0.73069460  0.90610224  0.22462470  1
  Te  Te124  1  0.72667946  0.89289976  0.56451800  1
  Te  Te125  1  0.75488267  0.93843070  0.95954939  1
  Te  Te126  1  0.28630351  0.26972632  0.07757069  1
  Te  Te127  1  0.24803247  0.24120346  0.41409513  1
  Te  Te128  1  0.25026709  0.23736680  0.76282814  1
  Te  Te129  1  0.25351110  0.59645180  0.10657115  1
  Te  Te130  1  0.25840063  0.60939390  0.41618104  1
  Te  Te131  1  0.23688154  0.56548151  0.72519847  1
  Te  Te132  1  0.29374185  0.91435475  0.10947299  1
  Te  Te133  1  0.24874104  0.89468668  0.40089682  1
  Te  Te134  1  0.26238527  0.93231765  0.74681704  1
  Te  Te135  1  0.58746974  0.25145636  0.10329131  1
  Te  Te136  1  0.60355843  0.25488949  0.38286225  1
  Te  Te137  1  0.58238343  0.21972684  0.73816659  1
  Te  Te138  1  0.56050674  0.56399190  0.08761388  1
  Te  Te139  1  0.58304661  0.61043175  0.45257581  1
  Te  Te140  1  0.57828189  0.59173625  0.74832823  1
  Te  Te141  1  0.58537118  0.95983309  0.01569430  1
  Te  Te142  1  0.55549310  0.93063435  0.43711088  1
  Te  Te143  1  0.58820860  0.91005466  0.75756045  1
  Te  Te144  1  0.91696677  0.25648627  0.06899974  1
  Te  Te145  1  0.89363632  0.23502624  0.45233450  1
  Te  Te146  1  0.91606205  0.27090821  0.74221529  1
  Te  Te147  1  0.90314613  0.58117457  0.07905625  1
  Te  Te148  1  0.92175841  0.57231138  0.43380429  1
  Te  Te149  1  0.90750689  0.58959915  0.72313639  1
  Te  Te150  1  0.94046337  0.90409061  0.10979204  1
  Te  Te151  1  0.91694418  0.90916712  0.42675334  1
  Te  Te152  1  0.92257362  0.93672510  0.72328889  1
  Te  Te153  1  0.28026572  0.04949673  0.28248513  1
  Te  Te154  1  0.25688585  0.08933094  0.58084056  1
  Te  Te155  1  0.25570111  0.09223522  0.92848021  1
  Te  Te156  1  0.24411527  0.40996071  0.24431315  1
  Te  Te157  1  0.27139041  0.43235438  0.55584642  1
  Te  Te158  1  0.24915613  0.40673014  0.91557430  1
  Te  Te159  1  0.21998812  0.78329172  0.18951303  1
  Te  Te160  1  0.25574959  0.75426722  0.58791344  1
  Te  Te161  1  0.24877382  0.75005287  0.93055730  1
  Te  Te162  1  0.58203614  0.06193796  0.23394174  1
  Te  Te163  1  0.56774927  0.08482121  0.58320525  1
  Te  Te164  1  0.58477990  0.06367886  0.91064607  1
  Te  Te165  1  0.58893355  0.42554456  0.26723430  1
  Te  Te166  1  0.59861680  0.41967770  0.56079910  1
  Te  Te167  1  0.57162137  0.42335125  0.91944692  1
  Te  Te168  1  0.61206877  0.74332946  0.27667958  1
  Te  Te169  1  0.56618329  0.73309624  0.55088026  1
  Te  Te170  1  0.60386732  0.74023262  0.95514813  1
  Te  Te171  1  0.90428057  0.09060267  0.26620386  1
  Te  Te172  1  0.91580692  0.09139029  0.58160551  1
  Te  Te173  1  0.90431903  0.09184130  0.90808210  1
  Te  Te174  1  0.91594625  0.41438960  0.24559638  1
  Te  Te175  1  0.94325698  0.37820551  0.55305264  1
  Te  Te176  1  0.89864752  0.44504735  0.91338571  1
  Te  Te177  1  0.91057983  0.75786748  0.25990502  1
  Te  Te178  1  0.93017411  0.74562646  0.56708449  1
  Te  Te179  1  0.90852368  0.76111438  0.90760134  1
