# generated using pymatgen
data_In2Te3
_symmetry_space_group_name_H-M   'P 1'
_cell_length_a   18.98840411
_cell_length_b   19.02355103
_cell_length_c   18.97565975
_cell_angle_alpha   89.92710114
_cell_angle_beta   90.07971285
_cell_angle_gamma   89.96580655
_symmetry_Int_Tables_number   1
_chemical_formula_structural   In2Te3
_chemical_formula_sum   'In72 Te108'
_cell_volume   6854.50485503
_cell_formula_units_Z   36
loop_
 _symmetry_equiv_pos_site_id
 _symmetry_equiv_pos_as_xyz
  1  'x, y, z'
loop_
 _atom_site_type_symbol
 _atom_site_label
 _atom_site_symmetry_multiplicity
 _atom_site_fract_x
 _atom_site_fract_y
 _atom_site_fract_z
 _atom_site_occupancy
  In  In0  1  0.51180272  0.81184883  0.34097109  1
  In  In1  1  0.63817998  0.32492791  0.63224802  1
  In  In2  1  0.04667613  0.16626303  0.14878799  1
  In  In3  1  0.31130381  0.00408632  0.00203199  1
  In  In4  1  0.19014972  0.66054034  0.14949641  1
  In  In5  1  0.49243171  0.48701754  -0.00061567  1
  In  In6  1  0.65917469  0.29873426  0.02343533  1
  In  In7  1  0.86205611  0.24162294  0.20363763  1
  In  In8  1  0.80706324  0.33620316  0.82448592  1
  In  In9  1  0.16635633  0.84023075  0.67486192  1
  In  In10  1  0.48307697  -0.00143864  0.17938931  1
  In  In11  1  0.49241023  0.16232107  0.64683069  1
  In  In12  1  0.64581590  0.00733155  0.33778456  1
  In  In13  1  0.83654250  -0.00077405  0.83104538  1
  In  In14  1  0.52770336  0.50511684  0.29277123  1
  In  In15  1  0.34964483  0.35570873  0.30968655  1
  In  In16  1  0.84781453  0.48559445  0.32178152  1
  In  In17  1  0.34921552  0.79922008  0.86889232  1
  In  In18  1  0.02734267  0.67773671  -0.00194128  1
  In  In19  1  0.15160357  0.32247327  0.50983654  1
  In  In20  1  0.64996270  0.50072005  0.82032911  1
  In  In21  1  0.80297919  0.48721258  -0.00190961  1
  In  In22  1  0.00406963  0.83949109  0.50592601  1
  In  In23  1  0.66612034  -0.00397288  0.01283633  1
  In  In24  1  0.47054158  0.34768972  0.83823049  1
  In  In25  1  0.32012190  0.18663692  0.50843526  1
  In  In26  1  0.83995193  0.85230964  -0.00325540  1
  In  In27  1  0.84053997  -0.02556761  0.48872934  1
  In  In28  1  0.15660207  0.16348381  0.68941631  1
  In  In29  1  -0.01717546  0.15507033  0.85408576  1
  In  In30  1  0.16307513  0.01176575  0.85814037  1
  In  In31  1  0.15357044  0.32281096  0.82468856  1
  In  In32  1  0.66384163  0.15683586  0.83095653  1
  In  In33  1  0.84348322  0.68024704  0.15556949  1
  In  In34  1  0.86288355  0.84694967  0.32494884  1
  In  In35  1  0.40610984  0.69516212  0.01246832  1
  In  In36  1  0.84780019  0.01345330  0.17282459  1
  In  In37  1  0.15769557  0.48817807  0.31120279  1
  In  In38  1  0.02566637  0.84906770  0.85892916  1
  In  In39  1  0.31254304  0.00831552  0.34244564  1
  In  In40  1  0.15984945  0.84020809  0.30774623  1
  In  In41  1  0.60505149  0.80443497  0.86094024  1
  In  In42  1  0.82189244  0.81430440  0.68400326  1
  In  In43  1  0.33173116  0.84460939  0.49598692  1
  In  In44  1  0.02605106  0.13200147  0.51139555  1
  In  In45  1  0.33346717  0.32688461  -0.00105720  1
  In  In46  1  0.29125703  0.14373711  0.15304755  1
  In  In47  1  0.48971810  0.64001646  0.51373086  1
  In  In48  1  0.33690496  0.61137183  0.31516526  1
  In  In49  1  0.02200099  0.34968727  -0.00121619  1
  In  In50  1  0.48146661  0.14657180  0.31915889  1
  In  In51  1  0.45693920  0.50162592  0.69793576  1
  In  In52  1  0.64425550  0.65705533  0.67571321  1
  In  In53  1  0.66791014  0.81307404  0.48898052  1
  In  In54  1  0.85074572  0.51922753  0.65867524  1
  In  In55  1  -0.00298662  0.52440315  0.50040679  1
  In  In56  1  0.68684888  0.83466584  0.14170949  1
  In  In57  1  0.02143440  0.29154067  0.32351885  1
  In  In58  1  0.66173920  0.15587287  0.48582073  1
  In  In59  1  0.31533322  0.46872164  0.50548390  1
  In  In60  1  0.02458094  0.50640837  0.84090990  1
  In  In61  1  0.83551621  0.34254287  0.43490673  1
  In  In62  1  0.64958984  0.47087848  0.14551626  1
  In  In63  1  0.69092089  0.67499879  0.30869393  1
  In  In64  1  0.01299180  0.49608687  0.15146085  1
  In  In65  1  0.16616554  0.69282309  0.50367976  1
  In  In66  1  0.33196175  0.00267292  0.67130075  1
  In  In67  1  0.49727995  0.33112636  0.50174217  1
  In  In68  1  0.67973413  0.50265786  0.49784007  1
  In  In69  1  0.01391058  0.68896663  0.68943577  1
  In  In70  1  0.51083730  -0.00404090  0.83624474  1
  In  In71  1  0.83870437  0.16930019  0.65597241  1
  Te  Te72  1  0.10645964  0.04655165  0.08587407  1
  Te  Te73  1  0.12407004  0.12474445  0.40554037  1
  Te  Te74  1  0.06209209  0.06806117  0.75931801  1
  Te  Te75  1  0.11169019  0.45390535  0.05067648  1
  Te  Te76  1  0.06915841  0.41420590  0.41107590  1
  Te  Te77  1  0.07425939  0.41489809  0.73984226  1
  Te  Te78  1  0.11534339  0.76841887  0.07639696  1
  Te  Te79  1  0.07265736  0.75255040  0.40279078  1
  Te  Te80  1  0.11413657  0.74999436  0.78498492  1
  Te  Te81  1  0.41437445  0.08993415  0.08221660  1
  Te  Te82  1  0.40723997  0.08523416  0.43569348  1
  Te  Te83  1  0.42009345  0.09076834  0.75781346  1
  Te  Te84  1  0.43160489  0.39228566  0.09275598  1
  Te  Te85  1  0.43931982  0.43892858  0.41042984  1
  Te  Te86  1  0.35879895  0.42026705  0.77324470  1
  Te  Te87  1  0.34296409  0.81339934  0.08385844  1
  Te  Te88  1  0.41007930  0.72845001  0.41887634  1
  Te  Te89  1  0.43656476  0.74357432  0.76246899  1
  Te  Te90  1  0.77434158  0.08255771  0.06535291  1
  Te  Te91  1  0.76292238  0.07554399  0.40541061  1
  Te  Te92  1  0.74740179  0.07676323  0.73391380  1
  Te  Te93  1  0.76500742  0.38322385  0.10023389  1
  Te  Te94  1  0.71242277  0.41964079  0.37903422  1
  Te  Te95  1  0.74178996  0.42255746  0.71810365  1
  Te  Te96  1  0.75209834  0.73638669  0.04898835  1
  Te  Te97  1  0.77881982  0.75002012  0.40629255  1
  Te  Te98  1  0.72332309  0.74193384  0.77159519  1
  Te  Te99  1  0.11899023  0.28095127  0.21281089  1
  Te  Te100  1  0.06219462  0.24689642  0.60480696  1
  Te  Te101  1  0.08750934  0.23246470  0.92952314  1
  Te  Te102  1  0.07996156  0.59644975  0.24163624  1
  Te  Te103  1  0.09090280  0.59778668  0.59559899  1
  Te  Te104  1  0.11592500  0.58683371  0.92294483  1
  Te  Te105  1  0.12557183  0.94574835  0.20649541  1
  Te  Te106  1  0.08649222  0.92643043  0.58858861  1
  Te  Te107  1  0.07410423  0.94742766  0.95948273  1
  Te  Te108  1  0.39150349  0.23128981  0.23509281  1
  Te  Te109  1  0.40108000  0.27537535  0.60357457  1
  Te  Te110  1  0.44064509  0.24599137  0.93748753  1
  Te  Te111  1  0.44667571  0.60235058  0.22067272  1
  Te  Te112  1  0.37714601  0.57769754  0.59338350  1
  Te  Te113  1  0.38488802  0.56592521  0.92773420  1
  Te  Te114  1  0.41234343  0.91065771  0.27956553  1
  Te  Te115  1  0.41723778  0.91935916  0.58678415  1
  Te  Te116  1  0.41787871  0.92310751  0.92964661  1
  Te  Te117  1  0.77225371  0.26876841  0.31615004  1
  Te  Te118  1  0.75352927  0.25924374  0.56255803  1
  Te  Te119  1  0.75580832  0.23437322  0.92282650  1
  Te  Te120  1  0.75533289  0.56950228  0.22169446  1
  Te  Te121  1  0.75245004  0.60560220  0.58051876  1
  Te  Te122  1  0.74972566  0.57615714  0.89573435  1
  Te  Te123  1  0.74062494  0.91674907  0.25734769  1
  Te  Te124  1  0.74683795  0.90166121  0.58327790  1
  Te  Te125  1  0.73076058  0.91228020  0.90311268  1
  Te  Te126  1  0.23081351  0.26405431  0.09039546  1
  Te  Te127  1  0.25873971  0.28248156  0.40875258  1
  Te  Te128  1  0.25522213  0.22028348  0.78267504  1
  Te  Te129  1  0.29696570  0.60212657  0.06227219  1
  Te  Te130  1  0.22991843  0.57390227  0.42436935  1
  Te  Te131  1  0.32569446  0.65772781  0.81128413  1
  Te  Te132  1  0.26244801  0.93877606  0.12993066  1
  Te  Te133  1  0.22075720  0.91865420  0.42408521  1
  Te  Te134  1  0.25185164  0.92200210  0.77192160  1
  Te  Te135  1  0.60253446  0.23408501  0.14025814  1
  Te  Te136  1  0.56798297  0.24267420  0.40355495  1
  Te  Te137  1  0.57830064  0.25837076  0.75208183  1
  Te  Te138  1  0.59536305  0.57706344  0.05792200  1
  Te  Te139  1  0.59722390  0.60169116  0.40560477  1
  Te  Te140  1  0.54259485  0.59918142  0.77637050  1
  Te  Te141  1  0.56604132  0.90954129  0.08703299  1
  Te  Te142  1  0.57138549  0.91742126  0.43242433  1
  Te  Te143  1  0.57985622  0.89778705  0.75282075  1
  Te  Te144  1  0.93811762  0.24422093  0.07468834  1
  Te  Te145  1  0.93716906  0.22756648  0.42971662  1
  Te  Te146  1  0.91375772  0.25243979  0.75690730  1
  Te  Te147  1  0.91715845  0.57755350  0.06345318  1
  Te  Te148  1  0.91406898  0.59016581  0.39872804  1
  Te  Te149  1  0.92152496  0.59630074  0.76580072  1
  Te  Te150  1  0.92177373  0.90196684  0.10973633  1
  Te  Te151  1  0.95598938  0.94096493  0.39566063  1
  Te  Te152  1  0.92301931  0.90153342  0.75502783  1
  Te  Te153  1  0.22052980  0.11083135  0.28368152  1
  Te  Te154  1  0.23788757  0.08648331  0.58654115  1
  Te  Te155  1  0.25876166  0.11093046  0.91187545  1
  Te  Te156  1  0.28126446  0.46355896  0.23409327  1
  Te  Te157  1  0.22380386  0.41008650  0.60268570  1
  Te  Te158  1  0.24996170  0.40623932  0.90294846  1
  Te  Te159  1  0.25887451  0.73346212  0.26459574  1
  Te  Te160  1  0.26501838  0.75410165  0.60004218  1
  Te  Te161  1  0.24056243  0.79048211  0.97329750  1
  Te  Te162  1  0.60131294  0.09835741  0.22514870  1
  Te  Te163  1  0.59375157  0.07749120  0.58766211  1
  Te  Te164  1  0.57740173  0.09188620  0.93585654  1
  Te  Te165  1  0.55528844  0.37903648  0.21652353  1
  Te  Te166  1  0.56476717  0.45114425  0.59189512  1
  Te  Te167  1  0.59915021  0.39813528  0.91899651  1
  Te  Te168  1  0.58870838  0.74949854  0.22612101  1
  Te  Te169  1  0.56655885  0.74944332  0.58387537  1
  Te  Te170  1  0.55121883  0.71466802  0.96519510  1
  Te  Te171  1  0.93590171  0.11277585  0.24305174  1
  Te  Te172  1  0.91703930  0.05887873  0.58987724  1
  Te  Te173  1  0.90067130  0.06971849  0.94336043  1
  Te  Te174  1  0.93770817  0.39647938  0.23695502  1
  Te  Te175  1  0.90018203  0.42172575  0.55526066  1
  Te  Te176  1  0.90848904  0.41199279  0.90972645  1
  Te  Te177  1  0.93761947  0.77262313  0.22063201  1
  Te  Te178  1  0.91748155  0.74523662  0.58693097  1
  Te  Te179  1  0.92252063  0.75392215  0.91593129  1
