# generated using pymatgen
data_In2Te3
_symmetry_space_group_name_H-M   'P 1'
_cell_length_a   18.92007038
_cell_length_b   18.91470281
_cell_length_c   18.90904324
_cell_angle_alpha   89.97890612
_cell_angle_beta   90.11804120
_cell_angle_gamma   89.88467300
_symmetry_Int_Tables_number   1
_chemical_formula_structural   In2Te3
_chemical_formula_sum   'In72 Te108'
_cell_volume   6766.90365345
_cell_formula_units_Z   36
loop_
 _symmetry_equiv_pos_site_id
 _symmetry_equiv_pos_as_xyz
  1  'x, y, z'
loop_
 _atom_site_type_symbol
 _atom_site_label
 _atom_site_symmetry_multiplicity
 _atom_site_fract_x
 _atom_site_fract_y
 _atom_site_fract_z
 _atom_site_occupancy
  In  In0  1  0.84147000  0.83180601  0.64979553  1
  In  In1  1  0.50740668  0.16809989  0.34312188  1
  In  In2  1  0.36097860  0.16511108  0.14101965  1
  In  In3  1  0.62554494  0.65872065  0.71198546  1
  In  In4  1  0.15162628  -0.00501606  0.15810061  1
  In  In5  1  0.65428696  0.51197462  0.51659015  1
  In  In6  1  0.16812844  -0.01486204  0.82779613  1
  In  In7  1  -0.02284228  0.66654450  0.00018887  1
  In  In8  1  0.36270371  0.33250227  0.00602673  1
  In  In9  1  0.80584505  -0.03052326  0.83070970  1
  In  In10  1  0.32186295  0.37617451  0.34508153  1
  In  In11  1  0.00168294  0.34176233  0.63817257  1
  In  In12  1  0.31945891  -0.01738354  0.64941629  1
  In  In13  1  0.15872920  0.47020776  0.00434004  1
  In  In14  1  0.65867641  0.34066991  0.33281106  1
  In  In15  1  0.82492673  0.17785968  0.67123376  1
  In  In16  1  0.65925815  0.84916162  0.13870324  1
  In  In17  1  0.49523796  0.50678793  -0.00117584  1
  In  In18  1  0.16081858  0.51090924  0.34608932  1
  In  In19  1  0.50096140  0.14190768  0.00453951  1
  In  In20  1  0.50244991  0.18828820  0.66470443  1
  In  In21  1  0.65395831  0.81393902  0.52818225  1
  In  In22  1  0.67826170  0.46833888  0.15953532  1
  In  In23  1  0.33290217  0.79975214  0.17814089  1
  In  In24  1  0.82390294  0.70192882  0.17868328  1
  In  In25  1  0.18797601  0.82965782  -0.01398527  1
  In  In26  1  0.83015128  0.32799156  0.85724229  1
  In  In27  1  -0.00902370  0.83283310  0.16309021  1
  In  In28  1  0.00769042  -0.00527704  0.01028926  1
  In  In29  1  0.83722057  0.14791530  0.33811584  1
  In  In30  1  -0.02115826  0.15197617  0.49529698  1
  In  In31  1  0.31583228  0.15387882  0.82389985  1
  In  In32  1  0.33314377  0.53299180  0.19712523  1
  In  In33  1  0.63456218  0.69389064  -0.03745437  1
  In  In34  1  0.84309558  0.66434219  0.51046827  1
  In  In35  1  0.82170105  0.15151827  -0.01469249  1
  In  In36  1  0.15394162  0.14698093  0.33558944  1
  In  In37  1  0.81715253  0.67556232  0.84282193  1
  In  In38  1  0.12999358  0.82477909  0.38504843  1
  In  In39  1  0.83856317  0.50211511  0.67570032  1
  In  In40  1  0.66261320  0.65746625  0.34550563  1
  In  In41  1  0.16292121  0.33712708  0.80005778  1
  In  In42  1  0.33294484  0.16939136  0.51585930  1
  In  In43  1  -0.02556201  0.15660003  0.17558536  1
  In  In44  1  0.13905658  0.31626941  0.15203940  1
  In  In45  1  0.02303452  0.16289188  0.82445521  1
  In  In46  1  0.16094706  0.83465159  0.63877621  1
  In  In47  1  0.34697784  0.01760821  -0.01437990  1
  In  In48  1  0.67651669  -0.01117868  0.34398839  1
  In  In49  1  0.15992606  0.67600124  0.81696109  1
  In  In50  1  0.84256917  0.46847243  0.31281284  1
  In  In51  1  0.51117316  -0.00775187  0.83269611  1
  In  In52  1  0.35819228  0.68607694  0.69548138  1
  In  In53  1  -0.01610932  0.33319923  -0.01237329  1
  In  In54  1  -0.01710920  0.49780381  0.82792882  1
  In  In55  1  0.67802570  0.33672250  0.67222855  1
  In  In56  1  0.17562604  0.35072121  0.50239019  1
  In  In57  1  0.52022969  0.33066472  0.19272907  1
  In  In58  1  0.00985268  0.52399039  0.50270197  1
  In  In59  1  0.34973539  0.81950226  0.48178769  1
  In  In60  1  0.32085355  -0.02913508  0.31703677  1
  In  In61  1  0.67573910  0.15704185  0.16871629  1
  In  In62  1  0.50247716  -0.00289395  0.50710058  1
  In  In63  1  0.33913879  0.51637679  0.50893103  1
  In  In64  1  0.86133389  0.85541885  0.34981444  1
  In  In65  1  0.37463119  0.65130185  -0.00488757  1
  In  In66  1  0.52236975  0.36738075  0.83454225  1
  In  In67  1  0.18346562  0.16107972  0.68452088  1
  In  In68  1  0.49862191  0.65969290  0.17733892  1
  In  In69  1  0.68269518  0.00507284  0.66107740  1
  In  In70  1  0.17267559  0.65717223  0.18028403  1
  In  In71  1  0.35061022  0.51187192  0.83328677  1
  Te  Te72  1  0.08357309  0.10618588  0.08037928  1
  Te  Te73  1  0.05351171  0.05942038  0.40058770  1
  Te  Te74  1  0.07955641  0.05845768  0.72844669  1
  Te  Te75  1  0.04790860  0.42790342  0.09748283  1
  Te  Te76  1  0.06895928  0.41063917  0.41353339  1
  Te  Te77  1  0.08075818  0.43974630  0.72527926  1
  Te  Te78  1  0.09569665  0.74906858  0.07832092  1
  Te  Te79  1  0.09359688  0.69254225  0.45503714  1
  Te  Te80  1  0.07528339  0.76627025  0.73876315  1
  Te  Te81  1  0.44065473  0.04128552  0.10323441  1
  Te  Te82  1  0.40276048  0.07191688  0.41267667  1
  Te  Te83  1  0.40948755  0.07845838  0.72872974  1
  Te  Te84  1  0.41555493  0.42935925  0.11100305  1
  Te  Te85  1  0.42806139  0.43130050  0.42548790  1
  Te  Te86  1  0.42934383  0.42819603  0.73644572  1
  Te  Te87  1  0.44109208  0.76118898  0.07425848  1
  Te  Te88  1  0.42805590  0.75748374  0.37310631  1
  Te  Te89  1  0.45512740  0.74684893  0.79375072  1
  Te  Te90  1  0.77085183  0.07000840  0.09761513  1
  Te  Te91  1  0.74328151  0.08386394  0.43180541  1
  Te  Te92  1  0.74329539  0.09457551  0.76829297  1
  Te  Te93  1  0.79604944  0.40689907  0.09778629  1
  Te  Te94  1  0.74414164  0.43024920  0.42047219  1
  Te  Te95  1  0.75087603  0.42760754  0.77167604  1
  Te  Te96  1  0.74403962  0.75091014  0.05854752  1
  Te  Te97  1  0.75546153  0.75714227  0.41844066  1
  Te  Te98  1  0.74180691  0.75601394  0.73759368  1
  Te  Te99  1  0.06354336  0.24626525  0.26296803  1
  Te  Te100  1  0.09731543  0.23951075  0.57985919  1
  Te  Te101  1  0.09782356  0.26140084  0.91429932  1
  Te  Te102  1  0.07261800  0.57950298  0.25109276  1
  Te  Te103  1  0.06375338  0.63084228  0.58822489  1
  Te  Te104  1  0.08618906  0.57181628  0.91655219  1
  Te  Te105  1  0.08472221  0.90688708  0.25856683  1
  Te  Te106  1  0.05254362  0.88532449  0.54252926  1
  Te  Te107  1  0.07545414  0.89961874  0.91218033  1
  Te  Te108  1  0.40410302  0.25618428  0.25628394  1
  Te  Te109  1  0.42664331  0.26844962  0.56626299  1
  Te  Te110  1  0.42029659  0.23200303  0.90709113  1
  Te  Te111  1  0.40325225  0.62467288  0.29053582  1
  Te  Te112  1  0.42857040  0.60951347  0.58905943  1
  Te  Te113  1  0.47063095  0.60408752  0.87555323  1
  Te  Te114  1  0.42670088  0.88269632  0.26221978  1
  Te  Te115  1  0.42859127  0.89551004  0.59162326  1
  Te  Te116  1  0.39943012  0.91750544  0.89383423  1
  Te  Te117  1  0.75300309  0.25298897  0.25533363  1
  Te  Te118  1  0.76247734  0.26670235  0.57465518  1
  Te  Te119  1  0.72857647  0.24768541  0.92379367  1
  Te  Te120  1  0.75042590  0.58042378  0.24589503  1
  Te  Te121  1  0.74316679  0.60293268  0.60768325  1
  Te  Te122  1  0.72149547  0.58729348  0.91115598  1
  Te  Te123  1  0.75719981  0.90356347  0.24840750  1
  Te  Te124  1  0.75738803  0.92162656  0.55854675  1
  Te  Te125  1  0.72352184  0.88657174  0.92204037  1
  Te  Te126  1  0.25375243  0.24931088  0.07238542  1
  Te  Te127  1  0.24698103  0.24930007  0.40442312  1
  Te  Te128  1  0.27911470  0.26941454  0.72997705  1
  Te  Te129  1  0.25528836  0.57694117  0.06677156  1
  Te  Te130  1  0.24381036  0.60014126  0.42707328  1
  Te  Te131  1  0.25227640  0.58230226  0.74151450  1
  Te  Te132  1  0.26197198  0.91300192  0.09026315  1
  Te  Te133  1  0.24168862  0.91820174  0.43351773  1
  Te  Te134  1  0.25726042  0.89120774  0.75165366  1
  Te  Te135  1  0.58250613  0.24647746  0.08584401  1
  Te  Te136  1  0.57643788  0.26361546  0.42764801  1
  Te  Te137  1  0.59345945  0.25033747  0.76763349  1
  Te  Te138  1  0.59548268  0.58685589  0.08408096  1
  Te  Te139  1  0.56598725  0.60270641  0.43980657  1
  Te  Te140  1  0.55862546  0.53313956  0.75633864  1
  Te  Te141  1  0.61349308  0.92909751  0.02098349  1
  Te  Te142  1  0.58087626  0.89860791  0.42340193  1
  Te  Te143  1  0.59478920  0.91260657  0.73780288  1
  Te  Te144  1  0.89828747  0.24659486  0.07859899  1
  Te  Te145  1  0.91370871  0.25128549  0.41126835  1
  Te  Te146  1  0.93663221  0.27176753  0.75776687  1
  Te  Te147  1  0.89491744  0.59953497  0.09887068  1
  Te  Te148  1  0.90590671  0.57743443  0.40455317  1
  Te  Te149  1  0.92198747  0.60754545  0.74400476  1
  Te  Te150  1  0.90459475  0.92171028  0.08415998  1
  Te  Te151  1  0.95083028  0.93716439  0.43510750  1
  Te  Te152  1  0.91269028  0.92132001  0.74329763  1
  Te  Te153  1  0.25693915  0.08736557  0.23562154  1
  Te  Te154  1  0.22831341  0.07192122  0.56732473  1
  Te  Te155  1  0.22545161  0.08639507  0.92557860  1
  Te  Te156  1  0.23203582  0.41508908  0.22736438  1
  Te  Te157  1  0.24840457  0.43559649  0.59489675  1
  Te  Te158  1  0.26539111  0.40806755  0.90852892  1
  Te  Te159  1  0.22456137  0.76108534  0.27616983  1
  Te  Te160  1  0.26765828  0.74279476  0.58308203  1
  Te  Te161  1  0.26981602  0.72835495  0.91053228  1
  Te  Te162  1  0.58241611  0.07201098  0.25436397  1
  Te  Te163  1  0.59047360  0.09663609  0.57929324  1
  Te  Te164  1  0.60135287  0.06863886  0.92308754  1
  Te  Te165  1  0.57110730  0.45110835  0.26614265  1
  Te  Te166  1  0.57724983  0.42178023  0.60423732  1
  Te  Te167  1  0.59200505  0.40381549  0.95773040  1
  Te  Te168  1  0.59876059  0.75300824  0.24371624  1
  Te  Te169  1  0.55534267  0.72291124  0.59460588  1
  Te  Te170  1  0.58358897  0.79802645  0.86587632  1
  Te  Te171  1  0.90561508  0.05122798  0.24888368  1
  Te  Te172  1  0.91708615  0.08272679  0.60881497  1
  Te  Te173  1  0.92586982  0.07498040  0.90065627  1
  Te  Te174  1  0.90651300  0.39901936  0.20079124  1
  Te  Te175  1  0.90225867  0.42572356  0.56228692  1
  Te  Te176  1  0.89254250  0.44539090  0.93637275  1
  Te  Te177  1  0.93520182  0.74507359  0.27444892  1
  Te  Te178  1  0.94244791  0.76814186  0.55369954  1
  Te  Te179  1  0.91809813  0.76126928  0.90813597  1
