# generated using pymatgen
data_In2Te3
_symmetry_space_group_name_H-M   'P 1'
_cell_length_a   18.95910146
_cell_length_b   18.91510476
_cell_length_c   18.95819754
_cell_angle_alpha   89.89554717
_cell_angle_beta   90.11066271
_cell_angle_gamma   89.88490780
_symmetry_Int_Tables_number   1
_chemical_formula_structural   In2Te3
_chemical_formula_sum   'In72 Te108'
_cell_volume   6798.62575175
_cell_formula_units_Z   36
loop_
 _symmetry_equiv_pos_site_id
 _symmetry_equiv_pos_as_xyz
  1  'x, y, z'
loop_
 _atom_site_type_symbol
 _atom_site_label
 _atom_site_symmetry_multiplicity
 _atom_site_fract_x
 _atom_site_fract_y
 _atom_site_fract_z
 _atom_site_occupancy
  In  In0  1  0.66916373  0.15826966  0.81957833  1
  In  In1  1  0.18190677  0.48918797  0.00922817  1
  In  In2  1  0.32307931  0.32844903  0.32208969  1
  In  In3  1  0.02097837  0.13931307  0.47653857  1
  In  In4  1  0.48939546  0.19307183  0.64835440  1
  In  In5  1  -0.00476313  0.19012412  0.19094527  1
  In  In6  1  0.63940081  0.23434782  0.19076219  1
  In  In7  1  0.47219482  0.86358909  0.32995853  1
  In  In8  1  0.30336632  0.19112904  0.50809399  1
  In  In9  1  0.84862218  0.83825521  0.33386650  1
  In  In10  1  -0.02556084  0.44950817  0.21816645  1
  In  In11  1  -0.00442068  0.66746279  0.34732184  1
  In  In12  1  0.65408800  0.65004311  0.00596318  1
  In  In13  1  0.68659884  -0.01476582  -0.00289074  1
  In  In14  1  0.34076359  0.66135156  0.67830930  1
  In  In15  1  0.49598549  0.64699508  0.52684072  1
  In  In16  1  0.48006100  0.01615603  0.83477050  1
  In  In17  1  0.02938057  0.31624964  0.69614852  1
  In  In18  1  0.31949203  0.02878743  0.32557743  1
  In  In19  1  0.32804679  0.84898456  0.48538917  1
  In  In20  1  0.65339195  0.62051647  0.66919682  1
  In  In21  1  0.15350527  0.68864561  0.48923109  1
  In  In22  1  0.19842032  0.84558809  0.70759125  1
  In  In23  1  0.83569551  0.65771763  0.82982811  1
  In  In24  1  0.34487997  0.18991111  0.84710075  1
  In  In25  1  0.85023483  0.82577317  0.65013208  1
  In  In26  1  0.52603620  0.42963669  0.31455716  1
  In  In27  1  -0.00367442  0.49638252  0.47083353  1
  In  In28  1  0.46383785  0.83600285  0.69013772  1
  In  In29  1  0.17438285  0.02292242  0.16342485  1
  In  In30  1  0.82866316  0.47129607  -0.00218631  1
  In  In31  1  0.32678236  0.48409536  0.84755298  1
  In  In32  1  0.02806253  0.01899991  0.67183545  1
  In  In33  1  0.17088166  0.32937762  0.17025809  1
  In  In34  1  0.66784067  0.83750562  0.84342527  1
  In  In35  1  0.51228438  0.20122978  0.32944887  1
  In  In36  1  0.86518773  0.18438777  0.65865976  1
  In  In37  1  0.18322670  0.66039608  0.16799393  1
  In  In38  1  0.70628476  0.11332714  0.33086173  1
  In  In39  1  0.00286647  0.32340408  -0.00736889  1
  In  In40  1  0.47568423  0.84273988  0.00240709  1
  In  In41  1  0.48971808  -0.00010685  0.49030653  1
  In  In42  1  0.32177724  0.40968473  0.53386615  1
  In  In43  1  0.17104050  0.64888327  0.84708936  1
  In  In44  1  0.17575340  0.18803578  0.01062664  1
  In  In45  1  0.18146746  0.16623818  0.67936983  1
  In  In46  1  0.66915552  0.33407358  0.67260145  1
  In  In47  1  0.16556844  0.50918146  0.34040300  1
  In  In48  1  0.48841385  0.65483601  0.14419213  1
  In  In49  1  0.79080891  0.83479563  -0.00392730  1
  In  In50  1  0.64934860  0.32903438  -0.00374287  1
  In  In51  1  0.48569985  0.48707295  0.69309539  1
  In  In52  1  0.03595814  0.86540416  0.17123393  1
  In  In53  1  0.00889943  0.82571170  0.83373658  1
  In  In54  1  0.66535539  0.00980570  0.64219387  1
  In  In55  1  0.34787067  0.66439413  0.30308463  1
  In  In56  1  0.01284203  0.86409592  0.49566907  1
  In  In57  1  0.01458318  0.64131601  -0.00726597  1
  In  In58  1  -0.00370958  -0.00310212  -0.01200770  1
  In  In59  1  0.84307292  0.63292260  0.20392210  1
  In  In60  1  0.66419067  0.82967372  0.17097744  1
  In  In61  1  -0.00574605  0.64403375  0.64849855  1
  In  In62  1  0.18095872  0.83908335  -0.01607156  1
  In  In63  1  0.68559480  0.48653061  0.51191976  1
  In  In64  1  0.66220457  0.80745527  0.49292763  1
  In  In65  1  0.65932179  0.64678306  0.31057951  1
  In  In66  1  0.82486032  0.48161719  0.66970985  1
  In  In67  1  0.84702749  0.32528058  0.50336131  1
  In  In68  1  0.43038153  0.09545220  0.17094989  1
  In  In69  1  0.85023325  0.01544465  0.17443488  1
  In  In70  1  0.83922193  0.15828075  -0.00652830  1
  In  In71  1  0.46767247  0.45800903  0.01426492  1
  Te  Te72  1  0.06395694  0.10005588  0.07899331  1
  Te  Te73  1  0.10898609  0.04823977  0.40133834  1
  Te  Te74  1  0.08621570  0.10538705  0.77437259  1
  Te  Te75  1  0.06849424  0.42244301  0.10066628  1
  Te  Te76  1  0.09436406  0.40428026  0.41363721  1
  Te  Te77  1  0.12066487  0.41986868  0.74213388  1
  Te  Te78  1  0.08557177  0.74780168  0.07378990  1
  Te  Te79  1  0.08731952  0.78029089  0.38860872  1
  Te  Te80  1  0.08320025  0.73218056  0.73948812  1
  Te  Te81  1  0.38803210  0.09870271  0.02794821  1
  Te  Te82  1  0.41551837  0.10966056  0.41333842  1
  Te  Te83  1  0.40681560  0.10201327  0.73394452  1
  Te  Te84  1  0.40027075  0.37378695  0.11642654  1
  Te  Te85  1  0.40084997  0.42985027  0.40308956  1
  Te  Te86  1  0.39803279  0.38691268  0.75843600  1
  Te  Te87  1  0.39896699  0.75962810  0.09628122  1
  Te  Te88  1  0.43038914  0.74949367  0.43116132  1
  Te  Te89  1  0.40990727  0.73692697  0.78303440  1
  Te  Te90  1  0.74560708  0.08794608  0.09087244  1
  Te  Te91  1  0.74780883  0.12420515  0.46859854  1
  Te  Te92  1  0.76398750  0.08612032  0.72687682  1
  Te  Te93  1  0.74464077  0.39448663  0.09264560  1
  Te  Te94  1  0.74243449  0.38884836  0.41736020  1
  Te  Te95  1  0.72646385  0.43192167  0.76498224  1
  Te  Te96  1  0.74807837  0.72250573  0.10306388  1
  Te  Te97  1  0.75226993  0.73655342  0.39458669  1
  Te  Te98  1  0.75108831  0.75212596  0.74534040  1
  Te  Te99  1  0.11221494  0.23624115  0.27020732  1
  Te  Te100  1  0.08276564  0.23350088  0.58188145  1
  Te  Te101  1  0.10870605  0.26915817  0.90585880  1
  Te  Te102  1  0.06968505  0.58351951  0.24282882  1
  Te  Te103  1  0.09704636  0.57118937  0.56556751  1
  Te  Te104  1  0.08096787  0.54033605  0.90400853  1
  Te  Te105  1  0.07506949  0.97425749  0.26707446  1
  Te  Te106  1  0.11208082  0.91427665  0.60145777  1
  Te  Te107  1  0.09776699  0.93104795  0.89556618  1
  Te  Te108  1  0.41739714  0.25793349  0.22293161  1
  Te  Te109  1  0.41035129  0.28829279  0.55562620  1
  Te  Te110  1  0.44050128  0.22559465  0.95752768  1
  Te  Te111  1  0.44524924  0.56100647  0.25423149  1
  Te  Te112  1  0.38988236  0.55173800  0.57977954  1
  Te  Te113  1  0.39117721  0.57009311  0.95037863  1
  Te  Te114  1  0.40834134  0.94998242  0.22660096  1
  Te  Te115  1  0.39946589  0.93215250  0.59127052  1
  Te  Te116  1  0.39029447  0.91587231  0.89971013  1
  Te  Te117  1  0.76929570  0.23015912  0.26375186  1
  Te  Te118  1  0.73873763  0.23829623  0.57648669  1
  Te  Te119  1  0.74926952  0.24841901  0.91037570  1
  Te  Te120  1  0.74174193  0.54061978  0.25230680  1
  Te  Te121  1  0.76903533  0.59551218  0.58017478  1
  Te  Te122  1  0.74331855  0.57197153  0.91301531  1
  Te  Te123  1  0.75092311  0.92278501  0.25122492  1
  Te  Te124  1  0.75073775  0.90721498  0.56756639  1
  Te  Te125  1  0.77530961  0.93677069  0.88429057  1
  Te  Te126  1  0.27649641  0.28926335  0.06819367  1
  Te  Te127  1  0.22089790  0.25263887  0.40042397  1
  Te  Te128  1  0.27360091  0.27093277  0.73875232  1
  Te  Te129  1  0.27211034  0.58726433  0.07362253  1
  Te  Te130  1  0.25674941  0.60685900  0.41133449  1
  Te  Te131  1  0.24393805  0.56503932  0.74334282  1
  Te  Te132  1  0.24687344  0.92943686  0.07806512  1
  Te  Te133  1  0.23625798  0.93811858  0.40961138  1
  Te  Te134  1  0.28469511  0.93026216  0.78503574  1
  Te  Te135  1  0.56079825  0.22565774  0.06229312  1
  Te  Te136  1  0.58494590  0.31381154  0.39334208  1
  Te  Te137  1  0.56959555  0.25579168  0.75852632  1
  Te  Te138  1  0.57851187  0.55009360  0.08611408  1
  Te  Te139  1  0.58969131  0.57897450  0.43105047  1
  Te  Te140  1  0.55469973  0.59147729  0.77030140  1
  Te  Te141  1  0.57987779  0.92018893  0.08403915  1
  Te  Te142  1  0.58960799  0.91715633  0.41216239  1
  Te  Te143  1  0.58124436  0.92658592  0.74713582  1
  Te  Te144  1  0.90562762  0.25743961  0.08795143  1
  Te  Te145  1  0.94225665  0.25371751  0.41163870  1
  Te  Te146  1  0.90529469  0.27778884  0.76447101  1
  Te  Te147  1  0.91126284  0.57336021  0.07970862  1
  Te  Te148  1  0.89599646  0.56762834  0.38879399  1
  Te  Te149  1  0.92620941  0.56295594  0.75574452  1
  Te  Te150  1  0.90704655  0.91096506  0.07765516  1
  Te  Te151  1  0.90901508  0.93728286  0.42222206  1
  Te  Te152  1  0.93102288  0.91521349  0.73945137  1
  Te  Te153  1  0.27863592  0.11969451  0.21315838  1
  Te  Te154  1  0.25128800  0.07844628  0.58392352  1
  Te  Te155  1  0.25921971  0.09554715  0.92685479  1
  Te  Te156  1  0.25278616  0.43847217  0.23969049  1
  Te  Te157  1  0.20998409  0.37511744  0.62615429  1
  Te  Te158  1  0.25156753  0.38341988  0.93117675  1
  Te  Te159  1  0.25182706  0.76124827  0.24965852  1
  Te  Te160  1  0.25637959  0.75248760  0.58574049  1
  Te  Te161  1  0.26325842  0.74480229  0.90613404  1
  Te  Te162  1  0.57750819  0.08619763  0.25316475  1
  Te  Te163  1  0.57531086  0.10412288  0.56205514  1
  Te  Te164  1  0.58990841  0.07554959  0.91915525  1
  Te  Te165  1  0.61313226  0.38356247  0.20286744  1
  Te  Te166  1  0.57442810  0.41858274  0.58898511  1
  Te  Te167  1  0.56597546  0.41706868  0.91385707  1
  Te  Te168  1  0.56179241  0.75674760  0.25550219  1
  Te  Te169  1  0.57436598  0.75183243  0.60639865  1
  Te  Te170  1  0.57472801  0.75169930  0.92664070  1
  Te  Te171  1  0.91213936  0.10127638  0.27648467  1
  Te  Te172  1  0.92415032  0.07242477  0.57438791  1
  Te  Te173  1  0.93097941  0.09389691  0.89897264  1
  Te  Te174  1  0.90350884  0.34331585  0.28862807  1
  Te  Te175  1  0.93539648  0.41433357  0.58985477  1
  Te  Te176  1  0.91614203  0.40195872  0.90170770  1
  Te  Te177  1  0.92907911  0.75860118  0.23069511  1
  Te  Te178  1  0.93139563  0.74346680  0.55271974  1
  Te  Te179  1  0.91505357  0.74709113  0.92566143  1
