# generated using pymatgen
data_In2Te3
_symmetry_space_group_name_H-M   'P 1'
_cell_length_a   18.81418998
_cell_length_b   18.81871256
_cell_length_c   18.81217579
_cell_angle_alpha   89.92387117
_cell_angle_beta   90.07924811
_cell_angle_gamma   90.08301913
_symmetry_Int_Tables_number   1
_chemical_formula_structural   In2Te3
_chemical_formula_sum   'In72 Te108'
_cell_volume   6660.59778414
_cell_formula_units_Z   36
loop_
 _symmetry_equiv_pos_site_id
 _symmetry_equiv_pos_as_xyz
  1  'x, y, z'
loop_
 _atom_site_type_symbol
 _atom_site_label
 _atom_site_symmetry_multiplicity
 _atom_site_fract_x
 _atom_site_fract_y
 _atom_site_fract_z
 _atom_site_occupancy
  In  In0  1  0.32241472  0.67478830  0.34162725  1
  In  In1  1  -0.01104749  0.32911033  0.35097384  1
  In  In2  1  0.35259497  0.65624451  0.66013617  1
  In  In3  1  0.83305123  0.66776024  0.16747512  1
  In  In4  1  -0.02570525  0.66119505  0.01214546  1
  In  In5  1  0.18571647  0.65159826  0.81612088  1
  In  In6  1  -0.01668663  0.48952674  0.82819757  1
  In  In7  1  -0.00561394  0.67254147  0.31264746  1
  In  In8  1  0.01739047  0.17633736  0.48762375  1
  In  In9  1  0.53059075  0.31282700  0.16246203  1
  In  In10  1  0.82967758  0.34173575  0.84434161  1
  In  In11  1  0.17106982  0.32567511  0.15917660  1
  In  In12  1  0.65358694  0.84052218  0.48878920  1
  In  In13  1  0.32680196  0.00674690  0.69293020  1
  In  In14  1  0.16879133  -0.00514437  0.17372258  1
  In  In15  1  0.83731300  -0.00225204  0.15511582  1
  In  In16  1  0.81739129  0.47601236  0.33054096  1
  In  In17  1  -0.00004074  0.66330057  0.65756687  1
  In  In18  1  0.32755978  0.82787218  0.50548584  1
  In  In19  1  0.65004192  0.16844816  0.83533647  1
  In  In20  1  0.79876857  0.66256021  0.49286373  1
  In  In21  1  0.01286831  0.84293839  0.85045829  1
  In  In22  1  -0.01134630  0.16359784  0.17308989  1
  In  In23  1  0.66377613  0.51866206  0.84239112  1
  In  In24  1  0.54183172  0.64192144  0.49732130  1
  In  In25  1  0.34318018  0.17344091  0.84210995  1
  In  In26  1  0.82371656  -0.00656901  0.49116838  1
  In  In27  1  0.49813180  0.49816357  0.66743404  1
  In  In28  1  0.49939153  0.66934210  0.16890363  1
  In  In29  1  0.84160227  -0.01607439  0.84272334  1
  In  In30  1  0.81928385  0.16097071  0.63932141  1
  In  In31  1  0.48916291  0.82551975  0.67358448  1
  In  In32  1  0.01329979  -0.00902227  0.68429205  1
  In  In33  1  0.82692430  0.82526825  0.00751994  1
  In  In34  1  0.01253075  0.32807615  0.66497986  1
  In  In35  1  0.36367912  0.66665424  -0.01134095  1
  In  In36  1  0.52290578  0.82080461  -0.01108371  1
  In  In37  1  0.33148764  0.83853362  0.82604240  1
  In  In38  1  0.15432198  0.00137295  0.49172397  1
  In  In39  1  0.81990320  0.49805860  0.66118206  1
  In  In40  1  0.51761254  0.01198392  0.48843348  1
  In  In41  1  0.00723535  0.84334671  0.17180127  1
  In  In42  1  0.80915517  0.33507557  0.46875637  1
  In  In43  1  0.20192655  0.32911895  0.83030645  1
  In  In44  1  0.01027895  0.50488664  0.50096719  1
  In  In45  1  0.18604805  0.14639088  -0.00331446  1
  In  In46  1  0.17020416  0.66711713  0.18822374  1
  In  In47  1  0.47614750  0.84451827  0.31796998  1
  In  In48  1  0.35110113  0.17693263  0.49597839  1
  In  In49  1  0.80567912  0.34172828  0.16307913  1
  In  In50  1  0.34516217  0.50393298  0.17125162  1
  In  In51  1  0.49380514  0.33493041  0.82450414  1
  In  In52  1  0.67191915  0.17115840  0.48329207  1
  In  In53  1  0.32117772  0.00440850  0.32760515  1
  In  In54  1  0.16906323  0.86661085  0.00419509  1
  In  In55  1  0.65255740  0.00316040  0.65134887  1
  In  In56  1  0.50540517  -0.00684983  0.84068091  1
  In  In57  1  0.34057292  0.32811964  0.33363267  1
  In  In58  1  0.01380743  0.15823415  0.82311297  1
  In  In59  1  -0.00978335  0.34962288  -0.01345192  1
  In  In60  1  0.34604011  0.14751710  0.14015202  1
  In  In61  1  0.81006605  0.14260310  0.00569929  1
  In  In62  1  0.66258173  0.00956199  -0.00906046  1
  In  In63  1  0.20367142  0.34735154  0.52872000  1
  In  In64  1  0.66527220  0.83565137  0.16355297  1
  In  In65  1  0.66648553  0.33339049  0.33197153  1
  In  In66  1  0.49295574  0.49689799  -0.00745770  1
  In  In67  1  -0.01342750  0.82854568  0.49523422  1
  In  In68  1  0.47895663  0.34904472  0.51851197  1
  In  In69  1  0.17591198  0.48673534  -0.02001596  1
  In  In70  1  0.65724770  0.49857640  0.17657968  1
  In  In71  1  0.18128741  0.66684045  0.50457916  1
  Te  Te72  1  0.07936320  0.08059217  0.08203067  1
  Te  Te73  1  0.07743812  0.08086316  0.39354903  1
  Te  Te74  1  0.11111555  0.08647245  0.74093055  1
  Te  Te75  1  0.08174420  0.42495901  0.08297132  1
  Te  Te76  1  0.09678853  0.40513681  0.42814266  1
  Te  Te77  1  0.09445802  0.41678360  0.75587864  1
  Te  Te78  1  0.08352283  0.74872046  0.07669013  1
  Te  Te79  1  0.08482571  0.74417431  0.41318631  1
  Te  Te80  1  0.08465602  0.74688468  0.75280336  1
  Te  Te81  1  0.47612624  0.10779901  0.07983334  1
  Te  Te82  1  0.42774498  0.09229051  0.39577689  1
  Te  Te83  1  0.43979260  0.09013333  0.74450120  1
  Te  Te84  1  0.42461716  0.40331458  0.09150382  1
  Te  Te85  1  0.40285910  0.42981936  0.42060658  1
  Te  Te86  1  0.39497356  0.40428422  0.72746627  1
  Te  Te87  1  0.41432632  0.76637557  0.08994870  1
  Te  Te88  1  0.43730954  0.75006537  0.43555946  1
  Te  Te89  1  0.42470026  0.73101226  0.77387747  1
  Te  Te90  1  0.71356907  0.09275532  0.11363631  1
  Te  Te91  1  0.73528820  0.06827724  0.39463668  1
  Te  Te92  1  0.75456578  0.07841514  0.75602333  1
  Te  Te93  1  0.72861506  0.42538068  0.07048657  1
  Te  Te94  1  0.70847993  0.45028201  0.44057910  1
  Te  Te95  1  0.73293663  0.41120097  0.75135988  1
  Te  Te96  1  0.72919500  0.72955795  0.07406785  1
  Te  Te97  1  0.74695195  0.76646742  0.40282636  1
  Te  Te98  1  0.69915818  0.69783517  0.79701039  1
  Te  Te99  1  0.08209881  0.25009169  0.25741486  1
  Te  Te100  1  0.10876223  0.23821961  0.59272250  1
  Te  Te101  1  0.08972552  0.25577215  0.91912262  1
  Te  Te102  1  0.08297894  0.57066978  0.25544081  1
  Te  Te103  1  0.10455687  0.57014103  0.59913605  1
  Te  Te104  1  0.07627481  0.58510187  0.91221664  1
  Te  Te105  1  0.08168000  0.92291013  0.27028864  1
  Te  Te106  1  0.08728333  0.90092077  0.58535470  1
  Te  Te107  1  0.09414977  0.95067191  0.90909980  1
  Te  Te108  1  0.42161448  0.23873319  0.24129634  1
  Te  Te109  1  0.39311235  0.26478761  0.60908546  1
  Te  Te110  1  0.42181514  0.26126853  0.93162224  1
  Te  Te111  1  0.42583232  0.58474275  0.27173681  1
  Te  Te112  1  0.41790147  0.57251028  0.55246036  1
  Te  Te113  1  0.40744395  0.56505880  0.89212194  1
  Te  Te114  1  0.41361505  0.94360288  0.22854524  1
  Te  Te115  1  0.42249544  0.92708176  0.57780965  1
  Te  Te116  1  0.41310615  0.91325680  0.93037992  1
  Te  Te117  1  0.75889013  0.23773742  0.25995933  1
  Te  Te118  1  0.73270904  0.27098315  0.58707654  1
  Te  Te119  1  0.73806154  0.25272458  0.92852920  1
  Te  Te120  1  0.74045989  0.59270324  0.26482124  1
  Te  Te121  1  0.72581962  0.59526967  0.60241955  1
  Te  Te122  1  0.74904016  0.61689307  0.91343029  1
  Te  Te123  1  0.75211089  0.91959064  0.24803419  1
  Te  Te124  1  0.75119702  0.90573334  0.59298933  1
  Te  Te125  1  0.73356391  0.90055488  0.91108596  1
  Te  Te126  1  0.26642973  0.25699450  0.06366291  1
  Te  Te127  1  0.24056347  0.24754883  0.41810745  1
  Te  Te128  1  0.26612233  0.23902030  0.73169288  1
  Te  Te129  1  0.25574633  0.58637654  0.07661404  1
  Te  Te130  1  0.24875057  0.57122898  0.41616693  1
  Te  Te131  1  0.26468068  0.55509984  0.73442995  1
  Te  Te132  1  0.27164542  0.93217759  0.08681857  1
  Te  Te133  1  0.23969942  0.90228195  0.40816663  1
  Te  Te134  1  0.23026775  0.91088285  0.74754365  1
  Te  Te135  1  0.60396158  0.20785537  0.08920295  1
  Te  Te136  1  0.56055252  0.25555557  0.41589637  1
  Te  Te137  1  0.58193180  0.25300746  0.73702578  1
  Te  Te138  1  0.58394504  0.58796813  0.07378913  1
  Te  Te139  1  0.61979135  0.57260685  0.39507697  1
  Te  Te140  1  0.57973688  0.59890908  0.74413081  1
  Te  Te141  1  0.57267210  0.92839324  0.08664944  1
  Te  Te142  1  0.58732242  0.93082812  0.38257572  1
  Te  Te143  1  0.59345373  0.90499960  0.75382705  1
  Te  Te144  1  0.90752643  0.25189238  0.07224005  1
  Te  Te145  1  0.89409361  0.22406472  0.40879844  1
  Te  Te146  1  0.90848178  0.24865801  0.74889486  1
  Te  Te147  1  0.91156804  0.56286957  0.10134753  1
  Te  Te148  1  0.91026779  0.57722185  0.41271910  1
  Te  Te149  1  0.90142759  0.59174135  0.75090423  1
  Te  Te150  1  0.93137521  0.92044940  0.06347719  1
  Te  Te151  1  0.92181411  0.92599552  0.40480094  1
  Te  Te152  1  0.90980711  0.89477103  0.74187588  1
  Te  Te153  1  0.24329435  0.10817632  0.24610296  1
  Te  Te154  1  0.26436264  0.07347273  0.57028596  1
  Te  Te155  1  0.27646334  0.06353825  0.91686760  1
  Te  Te156  1  0.24615625  0.42053962  0.25194648  1
  Te  Te157  1  0.27575790  0.43215538  0.62857256  1
  Te  Te158  1  0.28732645  0.41869749  0.91283942  1
  Te  Te159  1  0.26073975  0.76703706  0.24512856  1
  Te  Te160  1  0.24695904  0.75593520  0.61138715  1
  Te  Te161  1  0.24196791  0.74773258  0.92206842  1
  Te  Te162  1  0.62769931  0.16166967  0.30986875  1
  Te  Te163  1  0.57187592  0.11404025  0.58770412  1
  Te  Te164  1  0.54694941  0.10721507  0.93734370  1
  Te  Te165  1  0.56034856  0.42160250  0.26520743  1
  Te  Te166  1  0.59174641  0.42060288  0.58358125  1
  Te  Te167  1  0.59110808  0.40646364  0.92103104  1
  Te  Te168  1  0.58513484  0.75089105  0.26357782  1
  Te  Te169  1  0.59421309  0.74723728  0.59524844  1
  Te  Te170  1  0.59043368  0.72114451  0.90612543  1
  Te  Te171  1  0.91464433  0.07013412  0.25920144  1
  Te  Te172  1  0.93151485  0.07612460  0.58081612  1
  Te  Te173  1  0.92488260  0.08287687  0.92236824  1
  Te  Te174  1  0.92108756  0.41047380  0.24103579  1
  Te  Te175  1  0.91565286  0.40211581  0.57137843  1
  Te  Te176  1  0.88463807  0.44909587  0.93761084  1
  Te  Te177  1  0.89782092  0.77470882  0.25384464  1
  Te  Te178  1  0.89532721  0.74433251  0.58378968  1
  Te  Te179  1  0.90706319  0.74546061  0.90460851  1
