# generated using pymatgen
data_In2Te3
_symmetry_space_group_name_H-M   'P 1'
_cell_length_a   18.76376048
_cell_length_b   18.76501038
_cell_length_c   18.76659498
_cell_angle_alpha   89.98584415
_cell_angle_beta   89.99464940
_cell_angle_gamma   90.05545390
_symmetry_Int_Tables_number   1
_chemical_formula_structural   In2Te3
_chemical_formula_sum   'In72 Te108'
_cell_volume   6607.75530478
_cell_formula_units_Z   36
loop_
 _symmetry_equiv_pos_site_id
 _symmetry_equiv_pos_as_xyz
  1  'x, y, z'
loop_
 _atom_site_type_symbol
 _atom_site_label
 _atom_site_symmetry_multiplicity
 _atom_site_fract_x
 _atom_site_fract_y
 _atom_site_fract_z
 _atom_site_occupancy
  In  In0  1  0.80738832  0.36389648  0.80673429  1
  In  In1  1  0.68991846  0.15321842  0.48988005  1
  In  In2  1  0.35127473  -0.01124200  0.66883398  1
  In  In3  1  -0.03104959  0.18956629  0.84811358  1
  In  In4  1  -0.01959203  0.66734326  0.66881967  1
  In  In5  1  0.01627553  0.81943477  0.16499110  1
  In  In6  1  -0.01951615  -0.03010206  0.31616524  1
  In  In7  1  0.35032993  0.15630858  0.86638755  1
  In  In8  1  0.84727727  0.65235848  0.15790153  1
  In  In9  1  0.67964612  0.65851264  0.65173312  1
  In  In10  1  0.51850150  0.66505178  0.50673223  1
  In  In11  1  0.33931826  0.33765898  0.68044746  1
  In  In12  1  0.50949195  0.32142145  0.82908364  1
  In  In13  1  0.14751475  0.63293097  0.87906295  1
  In  In14  1  0.66188422  0.82327895  0.49257053  1
  In  In15  1  -0.01647087  0.35476122  0.66541743  1
  In  In16  1  0.82733109  0.83745166  0.66639545  1
  In  In17  1  0.49331071  0.67795347  0.16192396  1
  In  In18  1  0.13739441  0.17353391  0.67008503  1
  In  In19  1  0.82028450  0.00013931  0.16754520  1
  In  In20  1  0.18191365  0.82490239  0.00636226  1
  In  In21  1  0.16156579  -0.02503971  0.14274393  1
  In  In22  1  -0.01188309  0.13178433  0.17120601  1
  In  In23  1  0.65137030  -0.00398056  0.69030304  1
  In  In24  1  0.33759710  0.67152269  0.01583449  1
  In  In25  1  0.66100392  0.15555244  0.15505048  1
  In  In26  1  0.85759780  0.52994289  0.35706411  1
  In  In27  1  0.82098246  0.16640832  0.01783936  1
  In  In28  1  0.33412634  0.17896430  0.48318876  1
  In  In29  1  0.65371802  0.33548529  0.32353554  1
  In  In30  1  -0.00058282  0.49974010  0.16041190  1
  In  In31  1  0.66364851  0.82463321  0.16487684  1
  In  In32  1  0.00845202  0.81657002  0.48842240  1
  In  In33  1  0.33218769  0.66665549  0.30478774  1
  In  In34  1  0.50109419  0.17974957  0.66243828  1
  In  In35  1  -0.00700278  0.35690158  0.34842052  1
  In  In36  1  0.78491413  0.34592061  0.15161389  1
  In  In37  1  -0.03330892  -0.00207335  0.65547254  1
  In  In38  1  0.34267538  0.50863876  0.49719915  1
  In  In39  1  -0.00703667  0.82687745  0.81831625  1
  In  In40  1  0.66866715  0.34621190  0.01256946  1
  In  In41  1  0.18780191  0.01450916  0.82021679  1
  In  In42  1  0.66078842  0.49698378  0.51715803  1
  In  In43  1  0.01062640  0.00880293  -0.00171423  1
  In  In44  1  0.17175776  0.34686630  0.83497298  1
  In  In45  1  0.53592245  0.69196558  0.83087587  1
  In  In46  1  0.81166029  0.63885924  0.84779415  1
  In  In47  1  0.33810549  -0.01725594  0.34055233  1
  In  In48  1  0.34524261  0.35268001  0.34444781  1
  In  In49  1  0.33881068  0.49182185  0.83489419  1
  In  In50  1  0.34704532  0.68084425  0.66783791  1
  In  In51  1  0.82955455  0.34138953  0.52059932  1
  In  In52  1  0.18789158  0.83516166  0.67387988  1
  In  In53  1  -0.01446906  0.16435915  0.51873512  1
  In  In54  1  0.33452669  0.16132116  0.14646607  1
  In  In55  1  0.81300940  0.84501835  -0.02715166  1
  In  In56  1  0.51291511  0.83517267  0.33409939  1
  In  In57  1  0.50191734  0.49585392  0.00041078  1
  In  In58  1  0.82341457  0.82457409  0.35836519  1
  In  In59  1  0.50937636  0.16024336  0.35449360  1
  In  In60  1  0.15664600  0.51552356  0.65506205  1
  In  In61  1  0.15780368  0.49165425  0.33464768  1
  In  In62  1  0.50586744  0.33082580  0.16137695  1
  In  In63  1  0.18092182  0.00186632  0.49152360  1
  In  In64  1  0.34220499  0.83732503  0.52485798  1
  In  In65  1  0.64460335  0.13285111  0.85039565  1
  In  In66  1  0.17865948  0.65885527  0.15746700  1
  In  In67  1  -0.00514236  0.34048126  -0.01350211  1
  In  In68  1  0.16808509  0.16974831  0.33457983  1
  In  In69  1  0.66788108  0.50053871  0.14741300  1
  In  In70  1  0.50939036  -0.00797097  0.15566925  1
  In  In71  1  0.17531940  0.32866087  0.16874057  1
  Te  Te72  1  0.10345351  0.10177214  0.07712133  1
  Te  Te73  1  0.07320338  0.07777547  0.41335692  1
  Te  Te74  1  0.05961521  0.07786028  0.76092300  1
  Te  Te75  1  0.09505037  0.41938311  0.07294567  1
  Te  Te76  1  0.07670710  0.43071557  0.44352697  1
  Te  Te77  1  0.07547929  0.43587543  0.75735758  1
  Te  Te78  1  0.07763639  0.72812545  0.06164628  1
  Te  Te79  1  0.06782630  0.72442022  0.39117120  1
  Te  Te80  1  0.09683922  0.73664986  0.75279157  1
  Te  Te81  1  0.42989787  0.08120417  0.06434100  1
  Te  Te82  1  0.42291008  0.06337536  0.43830636  1
  Te  Te83  1  0.43432418  0.08122639  0.76038590  1
  Te  Te84  1  0.41166655  0.41255065  0.08242618  1
  Te  Te85  1  0.44288889  0.42165955  0.42996898  1
  Te  Te86  1  0.44293854  0.43052643  0.74119549  1
  Te  Te87  1  0.43447037  0.77448837  0.06276986  1
  Te  Te88  1  0.41558481  0.74410241  0.42068532  1
  Te  Te89  1  0.42925842  0.76646665  0.75578658  1
  Te  Te90  1  0.72523727  0.05259743  0.06045412  1
  Te  Te91  1  0.76725881  0.08625292  0.38567246  1
  Te  Te92  1  0.75056473  0.08036475  0.76260442  1
  Te  Te93  1  0.78065859  0.45729425  0.04100684  1
  Te  Te94  1  0.75664783  0.41874715  0.40303408  1
  Te  Te95  1  0.71476546  0.45583607  0.72769794  1
  Te  Te96  1  0.75670185  0.74379182  0.07394527  1
  Te  Te97  1  0.74194580  0.71961279  0.42296251  1
  Te  Te98  1  0.74649676  0.74802543  0.75779974  1
  Te  Te99  1  0.06814147  0.25125527  0.25137090  1
  Te  Te100  1  0.07928015  0.27401151  0.57422913  1
  Te  Te101  1  0.09323565  0.24140403  0.91758629  1
  Te  Te102  1  0.07650678  0.59368224  0.25265748  1
  Te  Te103  1  0.06695898  0.59641342  0.56678743  1
  Te  Te104  1  0.04008728  0.54849450  0.93226051  1
  Te  Te105  1  0.10344131  0.89870970  0.26312559  1
  Te  Te106  1  0.08604130  0.91943661  0.59394071  1
  Te  Te107  1  0.08750891  0.91007354  0.90916426  1
  Te  Te108  1  0.41598131  0.23766523  0.25970271  1
  Te  Te109  1  0.42149195  0.27099092  0.56857975  1
  Te  Te110  1  0.41408025  0.27277788  0.93124527  1
  Te  Te111  1  0.42198869  0.57201975  0.23710152  1
  Te  Te112  1  0.43502198  0.57630198  0.60015238  1
  Te  Te113  1  0.42832879  0.59769298  0.90546760  1
  Te  Te114  1  0.41408578  0.90141789  0.23739891  1
  Te  Te115  1  0.45047820  0.91161714  0.59154575  1
  Te  Te116  1  0.46426052  0.95842908  0.87853277  1
  Te  Te117  1  0.74702632  0.23710604  0.25287666  1
  Te  Te118  1  0.73605548  0.25203029  0.59227345  1
  Te  Te119  1  0.75647264  0.26056787  0.91648775  1
  Te  Te120  1  0.75394340  0.57591302  0.25118684  1
  Te  Te121  1  0.77753950  0.57417640  0.57456341  1
  Te  Te122  1  0.72304935  0.56338466  0.94002805  1
  Te  Te123  1  0.73951160  0.91373402  0.26337243  1
  Te  Te124  1  0.73740243  0.92494483  0.58187658  1
  Te  Te125  1  0.70414943  0.90637025  0.89178132  1
  Te  Te126  1  0.25600567  0.25708152  0.06748508  1
  Te  Te127  1  0.23328257  0.27568213  0.42124128  1
  Te  Te128  1  0.25484401  0.23379395  0.75575653  1
  Te  Te129  1  0.25441928  0.56405503  0.07272054  1
  Te  Te130  1  0.24869963  0.59064870  0.40999067  1
  Te  Te131  1  0.25017363  0.58827649  0.75417565  1
  Te  Te132  1  0.27522628  0.92579741  0.06175488  1
  Te  Te133  1  0.24353615  0.88758688  0.41521184  1
  Te  Te134  1  0.28104998  0.90175219  0.77488053  1
  Te  Te135  1  0.57257200  0.23689764  0.06143455  1
  Te  Te136  1  0.58504225  0.26206981  0.43694837  1
  Te  Te137  1  0.61213313  0.24286508  0.74793759  1
  Te  Te138  1  0.59006624  0.60407376  0.06501622  1
  Te  Te139  1  0.58950395  0.57560528  0.41365533  1
  Te  Te140  1  0.60761245  0.57874798  0.75861255  1
  Te  Te141  1  0.56838177  0.88527404  0.06508644  1
  Te  Te142  1  0.58840723  0.92903959  0.41787137  1
  Te  Te143  1  0.57724724  0.90531946  0.79067488  1
  Te  Te144  1  0.91824216  0.25488905  0.09597077  1
  Te  Te145  1  0.90737159  0.25313378  0.42035819  1
  Te  Te146  1  0.89227279  0.25295703  0.73398591  1
  Te  Te147  1  0.93544194  0.58635955  0.05462222  1
  Te  Te148  1  0.96568178  0.60962235  0.42300782  1
  Te  Te149  1  0.89922845  0.57040565  0.74761382  1
  Te  Te150  1  0.91897879  0.91357190  0.08460788  1
  Te  Te151  1  0.90785290  0.92371675  0.44103136  1
  Te  Te152  1  0.89171245  0.92981857  0.77050160  1
  Te  Te153  1  0.25005047  0.07301855  0.25006198  1
  Te  Te154  1  0.25162791  0.09287508  0.59306912  1
  Te  Te155  1  0.25945020  0.06327115  0.93980755  1
  Te  Te156  1  0.26348746  0.43031293  0.24177101  1
  Te  Te157  1  0.25142632  0.41873321  0.58491823  1
  Te  Te158  1  0.25486869  0.41968462  0.93298182  1
  Te  Te159  1  0.25572323  0.76526787  0.22612451  1
  Te  Te160  1  0.23787011  0.73371987  0.57219633  1
  Te  Te161  1  0.25546728  0.73905024  0.90419675  1
  Te  Te162  1  0.58964587  0.07051695  0.26064663  1
  Te  Te163  1  0.58308880  0.08133697  0.58117717  1
  Te  Te164  1  0.54305970  0.07062207  0.93996660  1
  Te  Te165  1  0.56952557  0.43846536  0.24892573  1
  Te  Te166  1  0.61352125  0.40663556  0.62378785  1
  Te  Te167  1  0.59781973  0.42635886  0.90282523  1
  Te  Te168  1  0.59679353  0.72911770  0.26392053  1
  Te  Te169  1  0.57721710  0.76360568  0.60643051  1
  Te  Te170  1  0.61316181  0.78265578  0.92234664  1
  Te  Te171  1  0.88699612  0.09107708  0.28172673  1
  Te  Te172  1  0.87646842  0.08988689  0.58463123  1
  Te  Te173  1  0.89740369  0.07411425  0.91994152  1
  Te  Te174  1  0.89828172  0.41773999  0.24207694  1
  Te  Te175  1  0.89636738  0.45485260  0.59404941  1
  Te  Te176  1  0.92220631  0.42710282  0.88844597  1
  Te  Te177  1  0.91278250  0.75197887  0.25409968  1
  Te  Te178  1  0.89619007  0.74562730  0.56710306  1
  Te  Te179  1  0.91206394  0.74363412  0.91512578  1
