# generated using pymatgen
data_In2Te3
_symmetry_space_group_name_H-M   'P 1'
_cell_length_a   18.99128303
_cell_length_b   18.98915345
_cell_length_c   18.96977142
_cell_angle_alpha   90.22410741
_cell_angle_beta   89.90845845
_cell_angle_gamma   90.07202645
_symmetry_Int_Tables_number   1
_chemical_formula_structural   In2Te3
_chemical_formula_sum   'In72 Te108'
_cell_volume   6840.97166834
_cell_formula_units_Z   36
loop_
 _symmetry_equiv_pos_site_id
 _symmetry_equiv_pos_as_xyz
  1  'x, y, z'
loop_
 _atom_site_type_symbol
 _atom_site_label
 _atom_site_symmetry_multiplicity
 _atom_site_fract_x
 _atom_site_fract_y
 _atom_site_fract_z
 _atom_site_occupancy
  In  In0  1  0.50348116  0.74470778  0.31935065  1
  In  In1  1  0.84966770  0.84994340  0.00279642  1
  In  In2  1  0.32775573  0.34156219  0.01245095  1
  In  In3  1  0.81207116  0.83683547  0.67236902  1
  In  In4  1  0.00232210  0.67818588  0.68694586  1
  In  In5  1  0.01641223  -0.02214788  -0.01434729  1
  In  In6  1  0.85837796  0.84331065  0.32739315  1
  In  In7  1  0.83653897  0.34074496  0.47853566  1
  In  In8  1  0.02300558  0.50633788  0.86676692  1
  In  In9  1  0.32392731  0.34688979  0.33948485  1
  In  In10  1  0.65519457  0.80886634  0.50597635  1
  In  In11  1  0.02719795  0.00536231  0.63873296  1
  In  In12  1  0.17181706  0.35880564  0.17198163  1
  In  In13  1  0.21771907  0.67760442  0.85315802  1
  In  In14  1  0.66122063  0.01661088  0.31354549  1
  In  In15  1  0.15982927  0.32877325  0.83197197  1
  In  In16  1  0.34005287  0.81350339  0.19472354  1
  In  In17  1  0.69036635  0.18042883  0.46850954  1
  In  In18  1  0.81631242  0.68668846  0.82048357  1
  In  In19  1  0.33178402  0.52521295  0.84562825  1
  In  In20  1  0.81480916  0.18116087  0.01718533  1
  In  In21  1  0.01534385  0.16315221  0.83803160  1
  In  In22  1  0.48152616  0.35225335  0.52243886  1
  In  In23  1  0.18638178  0.00069557  0.17387160  1
  In  In24  1  0.30703763  0.31640923  0.67410216  1
  In  In25  1  0.84010968  0.47806539  0.35150525  1
  In  In26  1  0.64938749  0.51535877  0.19381840  1
  In  In27  1  0.32555773  0.01810543  0.68928891  1
  In  In28  1  0.14992001  0.17382263  0.65171755  1
  In  In29  1  0.63902191  0.50432632  0.81235543  1
  In  In30  1  0.31467044  -0.00778262  0.33816098  1
  In  In31  1  0.47506438  0.83874644  0.00551154  1
  In  In32  1  -0.00488150  0.34656048  0.32163755  1
  In  In33  1  0.01577184  0.80816290  0.48187527  1
  In  In34  1  0.81645350  0.49383780  0.02058880  1
  In  In35  1  0.44157326  0.00046816  0.14895293  1
  In  In36  1  0.81874428  0.65099643  0.49492966  1
  In  In37  1  0.49120557  0.31700646  0.84090318  1
  In  In38  1  0.65857638  0.66587626  0.00874137  1
  In  In39  1  0.50981504  -0.00543934  0.50352966  1
  In  In40  1  0.83564285  0.32540767  0.82674665  1
  In  In41  1  0.81229838  0.52603067  0.65648704  1
  In  In42  1  0.50348184  0.17337647  0.30891271  1
  In  In43  1  0.63027793  0.14603395  0.84749654  1
  In  In44  1  0.48027229  0.48567043  -0.01093650  1
  In  In45  1  0.87029245  0.17679818  0.34376081  1
  In  In46  1  0.03514943  0.84262453  0.84181472  1
  In  In47  1  0.65308172  0.83961027  0.82076497  1
  In  In48  1  0.00551206  0.48745304  0.49728221  1
  In  In49  1  0.47951044  0.51035976  0.66467336  1
  In  In50  1  0.48228297  0.82920892  0.67999527  1
  In  In51  1  0.18141431  0.16667331  -0.02080587  1
  In  In52  1  0.49342535  0.32828974  0.14905506  1
  In  In53  1  0.85398769  0.01401267  0.80968294  1
  In  In54  1  0.83498730  0.67981860  0.16305160  1
  In  In55  1  0.66630226  0.32347135  0.31026328  1
  In  In56  1  0.81796923  0.34491835  0.19851276  1
  In  In57  1  0.18776934  0.54812789  0.05939775  1
  In  In58  1  0.05098339  0.67358315  0.08608120  1
  In  In59  1  0.83860223  0.14965545  0.64721152  1
  In  In60  1  0.31063598  0.17683121  0.46571906  1
  In  In61  1  0.17785599  0.67194801  0.47311787  1
  In  In62  1  0.16666141  0.49754039  0.67742185  1
  In  In63  1  0.64761167  -0.03307723  0.00529468  1
  In  In64  1  0.64386888  -0.03161266  0.66520712  1
  In  In65  1  -0.01465542  0.16291567  0.15964194  1
  In  In66  1  0.33573508  0.83032428  0.47085079  1
  In  In67  1  0.19078311  -0.03132627  0.85752218  1
  In  In68  1  0.32430163  0.51351851  0.51396130  1
  In  In69  1  0.16009807  -0.01894805  0.47616627  1
  In  In70  1  0.84858104  0.01250104  0.18208849  1
  In  In71  1  0.49770945  0.14619864  0.67264096  1
  Te  Te72  1  0.08578036  0.08175195  0.07445655  1
  Te  Te73  1  0.08268697  0.05772596  0.38130204  1
  Te  Te74  1  0.09228832  0.05354855  0.76835310  1
  Te  Te75  1  0.09212205  0.43362224  0.07210543  1
  Te  Te76  1  0.09230375  0.43702175  0.38857906  1
  Te  Te77  1  0.06466390  0.41321369  0.75103150  1
  Te  Te78  1  0.12077858  0.78964370  0.15209825  1
  Te  Te79  1  0.07572849  0.72111550  0.38011192  1
  Te  Te80  1  0.11594998  0.74673597  0.75723861  1
  Te  Te81  1  0.44308592  0.11849475  0.06073031  1
  Te  Te82  1  0.42720005  0.08466391  0.41462325  1
  Te  Te83  1  0.41552322  0.09058645  0.77918025  1
  Te  Te84  1  0.39250005  0.44328698  0.10503773  1
  Te  Te85  1  0.41963639  0.43732613  0.41781429  1
  Te  Te86  1  0.39604855  0.40423774  0.75935861  1
  Te  Te87  1  0.42699928  0.73256684  0.10094270  1
  Te  Te88  1  0.37173388  0.70906212  0.38493953  1
  Te  Te89  1  0.37588920  0.78093335  0.77005483  1
  Te  Te90  1  0.74970559  0.05971372  0.07663451  1
  Te  Te91  1  0.77194572  0.07382121  0.40304065  1
  Te  Te92  1  0.73246415  0.07903401  0.74711292  1
  Te  Te93  1  0.71796023  0.39973321  0.09305935  1
  Te  Te94  1  0.71977993  0.41810291  0.41986655  1
  Te  Te95  1  0.74768056  0.42129753  0.74636083  1
  Te  Te96  1  0.74581981  0.76934130  0.07776217  1
  Te  Te97  1  0.75707210  0.75598746  0.40743808  1
  Te  Te98  1  0.71041013  0.73743647  0.72394889  1
  Te  Te99  1  0.07860571  0.25328994  0.23757645  1
  Te  Te100  1  0.06702545  0.24552775  0.56117057  1
  Te  Te101  1  0.07017354  0.26368083  0.93568124  1
  Te  Te102  1  0.09833200  0.56679521  0.17900222  1
  Te  Te103  1  0.07936999  0.58906695  0.59055379  1
  Te  Te104  1  0.10408215  0.61593137  0.93580338  1
  Te  Te105  1  0.11338226  0.90600145  0.26093620  1
  Te  Te106  1  0.10271220  0.88840640  0.58246148  1
  Te  Te107  1  0.12291469  0.87426809  0.96156745  1
  Te  Te108  1  0.39801337  0.25303790  0.24051563  1
  Te  Te109  1  0.40206366  0.23233544  0.58726201  1
  Te  Te110  1  0.42084826  0.24306862  0.94925048  1
  Te  Te111  1  0.43853484  0.61159123  0.28407882  1
  Te  Te112  1  0.43626590  0.60125880  0.55672260  1
  Te  Te113  1  0.44208330  0.60173514  0.90531360  1
  Te  Te114  1  0.42654067  0.91282358  0.27749297  1
  Te  Te115  1  0.40156251  0.92779170  0.58206521  1
  Te  Te116  1  0.38128750  0.91867777  0.92523402  1
  Te  Te117  1  0.75696064  0.21669750  0.25077761  1
  Te  Te118  1  0.75585813  0.25722960  0.58090171  1
  Te  Te119  1  0.73553740  0.24364350  0.90671385  1
  Te  Te120  1  0.77055995  0.57757520  0.25619660  1
  Te  Te121  1  0.71199908  0.58538467  0.56980734  1
  Te  Te122  1  0.74402957  0.58216155  0.90992742  1
  Te  Te123  1  0.75068045  0.91482841  0.24252446  1
  Te  Te124  1  0.74743877  0.92148188  0.56752117  1
  Te  Te125  1  0.75989981  0.91914185  0.89499617  1
  Te  Te126  1  0.24246614  0.24587473  0.09179406  1
  Te  Te127  1  0.21751609  0.27175337  0.40974556  1
  Te  Te128  1  0.23990247  0.21807268  0.76700361  1
  Te  Te129  1  0.29318238  0.65011345  0.07340892  1
  Te  Te130  1  0.22374968  0.54628991  0.40953041  1
  Te  Te131  1  0.26818837  0.59593213  0.72885360  1
  Te  Te132  1  0.30453507  0.93316850  0.10790530  1
  Te  Te133  1  0.21887903  0.87620179  0.37405662  1
  Te  Te134  1  0.25873407  0.89819526  0.74460045  1
  Te  Te135  1  0.62352594  0.27847643  0.10789023  1
  Te  Te136  1  0.56675186  0.25561454  0.42307913  1
  Te  Te137  1  0.58509921  0.24844749  0.74341728  1
  Te  Te138  1  0.56612352  0.57431079  0.08349913  1
  Te  Te139  1  0.58120587  0.62113835  0.36421014  1
  Te  Te140  1  0.54148565  0.60267063  0.76386487  1
  Te  Te141  1  0.56198588  0.90553299  0.11064307  1
  Te  Te142  1  0.59839715  0.91694024  0.41057869  1
  Te  Te143  1  0.54684072  0.93605026  0.77386376  1
  Te  Te144  1  0.90698083  0.27270311  0.09147715  1
  Te  Te145  1  0.95878461  0.25229980  0.44634163  1
  Te  Te146  1  0.92452838  0.23522998  0.74169850  1
  Te  Te147  1  0.91318994  0.60326673  0.05790755  1
  Te  Te148  1  0.92744989  0.58626683  0.41239936  1
  Te  Te149  1  0.92106135  0.58018209  0.77070170  1
  Te  Te150  1  0.93936453  0.91786985  0.10329126  1
  Te  Te151  1  0.93992784  0.91865782  0.42470371  1
  Te  Te152  1  0.93196893  0.90343586  0.74049614  1
  Te  Te153  1  0.25529903  0.09881162  0.25913425  1
  Te  Te154  1  0.24550129  0.08153774  0.56745073  1
  Te  Te155  1  0.27528603  0.06094937  0.93686710  1
  Te  Te156  1  0.27635661  0.44200234  0.23595425  1
  Te  Te157  1  0.23345467  0.40334420  0.57907523  1
  Te  Te158  1  0.24376366  0.42319249  0.91530132  1
  Te  Te159  1  0.23809997  0.70174907  0.21008385  1
  Te  Te160  1  0.26456618  0.74539491  0.56480344  1
  Te  Te161  1  0.30833656  0.78263293  0.91314406  1
  Te  Te162  1  0.57639365  0.08665225  0.21366515  1
  Te  Te163  1  0.60394201  0.09310393  0.57156577  1
  Te  Te164  1  0.55822851  0.07796145  0.96015160  1
  Te  Te165  1  0.55852267  0.41572295  0.26132117  1
  Te  Te166  1  0.57868789  0.41779102  0.60782193  1
  Te  Te167  1  0.58757708  0.40711377  0.91626272  1
  Te  Te168  1  0.61947873  0.69449649  0.23902776  1
  Te  Te169  1  0.53371030  0.74893663  0.56544928  1
  Te  Te170  1  0.57644876  0.75723904  0.91954051  1
  Te  Te171  1  0.96344987  0.06802305  0.28005509  1
  Te  Te172  1  0.92038536  0.06520871  0.56047708  1
  Te  Te173  1  0.91392688  0.08554018  0.93140472  1
  Te  Te174  1  0.92710984  0.44486510  0.22946411  1
  Te  Te175  1  0.90344792  0.42434430  0.58906370  1
  Te  Te176  1  0.90838791  0.41890837  0.92224701  1
  Te  Te177  1  0.93632381  0.75095005  0.24211980  1
  Te  Te178  1  0.90341632  0.74349976  0.59196876  1
  Te  Te179  1  0.92064762  0.76061438  0.90303069  1
