# generated using pymatgen
data_In2Te3
_symmetry_space_group_name_H-M   'P 1'
_cell_length_a   18.81773398
_cell_length_b   18.81151661
_cell_length_c   18.82406848
_cell_angle_alpha   89.97637880
_cell_angle_beta   89.95158264
_cell_angle_gamma   89.93700704
_symmetry_Int_Tables_number   1
_chemical_formula_structural   In2Te3
_chemical_formula_sum   'In72 Te108'
_cell_volume   6663.52720399
_cell_formula_units_Z   36
loop_
 _symmetry_equiv_pos_site_id
 _symmetry_equiv_pos_as_xyz
  1  'x, y, z'
loop_
 _atom_site_type_symbol
 _atom_site_label
 _atom_site_symmetry_multiplicity
 _atom_site_fract_x
 _atom_site_fract_y
 _atom_site_fract_z
 _atom_site_occupancy
  In  In0  1  0.65203657  0.65938625  0.67798945  1
  In  In1  1  -0.00039157  0.83327209  0.84159825  1
  In  In2  1  0.33615201  0.49584241  0.51093221  1
  In  In3  1  0.18076611  0.34596322  0.82561959  1
  In  In4  1  0.34505329  0.53791186  0.15305775  1
  In  In5  1  0.51411484  0.66803834  0.50508864  1
  In  In6  1  0.01988700  0.50682873  0.48692746  1
  In  In7  1  0.49266142  -0.01286378  0.50672616  1
  In  In8  1  0.32810374  0.33529568  0.34719621  1
  In  In9  1  0.66769875  0.00512149  0.00729664  1
  In  In10  1  0.67594444  0.12998008  0.17933958  1
  In  In11  1  0.51807897  -0.01911400  0.16649542  1
  In  In12  1  0.34134831  0.66537345  0.32907256  1
  In  In13  1  0.17753446  0.00259446  0.48618676  1
  In  In14  1  -0.00990396  0.15793752  0.84641156  1
  In  In15  1  0.67986878  -0.04122418  0.30854886  1
  In  In16  1  0.63986849  0.85792447  0.81621320  1
  In  In17  1  0.47852594  0.53136708  -0.01483623  1
  In  In18  1  0.31651658  0.82989146  0.49280201  1
  In  In19  1  0.66725468  0.33250316  0.68857881  1
  In  In20  1  0.81942421  0.33270135  0.46286364  1
  In  In21  1  0.67816337  0.34494447  0.00090911  1
  In  In22  1  0.67059874  0.68478138  -0.00961083  1
  In  In23  1  -0.02629206  -0.01095663  0.64600344  1
  In  In24  1  0.47981536  0.81413123  0.01423266  1
  In  In25  1  0.01104953  0.83548492  0.47377327  1
  In  In26  1  0.50282337  0.17586832  -0.00093354  1
  In  In27  1  0.34074773  0.33646895  0.66532957  1
  In  In28  1  0.00428361  0.66313359  0.01009328  1
  In  In29  1  -0.01485177  0.47633300  0.17985968  1
  In  In30  1  0.16102850  -0.00068795  0.84830020  1
  In  In31  1  0.83454045  0.16157342  0.33624970  1
  In  In32  1  -0.00027489  0.15169520  0.16347680  1
  In  In33  1  -0.01010000  0.70506429  0.30003647  1
  In  In34  1  0.00418128  0.32427218  0.64594423  1
  In  In35  1  0.65007729  0.69751144  0.31023403  1
  In  In36  1  0.65581966  0.82100478  0.51320891  1
  In  In37  1  0.17723589  0.67110669  0.14763203  1
  In  In38  1  0.83406229  0.83065078  0.01685355  1
  In  In39  1  0.16164541  -0.02559555  0.14995410  1
  In  In40  1  0.16840678  0.51901927  0.65837945  1
  In  In41  1  -0.00823613  0.53024622  0.83467441  1
  In  In42  1  0.50510885  0.33262755  0.84432109  1
  In  In43  1  0.49460045  0.50924374  0.68614958  1
  In  In44  1  0.84214999  0.00485019  0.51006798  1
  In  In45  1  0.00539656  0.32847887  0.01621991  1
  In  In46  1  0.00819133  -0.01735970  0.31487995  1
  In  In47  1  0.65168111  0.17119678  0.82446812  1
  In  In48  1  0.35262563  -0.01336482  0.33480912  1
  In  In49  1  0.65020907  0.15229974  0.51867906  1
  In  In50  1  0.67583078  0.51487912  0.15872612  1
  In  In51  1  0.19296160  0.82059710  0.67415089  1
  In  In52  1  0.84518078  0.66439852  0.49033100  1
  In  In53  1  0.82095374  0.14436287  0.67491504  1
  In  In54  1  0.67737599  0.33144325  0.33861068  1
  In  In55  1  0.31891718  0.34252638  0.00360212  1
  In  In56  1  0.68373017  0.47816988  0.48132651  1
  In  In57  1  0.17869392  0.49742834  0.32895144  1
  In  In58  1  0.20456560  0.69496747  0.83598076  1
  In  In59  1  0.84438114  0.49552440  0.68308154  1
  In  In60  1  0.16321864  0.17325781  0.66177755  1
  In  In61  1  0.17134979  0.17329646  0.33183332  1
  In  In62  1  0.34546921  0.01289061  0.68788992  1
  In  In63  1  -0.00216180  -0.01636867  -0.00763900  1
  In  In64  1  0.83564353  0.52270656  0.00884329  1
  In  In65  1  0.32418129  -0.01690408  -0.00679953  1
  In  In66  1  0.33243280  0.18170805  0.16732780  1
  In  In67  1  0.48110602  0.33688001  0.49903722  1
  In  In68  1  0.80839384  0.33802239  0.83972922  1
  In  In69  1  0.15480464  0.34000795  0.16046607  1
  In  In70  1  0.49853838  0.32870083  0.19142375  1
  In  In71  1  0.83077430  0.83122263  0.66939669  1
  Te  Te72  1  0.09223406  0.08047547  0.06528317  1
  Te  Te73  1  0.07287697  0.08190838  0.41028712  1
  Te  Te74  1  0.07382753  0.07279521  0.74141760  1
  Te  Te75  1  0.09095007  0.44237012  0.06894798  1
  Te  Te76  1  0.09407418  0.40710565  0.40780987  1
  Te  Te77  1  0.06945045  0.42232145  0.74397138  1
  Te  Te78  1  0.08251274  0.76621784  0.08090863  1
  Te  Te79  1  0.09028457  0.73429718  0.40355079  1
  Te  Te80  1  0.08263900  0.74651222  0.74914070  1
  Te  Te81  1  0.42337347  0.08277739  0.09245589  1
  Te  Te82  1  0.40972264  0.08233069  0.42976912  1
  Te  Te83  1  0.45313451  0.06598782  0.77378447  1
  Te  Te84  1  0.43444999  0.41217380  0.07998194  1
  Te  Te85  1  0.42611636  0.44017101  0.40134163  1
  Te  Te86  1  0.40371118  0.42408672  0.77362173  1
  Te  Te87  1  0.42712265  0.73870815  0.13377052  1
  Te  Te88  1  0.42860448  0.75744592  0.41692535  1
  Te  Te89  1  0.35145663  0.71983561  0.78750224  1
  Te  Te90  1  0.77331296  0.06548475  0.09074824  1
  Te  Te91  1  0.73407891  0.07293940  0.41670390  1
  Te  Te92  1  0.73641111  0.06577970  0.76317156  1
  Te  Te93  1  0.77381656  0.41325553  0.09644336  1
  Te  Te94  1  0.78644197  0.44810633  0.36427242  1
  Te  Te95  1  0.72746706  0.44671226  0.76873491  1
  Te  Te96  1  0.75211512  0.73935543  0.10552534  1
  Te  Te97  1  0.75211290  0.75712803  0.41409058  1
  Te  Te98  1  0.74029977  0.75279668  0.76103408  1
  Te  Te99  1  0.06976555  0.25587227  0.25284344  1
  Te  Te100  1  0.09404802  0.25057033  0.55625154  1
  Te  Te101  1  0.08755683  0.25351354  0.91059210  1
  Te  Te102  1  0.08887458  0.58225911  0.24040364  1
  Te  Te103  1  0.07120590  0.60216782  0.58623720  1
  Te  Te104  1  0.10099627  0.59967857  0.91075123  1
  Te  Te105  1  0.09166216  0.88369321  0.24487318  1
  Te  Te106  1  0.09589023  0.91708488  0.58714326  1
  Te  Te107  1  0.10602449  0.88735426  0.93587592  1
  Te  Te108  1  0.42210265  0.23143687  0.27967311  1
  Te  Te109  1  0.41600823  0.23716695  0.58478836  1
  Te  Te110  1  0.40011146  0.24598848  0.91388580  1
  Te  Te111  1  0.44103359  0.58343219  0.25368873  1
  Te  Te112  1  0.41155168  0.59845059  0.59440691  1
  Te  Te113  1  0.39179725  0.63523661  0.92019105  1
  Te  Te114  1  0.42508893  0.88995186  0.24287420  1
  Te  Te115  1  0.40216497  0.90149091  0.59587088  1
  Te  Te116  1  0.42765287  0.91122123  0.91338984  1
  Te  Te117  1  0.75541076  0.24753819  0.23769055  1
  Te  Te118  1  0.74918614  0.25676469  0.58343828  1
  Te  Te119  1  0.74920549  0.23025128  0.92959094  1
  Te  Te120  1  0.75162908  0.61220939  0.24197484  1
  Te  Te121  1  0.74611291  0.58532589  0.57907089  1
  Te  Te122  1  0.74736631  0.58579066  0.91102572  1
  Te  Te123  1  0.75550756  0.86702224  0.22007396  1
  Te  Te124  1  0.74019952  0.92334613  0.58962353  1
  Te  Te125  1  0.74302012  0.90654843  0.91718081  1
  Te  Te126  1  0.22866770  0.23924531  0.07232120  1
  Te  Te127  1  0.25310809  0.24273913  0.43293750  1
  Te  Te128  1  0.26332278  0.23767478  0.75619648  1
  Te  Te129  1  0.26319084  0.59880910  0.04776987  1
  Te  Te130  1  0.24888829  0.58921011  0.42707229  1
  Te  Te131  1  0.26632563  0.58218624  0.75022554  1
  Te  Te132  1  0.27197212  0.89139545  0.09672981  1
  Te  Te133  1  0.23443368  0.90336112  0.38699019  1
  Te  Te134  1  0.26289888  0.91476163  0.77061781  1
  Te  Te135  1  0.59306669  0.24998209  0.09665989  1
  Te  Te136  1  0.58112278  0.24816023  0.42255160  1
  Te  Te137  1  0.55286700  0.24223298  0.72960929  1
  Te  Te138  1  0.57615840  0.60027962  0.07924201  1
  Te  Te139  1  0.60140929  0.58711467  0.41109748  1
  Te  Te140  1  0.56455332  0.59728792  0.78039640  1
  Te  Te141  1  0.60015514  0.88935642  0.07892393  1
  Te  Te142  1  0.57959565  0.90334644  0.40980244  1
  Te  Te143  1  0.55228536  0.95187928  0.73801500  1
  Te  Te144  1  0.91123057  0.23991436  0.08388241  1
  Te  Te145  1  0.92817510  0.25030742  0.40816313  1
  Te  Te146  1  0.90745728  0.25873162  0.74904990  1
  Te  Te147  1  0.91431031  0.59658582  0.11497531  1
  Te  Te148  1  0.93364589  0.59277074  0.39093329  1
  Te  Te149  1  0.90887614  0.61167538  0.74468058  1
  Te  Te150  1  0.93871264  0.89772226  0.10155312  1
  Te  Te151  1  0.89958431  0.91258666  0.40523891  1
  Te  Te152  1  0.90378952  0.92596157  0.76510044  1
  Te  Te153  1  0.24891892  0.07539306  0.24231833  1
  Te  Te154  1  0.26107358  0.08508080  0.58210144  1
  Te  Te155  1  0.25747670  0.08843523  0.91389345  1
  Te  Te156  1  0.27156079  0.41406268  0.22559295  1
  Te  Te157  1  0.23506206  0.40563991  0.57937167  1
  Te  Te158  1  0.25190667  0.43848595  0.91486524  1
  Te  Te159  1  0.26344900  0.75336902  0.23755713  1
  Te  Te160  1  0.24723232  0.72736155  0.57418179  1
  Te  Te161  1  0.30548443  0.76942342  0.92795779  1
  Te  Te162  1  0.57493265  0.07267771  0.27444234  1
  Te  Te163  1  0.58375066  0.05480234  0.60806906  1
  Te  Te164  1  0.56708044  0.06983646  0.91267384  1
  Te  Te165  1  0.59099131  0.42842896  0.25706456  1
  Te  Te166  1  0.58346731  0.42267332  0.58669900  1
  Te  Te167  1  0.58518388  0.43504069  0.92352287  1
  Te  Te168  1  0.54071860  0.76746921  0.22966729  1
  Te  Te169  1  0.55893821  0.76446573  0.61669607  1
  Te  Te170  1  0.56743502  0.75366394  0.89925156  1
  Te  Te171  1  0.90122599  0.06216547  0.24068561  1
  Te  Te172  1  0.92880656  0.11447317  0.57090602  1
  Te  Te173  1  0.90066169  0.06946867  0.92065287  1
  Te  Te174  1  0.90516781  0.39869106  0.27401303  1
  Te  Te175  1  0.90434560  0.41968616  0.56586072  1
  Te  Te176  1  0.91628176  0.41619899  0.91450103  1
  Te  Te177  1  0.89846963  0.80203882  0.23394808  1
  Te  Te178  1  0.92775118  0.75771969  0.57868888  1
  Te  Te179  1  0.90748045  0.73905292  0.91821095  1
