# generated using pymatgen
data_In2Te3
_symmetry_space_group_name_H-M   'P 1'
_cell_length_a   18.95193533
_cell_length_b   18.97481047
_cell_length_c   18.94844223
_cell_angle_alpha   90.01262775
_cell_angle_beta   90.00367305
_cell_angle_gamma   89.91013813
_symmetry_Int_Tables_number   1
_chemical_formula_structural   In2Te3
_chemical_formula_sum   'In72 Te108'
_cell_volume   6814.02901770
_cell_formula_units_Z   36
loop_
 _symmetry_equiv_pos_site_id
 _symmetry_equiv_pos_as_xyz
  1  'x, y, z'
loop_
 _atom_site_type_symbol
 _atom_site_label
 _atom_site_symmetry_multiplicity
 _atom_site_fract_x
 _atom_site_fract_y
 _atom_site_fract_z
 _atom_site_occupancy
  In  In0  1  0.30940991  0.86788767  0.81539069  1
  In  In1  1  0.63422837  0.84018014  0.18084262  1
  In  In2  1  0.01883463  0.35388113  0.66662407  1
  In  In3  1  0.83657559  0.32512004  0.82798135  1
  In  In4  1  0.84910061  0.14635449  -0.00750259  1
  In  In5  1  0.83982415  0.00496039  0.16470540  1
  In  In6  1  0.00393708  0.15892831  0.50825068  1
  In  In7  1  0.01574635  0.84211380  0.17399097  1
  In  In8  1  0.18137595  0.31698773  0.82627068  1
  In  In9  1  0.00366550  0.85739253  0.78606541  1
  In  In10  1  0.48747554  0.49458226  0.33733231  1
  In  In11  1  0.82363969  0.00932542  0.53359233  1
  In  In12  1  0.36118101  0.66735151  -0.00644817  1
  In  In13  1  0.33174855  0.49895207  0.51009723  1
  In  In14  1  0.33217595  0.17359799  0.50630999  1
  In  In15  1  0.30466173  -0.01433024  0.35718398  1
  In  In16  1  0.87015601  0.63914041  0.81099923  1
  In  In17  1  0.16258048  0.00985021  0.16826742  1
  In  In18  1  0.48048100  0.85360746  -0.03217651  1
  In  In19  1  0.50909461  0.13176606  -0.04221018  1
  In  In20  1  0.01238091  0.84331509  0.51159520  1
  In  In21  1  0.50353582  0.17948312  0.31337605  1
  In  In22  1  0.48693991  0.64297281  0.49096457  1
  In  In23  1  0.83299441  0.65364038  0.15274631  1
  In  In24  1  0.48221159  0.33078527  0.15962306  1
  In  In25  1  0.83422560  0.16435533  0.65131769  1
  In  In26  1  0.50458900  0.65007960  0.15330314  1
  In  In27  1  0.00470555  0.13407126  0.82886977  1
  In  In28  1  -0.00458445  0.33981493  0.01491454  1
  In  In29  1  0.67606056  0.34580942  0.00693235  1
  In  In30  1  0.13635285  0.68698371  0.84977659  1
  In  In31  1  0.14741980  0.52642943  0.65237125  1
  In  In32  1  0.68531361  0.48412463  0.51745136  1
  In  In33  1  0.67095629  0.68067385  0.67207629  1
  In  In34  1  0.68161040  0.18021229  0.15990920  1
  In  In35  1  -0.03728789  0.66196823  0.01556070  1
  In  In36  1  0.30335259  0.50887578  0.18706184  1
  In  In37  1  0.30463541  0.69013637  0.35880193  1
  In  In38  1  0.16715382  0.67852160  0.19757194  1
  In  In39  1  0.33437925  0.48823983  0.80108722  1
  In  In40  1  0.51133386  0.50697096  0.67207820  1
  In  In41  1  0.16460653  0.16332525  0.36008173  1
  In  In42  1  0.33818434  0.15642964  0.82742788  1
  In  In43  1  0.33849254  0.29914030  -0.00347978  1
  In  In44  1  0.16050975  0.85284248  -0.00298631  1
  In  In45  1  0.85903776  0.66341017  0.49412971  1
  In  In46  1  0.85369417  0.34047419  0.50878422  1
  In  In47  1  0.47973970  0.82134411  0.32327219  1
  In  In48  1  0.15321072  0.49943375  0.00128066  1
  In  In49  1  0.66388173  0.00067381  0.68324186  1
  In  In50  1  0.15924545  0.49260716  0.34932459  1
  In  In51  1  0.02165613  0.65620236  0.34870962  1
  In  In52  1  0.84860271  0.82007097  0.35637437  1
  In  In53  1  0.71737005  0.65535522  -0.03110685  1
  In  In54  1  0.66995359  0.33029907  0.32850668  1
  In  In55  1  0.52165571  0.46810906  -0.00250306  1
  In  In56  1  0.01503214  0.16070096  0.18183624  1
  In  In57  1  0.81625127  0.83823219  -0.01734027  1
  In  In58  1  0.27860070  0.70584693  0.65326969  1
  In  In59  1  0.67622727  0.85179171  0.50666028  1
  In  In60  1  0.48398965  0.85842201  0.64522454  1
  In  In61  1  0.69779179  0.50870087  0.17212200  1
  In  In62  1  0.17334066  0.16601268  0.01306950  1
  In  In63  1  0.47837587  0.01383607  0.15253065  1
  In  In64  1  0.48134793  -0.00626159  0.51540115  1
  In  In65  1  -0.02132117  0.35971594  0.31130759  1
  In  In66  1  0.68538151  0.00729532  0.34852717  1
  In  In67  1  0.65847613  0.83432910  0.81899109  1
  In  In68  1  0.66612449  0.32500709  0.66875969  1
  In  In69  1  0.16707385  0.14340612  0.65665753  1
  In  In70  1  0.50904011  0.67421007  0.80990605  1
  In  In71  1  0.50471612  0.15188309  0.66403181  1
  Te  Te72  1  0.06689434  0.07403530  0.06791734  1
  Te  Te73  1  0.08921057  0.06421499  0.43757322  1
  Te  Te74  1  0.12632951  0.06433344  0.77714097  1
  Te  Te75  1  0.10546541  0.39833991  0.09489897  1
  Te  Te76  1  0.04476923  0.43375706  0.42397782  1
  Te  Te77  1  0.10052509  0.43068750  0.76745105  1
  Te  Te78  1  0.08117897  0.73732184  0.07728606  1
  Te  Te79  1  0.08964259  0.77963288  0.39708657  1
  Te  Te80  1  0.06551162  0.73366267  0.72582586  1
  Te  Te81  1  0.41207642  0.11079470  0.06584125  1
  Te  Te82  1  0.42333178  0.07792998  0.40383086  1
  Te  Te83  1  0.40959246  0.06492329  0.73665066  1
  Te  Te84  1  0.40184124  0.44108726  0.08616981  1
  Te  Te85  1  0.40590678  0.40805524  0.42110730  1
  Te  Te86  1  0.43615309  0.40220441  0.74316940  1
  Te  Te87  1  0.42986495  0.76385793  0.08695125  1
  Te  Te88  1  0.40788830  0.76380528  0.44366125  1
  Te  Te89  1  0.40488381  0.76670356  0.74730199  1
  Te  Te90  1  0.74023986  0.07100290  0.07248236  1
  Te  Te91  1  0.76897761  0.09583315  0.42748531  1
  Te  Te92  1  0.73863681  0.10974225  0.75152240  1
  Te  Te93  1  0.77397939  0.39833575  0.10749873  1
  Te  Te94  1  0.76662833  0.41768419  0.40902328  1
  Te  Te95  1  0.77218914  0.41205602  0.72548079  1
  Te  Te96  1  0.73290877  0.75905687  0.08778609  1
  Te  Te97  1  0.73953005  0.74161710  0.42636485  1
  Te  Te98  1  0.76989220  0.74832928  0.76346525  1
  Te  Te99  1  0.08638853  0.26246413  0.26675146  1
  Te  Te100  1  0.09575335  0.25599393  0.58044371  1
  Te  Te101  1  0.07901571  0.24469634  0.91185925  1
  Te  Te102  1  0.08092391  0.56554620  0.23945169  1
  Te  Te103  1  0.05481601  0.63128831  0.60204530  1
  Te  Te104  1  0.05486532  0.57972485  0.91974512  1
  Te  Te105  1  0.07335316  0.94058210  0.26365521  1
  Te  Te106  1  0.11312782  0.89981723  0.60878968  1
  Te  Te107  1  0.07334154  0.92046019  0.90117191  1
  Te  Te108  1  0.39603451  0.24367360  0.23800117  1
  Te  Te109  1  0.43012853  0.24958307  0.58378399  1
  Te  Te110  1  0.43667209  0.25392328  0.89476708  1
  Te  Te111  1  0.40146646  0.60036806  0.26300984  1
  Te  Te112  1  0.40231568  0.60066501  0.60935266  1
  Te  Te113  1  0.43056870  0.57218849  0.89829919  1
  Te  Te114  1  0.40112682  0.92571390  0.24899293  1
  Te  Te115  1  0.36915340  0.94158196  0.59868278  1
  Te  Te116  1  0.37422649  0.94640763  0.92408943  1
  Te  Te117  1  0.76514601  0.24121416  0.26160199  1
  Te  Te118  1  0.74578211  0.24891263  0.56232516  1
  Te  Te119  1  0.75389469  0.24242193  0.92370658  1
  Te  Te120  1  0.75480480  0.60407936  0.26609845  1
  Te  Te121  1  0.76151069  0.59139407  0.59133243  1
  Te  Te122  1  0.80292882  0.55146812  0.91147670  1
  Te  Te123  1  0.75431619  0.89769819  0.25710990  1
  Te  Te124  1  0.75979480  0.89972268  0.62050178  1
  Te  Te125  1  0.72453831  0.93203244  0.91054199  1
  Te  Te126  1  0.24018479  0.26547773  0.09898851  1
  Te  Te127  1  0.24405835  0.26423138  0.43126960  1
  Te  Te128  1  0.26374319  0.24272862  0.72616961  1
  Te  Te129  1  0.24807182  0.60117960  0.07243093  1
  Te  Te130  1  0.22901528  0.59183829  0.44248956  1
  Te  Te131  1  0.24184621  0.60466300  0.76827964  1
  Te  Te132  1  0.24933720  0.91921559  0.09048083  1
  Te  Te133  1  0.22191695  0.87875076  0.41902096  1
  Te  Te134  1  0.18435378  0.91067658  0.74888234  1
  Te  Te135  1  0.57605319  0.24799560  0.07224567  1
  Te  Te136  1  0.58134698  0.25145045  0.41270449  1
  Te  Te137  1  0.60890921  0.21569834  0.75119799  1
  Te  Te138  1  0.60455299  0.57991651  0.06149821  1
  Te  Te139  1  0.59321845  0.56482286  0.42034293  1
  Te  Te140  1  0.61405296  0.57429173  0.76354109  1
  Te  Te141  1  0.57016637  0.92298580  0.07185436  1
  Te  Te142  1  0.57641893  0.91049714  0.40727128  1
  Te  Te143  1  0.55081195  0.92938589  0.76347037  1
  Te  Te144  1  0.91651042  0.23706233  0.09283272  1
  Te  Te145  1  0.93054545  0.25110954  0.41424148  1
  Te  Te146  1  0.94002963  0.24124321  0.73831179  1
  Te  Te147  1  0.92753454  0.54688285  0.10593924  1
  Te  Te148  1  0.93042349  0.56040856  0.41459871  1
  Te  Te149  1  0.95252581  0.57592332  0.70509106  1
  Te  Te150  1  0.91564046  0.90591006  0.07824529  1
  Te  Te151  1  0.91117596  0.93104900  0.43302200  1
  Te  Te152  1  0.91153703  0.96368344  0.74344792  1
  Te  Te153  1  0.25395484  0.09000959  0.25888435  1
  Te  Te154  1  0.25484048  0.06223622  0.56830200  1
  Te  Te155  1  0.25949858  0.07950758  0.92820481  1
  Te  Te156  1  0.26130106  0.40859333  0.28362284  1
  Te  Te157  1  0.24013176  0.42724623  0.59998429  1
  Te  Te158  1  0.26281892  0.41434280  0.92064314  1
  Te  Te159  1  0.26649637  0.77353127  0.24300743  1
  Te  Te160  1  0.21419151  0.79201014  0.54990352  1
  Te  Te161  1  0.26125311  0.75433931  0.91815426  1
  Te  Te162  1  0.59686910  0.07111757  0.24125066  1
  Te  Te163  1  0.59868088  0.07152579  0.56658321  1
  Te  Te164  1  0.59460057  0.03274801  0.89514014  1
  Te  Te165  1  0.57589543  0.42720692  0.23150124  1
  Te  Te166  1  0.57184853  0.40555258  0.57593536  1
  Te  Te167  1  0.60730175  0.41217839  0.89528894  1
  Te  Te168  1  0.58023420  0.72418667  0.26325340  1
  Te  Te169  1  0.57484065  0.74955912  0.57751930  1
  Te  Te170  1  0.58410372  0.74439299  0.92298265  1
  Te  Te171  1  0.92410250  0.07496324  0.25995057  1
  Te  Te172  1  0.94370679  0.05591094  0.62098580  1
  Te  Te173  1  0.90100072  0.04860071  0.89175124  1
  Te  Te174  1  0.89647734  0.43184924  0.21133907  1
  Te  Te175  1  0.90316209  0.43412186  0.61594676  1
  Te  Te176  1  0.92119308  0.41450113  0.91091677  1
  Te  Te177  1  0.92537259  0.73923121  0.25004309  1
  Te  Te178  1  0.91173181  0.76557175  0.58558887  1
  Te  Te179  1  0.91924002  0.75863464  0.90460803  1
