# generated using pymatgen
data_In2Te3
_symmetry_space_group_name_H-M   'P 1'
_cell_length_a   19.00435629
_cell_length_b   19.00603892
_cell_length_c   19.01493024
_cell_angle_alpha   90.05069018
_cell_angle_beta   90.23127029
_cell_angle_gamma   90.08904783
_symmetry_Int_Tables_number   1
_chemical_formula_structural   In2Te3
_chemical_formula_sum   'In72 Te108'
_cell_volume   6868.07896776
_cell_formula_units_Z   36
loop_
 _symmetry_equiv_pos_site_id
 _symmetry_equiv_pos_as_xyz
  1  'x, y, z'
loop_
 _atom_site_type_symbol
 _atom_site_label
 _atom_site_symmetry_multiplicity
 _atom_site_fract_x
 _atom_site_fract_y
 _atom_site_fract_z
 _atom_site_occupancy
  In  In0  1  -0.04672507  0.84593504  0.17454194  1
  In  In1  1  0.33639516  0.84054685  0.17332470  1
  In  In2  1  0.48268021  -0.01671586  0.88230113  1
  In  In3  1  0.69016919  0.85746715  0.17798597  1
  In  In4  1  0.34311217  0.33714292  0.32789900  1
  In  In5  1  0.32670483  0.12846127  0.48671857  1
  In  In6  1  0.31652304  0.34406955  -0.00316828  1
  In  In7  1  0.81844644  0.33112509  0.48646324  1
  In  In8  1  0.66507825  0.66338453  -0.01461378  1
  In  In9  1  0.17900520  0.34200860  0.82903067  1
  In  In10  1  0.15760256  -0.00383993  0.18148414  1
  In  In11  1  0.69109152  0.49787917  0.84746656  1
  In  In12  1  0.85773144  0.34824334  0.82450705  1
  In  In13  1  0.85095841  -0.03831768  0.47914409  1
  In  In14  1  0.33663840  0.18948789  0.84604219  1
  In  In15  1  0.01505774  0.50536303  0.15064120  1
  In  In16  1  0.00643446  0.51030033  0.83759051  1
  In  In17  1  0.65521494  -0.00727648  0.67987156  1
  In  In18  1  0.48443733  0.51329117  0.67663365  1
  In  In19  1  0.16297355  0.66502582  0.17310363  1
  In  In20  1  0.34743360  0.64771740  0.35518176  1
  In  In21  1  0.50642347  0.33432526  0.15698205  1
  In  In22  1  0.66993372  0.51358791  0.14483919  1
  In  In23  1  0.66742271  0.82671153  0.82002740  1
  In  In24  1  0.82268961  0.85017227  0.00049300  1
  In  In25  1  -0.00869370  0.18581257  0.47846882  1
  In  In26  1  0.50256807  0.66958207  0.51983671  1
  In  In27  1  0.16425914  0.16751746  0.01840419  1
  In  In28  1  0.17954425  -0.01617990  0.84057073  1
  In  In29  1  0.35544657  0.68312088  0.00011877  1
  In  In30  1  -0.01042763  0.32636271  0.32595956  1
  In  In31  1  -0.00909695  0.16617243  0.82431859  1
  In  In32  1  0.68427451  0.82173529  0.49157494  1
  In  In33  1  0.49821269  0.14927926  0.65133450  1
  In  In34  1  0.51465042  0.82118746  0.30416282  1
  In  In35  1  0.68571332  0.15687423  0.46056924  1
  In  In36  1  0.13989009  0.83097967  0.33069220  1
  In  In37  1  0.00131423  0.67201146  0.00672047  1
  In  In38  1  0.35318618  -0.01378439  0.32539654  1
  In  In39  1  0.48865836  -0.01908539  0.47655010  1
  In  In40  1  0.30580028  0.00599084  0.68006897  1
  In  In41  1  0.35939298  0.14194373  0.14396092  1
  In  In42  1  -0.02170833  0.66625264  0.30820169  1
  In  In43  1  0.18273688  0.80780159  -0.00002212  1
  In  In44  1  0.50484254  0.49977219  0.32956742  1
  In  In45  1  0.01440544  0.49055927  0.49346889  1
  In  In46  1  -0.03698503  0.14706916  0.19601892  1
  In  In47  1  0.34180153  0.33864460  0.67313075  1
  In  In48  1  0.66253321  0.15191472  0.21292338  1
  In  In49  1  0.15770627  0.65415269  0.47364723  1
  In  In50  1  0.49014544  0.67165666  0.82901589  1
  In  In51  1  0.68185563  0.32574618  0.02973436  1
  In  In52  1  0.34143117  0.50946741  0.18081524  1
  In  In53  1  0.67929376  0.67879080  0.65498479  1
  In  In54  1  0.31870238  0.84599197  0.50457185  1
  In  In55  1  -0.02438192  0.68338752  0.64734517  1
  In  In56  1  0.83527980  0.49656074  0.65397919  1
  In  In57  1  0.83826056  0.00663253  0.81928030  1
  In  In58  1  0.64207017  0.00904231  0.02054705  1
  In  In59  1  0.82615608  0.50740642  0.31222589  1
  In  In60  1  0.01289773  0.84383560  0.83454497  1
  In  In61  1  0.64214786  0.49466423  0.51136497  1
  In  In62  1  0.17974030  0.82052969  0.68835581  1
  In  In63  1  0.10607716  0.00922774  0.48286447  1
  In  In64  1  0.17565720  0.31188397  0.52075266  1
  In  In65  1  0.81635036  0.15678848  0.00173474  1
  In  In66  1  0.18863372  0.52098178  0.70209344  1
  In  In67  1  0.51222062  0.33432862  0.84216552  1
  In  In68  1  0.66886196  0.15686002  0.81639147  1
  In  In69  1  -0.00754112  0.00802458  0.64915378  1
  In  In70  1  -0.00555881  0.33204625  0.02382135  1
  In  In71  1  0.52249627  0.30979692  0.47995838  1
  Te  Te72  1  0.06802181  0.08500129  0.09793279  1
  Te  Te73  1  0.08309132  0.11931381  0.38501577  1
  Te  Te74  1  0.08383184  0.06782118  0.75642032  1
  Te  Te75  1  0.10189072  0.41574268  0.07520935  1
  Te  Te76  1  0.09406988  0.39096736  0.41551266  1
  Te  Te77  1  0.08085415  0.41877736  0.74357880  1
  Te  Te78  1  0.07989234  0.77532131  0.11315603  1
  Te  Te79  1  0.05318503  0.74699082  0.42023353  1
  Te  Te80  1  0.07700684  0.73360383  0.75535738  1
  Te  Te81  1  0.41491161  0.05253684  0.03553324  1
  Te  Te82  1  0.44067558  0.09646543  0.39178006  1
  Te  Te83  1  0.41211437  0.08714327  0.75900486  1
  Te  Te84  1  0.41653459  0.42585476  0.07945371  1
  Te  Te85  1  0.42675685  0.41620806  0.42793986  1
  Te  Te86  1  0.41002784  0.42484839  0.77664370  1
  Te  Te87  1  0.43144793  0.75657568  0.10351643  1
  Te  Te88  1  0.41960106  0.77069483  0.41887759  1
  Te  Te89  1  0.40158738  0.69232909  0.71264514  1
  Te  Te90  1  0.74586562  0.07602508  0.10647535  1
  Te  Te91  1  0.75747408  0.04556424  0.38688355  1
  Te  Te92  1  0.76405143  0.09276970  0.71951650  1
  Te  Te93  1  0.77101460  0.42558332  0.08439516  1
  Te  Te94  1  0.73571152  0.43224583  0.41132284  1
  Te  Te95  1  0.74623829  0.40837605  0.73845008  1
  Te  Te96  1  0.74761874  0.75004947  0.08122063  1
  Te  Te97  1  0.80159751  0.76000835  0.42798630  1
  Te  Te98  1  0.76740255  0.75404244  0.74443205  1
  Te  Te99  1  0.07374552  0.22950414  0.25132324  1
  Te  Te100  1  0.07227784  0.23660282  0.58955445  1
  Te  Te101  1  0.08307387  0.25244415  0.91816134  1
  Te  Te102  1  0.09135057  0.57458572  0.26776838  1
  Te  Te103  1  0.08371865  0.58151918  0.59412070  1
  Te  Te104  1  0.09042513  0.59461610  0.92300432  1
  Te  Te105  1  0.04949074  0.93205423  0.26467638  1
  Te  Te106  1  0.09310033  0.90459922  0.59800186  1
  Te  Te107  1  0.09030416  0.91650584  0.94153319  1
  Te  Te108  1  0.42396269  0.24269787  0.24294002  1
  Te  Te109  1  0.40697484  0.23924223  0.57003814  1
  Te  Te110  1  0.43027593  0.25685898  0.94249502  1
  Te  Te111  1  0.44042915  0.60701322  0.24435896  1
  Te  Te112  1  0.39769406  0.58518102  0.57974000  1
  Te  Te113  1  0.44532258  0.58261067  0.93688368  1
  Te  Te114  1  0.45599070  0.94244381  0.22204139  1
  Te  Te115  1  0.40762495  0.92934896  0.59385578  1
  Te  Te116  1  0.38861809  0.91861439  0.97140366  1
  Te  Te117  1  0.74664884  0.25373319  0.27752908  1
  Te  Te118  1  0.73062671  0.24575230  0.56701668  1
  Te  Te119  1  0.75377344  0.25181075  0.90144898  1
  Te  Te120  1  0.73128032  0.60085065  0.24902715  1
  Te  Te121  1  0.75366043  0.58526710  0.56272275  1
  Te  Te122  1  0.77410471  0.59541555  0.91540460  1
  Te  Te123  1  0.77807469  0.93912218  0.26894282  1
  Te  Te124  1  0.75045170  0.91905348  0.58879520  1
  Te  Te125  1  0.73271063  0.94173555  0.90606949  1
  Te  Te126  1  0.25835908  0.25056426  0.10113406  1
  Te  Te127  1  0.25847734  0.24134684  0.41433292  1
  Te  Te128  1  0.24529042  0.24104594  0.73699969  1
  Te  Te129  1  0.25813266  0.59439170  0.08513597  1
  Te  Te130  1  0.24787197  0.55849531  0.41155637  1
  Te  Te131  1  0.27572611  0.62082206  0.76602083  1
  Te  Te132  1  0.24707629  0.92304819  0.08351786  1
  Te  Te133  1  0.23593495  0.92856894  0.40833423  1
  Te  Te134  1  0.28167901  0.89138313  0.77714728  1
  Te  Te135  1  0.59036065  0.22714987  0.09300420  1
  Te  Te136  1  0.61354757  0.25779445  0.37508629  1
  Te  Te137  1  0.57769595  0.24714743  0.73603117  1
  Te  Te138  1  0.56819209  0.58089716  0.06060988  1
  Te  Te139  1  0.58432085  0.59927876  0.41701154  1
  Te  Te140  1  0.59892138  0.58412083  0.74969112  1
  Te  Te141  1  0.58401314  0.88996130  0.07948005  1
  Te  Te142  1  0.59504270  0.90682321  0.40150195  1
  Te  Te143  1  0.55610083  0.91713364  0.76383948  1
  Te  Te144  1  0.89593078  0.24365526  0.09728814  1
  Te  Te145  1  0.86987846  0.24366032  0.37266706  1
  Te  Te146  1  0.91559353  0.25074850  0.73359206  1
  Te  Te147  1  0.92409062  0.61547045  0.11647649  1
  Te  Te148  1  0.91785577  0.57508219  0.41490728  1
  Te  Te149  1  0.91038935  0.58771577  0.74739326  1
  Te  Te150  1  0.89943133  0.94448089  0.08164376  1
  Te  Te151  1  0.98662430  0.92808740  0.43317907  1
  Te  Te152  1  0.91697728  0.90848878  0.73655051  1
  Te  Te153  1  0.26407503  0.08124961  0.24753204  1
  Te  Te154  1  0.22085707  0.07250938  0.57616433  1
  Te  Te155  1  0.25198303  0.09016957  0.92301325  1
  Te  Te156  1  0.25081703  0.42152138  0.25310599  1
  Te  Te157  1  0.24696025  0.42716946  0.59760243  1
  Te  Te158  1  0.24667367  0.44017566  0.91211366  1
  Te  Te159  1  0.25465546  0.74985133  0.27188293  1
  Te  Te160  1  0.23835656  0.73953905  0.57257975  1
  Te  Te161  1  0.25299723  0.72588182  0.89923423  1
  Te  Te162  1  0.55545781  0.06064379  0.24709337  1
  Te  Te163  1  0.58966074  0.07143721  0.55975163  1
  Te  Te164  1  0.57397877  0.09914087  0.91740562  1
  Te  Te165  1  0.59596785  0.41930672  0.24283774  1
  Te  Te166  1  0.55770864  0.40462959  0.59597187  1
  Te  Te167  1  0.60028708  0.41432529  0.93484921  1
  Te  Te168  1  0.62995658  0.74433012  0.25559488  1
  Te  Te169  1  0.57852499  0.77505573  0.59470077  1
  Te  Te170  1  0.57222833  0.76412877  0.91764646  1
  Te  Te171  1  0.87786462  0.05824419  0.28018792  1
  Te  Te172  1  0.90509437  0.08626580  0.55366990  1
  Te  Te173  1  0.92064771  0.07799588  0.92470690  1
  Te  Te174  1  0.91754863  0.41928310  0.23137413  1
  Te  Te175  1  0.92221617  0.40268488  0.57399298  1
  Te  Te176  1  0.91929440  0.43024158  0.93466029  1
  Te  Te177  1  0.87919183  0.77591980  0.28357558  1
  Te  Te178  1  0.87743189  0.74882150  0.56194137  1
  Te  Te179  1  0.91694186  0.76330450  0.91949067  1
