# generated using pymatgen
data_In2Te3
_symmetry_space_group_name_H-M   'P 1'
_cell_length_a   18.98426622
_cell_length_b   18.98670782
_cell_length_c   18.99471657
_cell_angle_alpha   90.15816442
_cell_angle_beta   90.06383108
_cell_angle_gamma   89.83732015
_symmetry_Int_Tables_number   1
_chemical_formula_structural   In2Te3
_chemical_formula_sum   'In72 Te108'
_cell_volume   6846.56332428
_cell_formula_units_Z   36
loop_
 _symmetry_equiv_pos_site_id
 _symmetry_equiv_pos_as_xyz
  1  'x, y, z'
loop_
 _atom_site_type_symbol
 _atom_site_label
 _atom_site_symmetry_multiplicity
 _atom_site_fract_x
 _atom_site_fract_y
 _atom_site_fract_z
 _atom_site_occupancy
  In  In0  1  0.49147130  0.83580623  0.33188038  1
  In  In1  1  0.67407731  0.50098316  0.16002989  1
  In  In2  1  0.70025232  0.30058941  0.31566582  1
  In  In3  1  0.33413242  0.67670080  0.63592106  1
  In  In4  1  0.00931030  0.33302451  0.32855506  1
  In  In5  1  0.17444264  0.14356736  0.02447608  1
  In  In6  1  0.01154879  0.15102828  0.48893932  1
  In  In7  1  0.68598084  0.15148812  0.81986565  1
  In  In8  1  0.82884661  0.01002591  0.17135284  1
  In  In9  1  0.17465215  0.83582988  0.34210972  1
  In  In10  1  0.49869834  0.67261741  0.16951098  1
  In  In11  1  -0.02990019  0.33252840  0.65476693  1
  In  In12  1  -0.02376314  0.29300180  0.00705367  1
  In  In13  1  0.01023608  0.51967505  0.82809075  1
  In  In14  1  0.18152539  0.48751794  0.66041848  1
  In  In15  1  0.82811664  0.83770106  -0.03928618  1
  In  In16  1  0.17951265  0.69319991  0.80627726  1
  In  In17  1  0.00393992  0.49642084  0.18466264  1
  In  In18  1  0.32424705  0.82750577  0.80568150  1
  In  In19  1  0.52001685  0.00940201  0.16880627  1
  In  In20  1  0.82465920  0.33884581  0.82522433  1
  In  In21  1  0.50863405  0.50499064  0.34998056  1
  In  In22  1  0.67706008  0.66883157  -0.00558626  1
  In  In23  1  0.81856726  0.67563488  0.51579186  1
  In  In24  1  0.47368152  -0.01419161  0.53146976  1
  In  In25  1  0.65759262  0.53258452  0.51225013  1
  In  In26  1  0.64885793  0.16384866  0.51283424  1
  In  In27  1  0.67345420  0.33275632  0.66929943  1
  In  In28  1  0.47743952  0.00876354  0.78274784  1
  In  In29  1  0.01207195  0.00529469  0.32718145  1
  In  In30  1  0.84267818  0.35471178  0.49873586  1
  In  In31  1  0.00131619  0.00111018  -0.02449866  1
  In  In32  1  0.19307707  0.32147935  0.81377532  1
  In  In33  1  0.18044519  0.48726774  0.35181516  1
  In  In34  1  0.48246364  0.32189918  0.50703088  1
  In  In35  1  0.17715475  0.47769309  -0.01028745  1
  In  In36  1  0.34006732  0.34625516  -0.00920358  1
  In  In37  1  0.31436067  0.83712870  0.14501883  1
  In  In38  1  0.51196976  0.17093465  -0.00865135  1
  In  In39  1  0.64886611  0.34146695  -0.00104864  1
  In  In40  1  0.47962423  0.64294463  0.86018779  1
  In  In41  1  0.84352949  0.87319941  0.68766208  1
  In  In42  1  -0.02256782  0.83271110  0.18468043  1
  In  In43  1  0.14979757  0.30554549  0.17293923  1
  In  In44  1  0.32197312  -0.01294733  -0.01817649  1
  In  In45  1  0.00542499  0.50107685  0.53802446  1
  In  In46  1  0.17756534  -0.01680242  0.82488703  1
  In  In47  1  0.65702138  0.84880525  0.81731053  1
  In  In48  1  0.51265929  0.70870506  0.51875008  1
  In  In49  1  0.03240293  0.85476691  0.51017152  1
  In  In50  1  0.48700655  0.32033145  0.18310498  1
  In  In51  1  0.83880591  0.13104419  0.67129842  1
  In  In52  1  0.65596523  0.00412098  0.33416071  1
  In  In53  1  0.16473431  0.13663001  0.66298016  1
  In  In54  1  0.50529869  0.34892648  0.83149821  1
  In  In55  1  0.82191119  0.52639820  0.34370125  1
  In  In56  1  0.49682892  0.50953339  0.69210724  1
  In  In57  1  0.34657844  0.15025576  0.19090166  1
  In  In58  1  0.50039683  0.84813058  0.02400758  1
  In  In59  1  0.32035870  0.00246334  0.33966930  1
  In  In60  1  0.83173150  0.67349382  0.16020240  1
  In  In61  1  0.84033057  0.15798903  0.02733805  1
  In  In62  1  0.80473097  0.49684165  -0.02397061  1
  In  In63  1  -0.02083013  0.67514809  -0.00816173  1
  In  In64  1  0.82607469  0.82255656  0.33560793  1
  In  In65  1  0.02179090  0.14824044  0.85400727  1
  In  In66  1  0.80744372  -0.01793527  0.50599629  1
  In  In67  1  0.32524998  0.48677818  0.50459075  1
  In  In68  1  0.34408124  0.48181748  0.15707228  1
  In  In69  1  0.16078706  0.65626157  0.17743253  1
  In  In70  1  0.32738961  0.17178959  0.50326951  1
  In  In71  1  0.01861987  0.68673871  0.66852303  1
  Te  Te72  1  0.05452455  0.08886628  0.08232675  1
  Te  Te73  1  0.10535788  0.04517502  0.43795292  1
  Te  Te74  1  0.05762800  0.04959443  0.74119530  1
  Te  Te75  1  0.07361242  0.40666519  0.08287793  1
  Te  Te76  1  0.07880382  0.41300165  0.43897532  1
  Te  Te77  1  0.07932174  0.40783486  0.74664108  1
  Te  Te78  1  0.06660419  0.74295432  0.09616276  1
  Te  Te79  1  0.08251003  0.75318791  0.41913348  1
  Te  Te80  1  0.09575821  0.79645647  0.73743392  1
  Te  Te81  1  0.41319918  0.08162580  0.06580429  1
  Te  Te82  1  0.42215975  0.07896661  0.42216354  1
  Te  Te83  1  0.39750536  0.09898396  0.69733727  1
  Te  Te84  1  0.44913417  0.41492608  0.06994692  1
  Te  Te85  1  0.40841994  0.40596931  0.40385633  1
  Te  Te86  1  0.41547242  0.39480475  0.72533329  1
  Te  Te87  1  0.40405423  0.73999733  0.07023186  1
  Te  Te88  1  0.41226593  0.74757072  0.41863995  1
  Te  Te89  1  0.42382852  0.73084646  0.74487323  1
  Te  Te90  1  0.73227992  0.07202003  0.07727658  1
  Te  Te91  1  0.74639767  0.09136843  0.42148361  1
  Te  Te92  1  0.71513209  0.05777942  0.70653139  1
  Te  Te93  1  0.76045090  0.40259525  0.08420231  1
  Te  Te94  1  0.73492961  0.42671813  0.41944978  1
  Te  Te95  1  0.72685169  0.43216626  0.76628844  1
  Te  Te96  1  0.75204106  0.76920538  0.07895497  1
  Te  Te97  1  0.73366966  0.75319266  0.42408029  1
  Te  Te98  1  0.76833742  0.77108578  0.76079889  1
  Te  Te99  1  0.09821345  0.22434225  0.28224912  1
  Te  Te100  1  0.07367300  0.24264484  0.59367753  1
  Te  Te101  1  0.10456867  0.26277691  0.92119951  1
  Te  Te102  1  0.07979723  0.58134199  0.28089564  1
  Te  Te103  1  0.11146287  0.59853782  0.58448264  1
  Te  Te104  1  0.10127872  0.59351662  0.92310941  1
  Te  Te105  1  0.09273639  0.91369339  0.23829288  1
  Te  Te106  1  0.12764701  0.88931659  0.61654510  1
  Te  Te107  1  0.10411134  0.90800848  0.92573359  1
  Te  Te108  1  0.40084474  0.25205556  0.27867887  1
  Te  Te109  1  0.43750169  0.21345525  0.59921433  1
  Te  Te110  1  0.41480674  0.24731149  0.90433422  1
  Te  Te111  1  0.41559514  0.57614962  0.25239619  1
  Te  Te112  1  0.43545439  0.57626003  0.56681943  1
  Te  Te113  1  0.39876394  0.53555273  0.91483435  1
  Te  Te114  1  0.40557512  0.92680026  0.22869864  1
  Te  Te115  1  0.36873317  0.90201318  0.59825747  1
  Te  Te116  1  0.42580439  0.91239072  0.90202906  1
  Te  Te117  1  0.78862025  0.21976788  0.23307636  1
  Te  Te118  1  0.76761163  0.24577913  0.58638905  1
  Te  Te119  1  0.75100968  0.24942304  0.92386103  1
  Te  Te120  1  0.73129569  0.60666030  0.25215841  1
  Te  Te121  1  0.73119355  0.60764841  0.61187597  1
  Te  Te122  1  0.77227106  0.61297014  0.89683148  1
  Te  Te123  1  0.74123047  0.91206227  0.24829054  1
  Te  Te124  1  0.73225281  0.87694368  0.57934710  1
  Te  Te125  1  0.73725691  0.93673153  0.90407803  1
  Te  Te126  1  0.26886908  0.25135841  0.08518888  1
  Te  Te127  1  0.24751877  0.28527594  0.45811964  1
  Te  Te128  1  0.26494387  0.21720230  0.73787417  1
  Te  Te129  1  0.24921561  0.57398013  0.08265338  1
  Te  Te130  1  0.25643305  0.58841249  0.42492250  1
  Te  Te131  1  0.26465100  0.58705059  0.73799931  1
  Te  Te132  1  0.22567144  0.93244885  0.07669811  1
  Te  Te133  1  0.28863885  0.88613259  0.42490998  1
  Te  Te134  1  0.28946588  0.95216119  0.72627491  1
  Te  Te135  1  0.58930145  0.24397104  0.09907314  1
  Te  Te136  1  0.58958074  0.25993349  0.41299152  1
  Te  Te137  1  0.58672653  0.24233288  0.75082524  1
  Te  Te138  1  0.58147366  0.58338897  0.07440818  1
  Te  Te139  1  0.58727924  0.61759592  0.40963242  1
  Te  Te140  1  0.57917063  0.61119812  0.75647945  1
  Te  Te141  1  0.60275570  0.94613574  0.06483665  1
  Te  Te142  1  0.57006270  0.92251090  0.42644642  1
  Te  Te143  1  0.54375518  0.88746921  0.72399099  1
  Te  Te144  1  0.90824533  0.24482128  0.13007462  1
  Te  Te145  1  0.91654203  0.25109499  0.41981387  1
  Te  Te146  1  0.92116706  0.23275667  0.76214692  1
  Te  Te147  1  0.90971407  0.56682337  0.08391646  1
  Te  Te148  1  0.91874195  0.58426427  0.44348843  1
  Te  Te149  1  0.92613028  0.59886947  0.74103594  1
  Te  Te150  1  0.91101549  0.91466496  0.07683757  1
  Te  Te151  1  0.91866395  0.91500118  0.41151920  1
  Te  Te152  1  0.92688108  0.96810657  0.76188646  1
  Te  Te153  1  0.23258173  0.09317697  0.26177176  1
  Te  Te154  1  0.22368024  0.07081790  0.54298359  1
  Te  Te155  1  0.24836026  0.09445666  0.90276042  1
  Te  Te156  1  0.24393593  0.40483868  0.24102209  1
  Te  Te157  1  0.25128217  0.37800999  0.57780244  1
  Te  Te158  1  0.27944406  0.43932430  0.88091979  1
  Te  Te159  1  0.25923535  0.74391262  0.24976699  1
  Te  Te160  1  0.25827547  0.79256330  0.58193068  1
  Te  Te161  1  0.25764583  0.75427439  0.91338790  1
  Te  Te162  1  0.57955935  0.10525127  0.25976869  1
  Te  Te163  1  0.59247574  0.05495802  0.59439338  1
  Te  Te164  1  0.56987570  0.07870561  0.88602075  1
  Te  Te165  1  0.59322798  0.41452791  0.25469170  1
  Te  Te166  1  0.58157808  0.41366827  0.57858986  1
  Te  Te167  1  0.60910365  0.43577916  0.89370966  1
  Te  Te168  1  0.57917710  0.77719534  0.23041697  1
  Te  Te169  1  0.59332750  0.80265185  0.59763011  1
  Te  Te170  1  0.57687230  0.75842366  0.92419303  1
  Te  Te171  1  0.90139052  0.08882547  0.27438092  1
  Te  Te172  1  0.92333713  0.05694708  0.57121231  1
  Te  Te173  1  0.89341889  0.08223385  0.90504244  1
  Te  Te174  1  0.90036853  0.42307074  0.26477340  1
  Te  Te175  1  0.88193721  0.44753971  0.61150956  1
  Te  Te176  1  0.92654887  0.41578876  0.91099618  1
  Te  Te177  1  0.92183054  0.72253984  0.27099565  1
  Te  Te178  1  0.92101128  0.77347156  0.58819643  1
  Te  Te179  1  0.94053347  0.77289410  0.89268222  1
