# generated using pymatgen
data_In2Te3
_symmetry_space_group_name_H-M   'P 1'
_cell_length_a   18.97426880
_cell_length_b   18.95905468
_cell_length_c   18.95525657
_cell_angle_alpha   90.11944784
_cell_angle_beta   90.11522076
_cell_angle_gamma   90.01795855
_symmetry_Int_Tables_number   1
_chemical_formula_structural   In2Te3
_chemical_formula_sum   'In72 Te108'
_cell_volume   6818.82509932
_cell_formula_units_Z   36
loop_
 _symmetry_equiv_pos_site_id
 _symmetry_equiv_pos_as_xyz
  1  'x, y, z'
loop_
 _atom_site_type_symbol
 _atom_site_label
 _atom_site_symmetry_multiplicity
 _atom_site_fract_x
 _atom_site_fract_y
 _atom_site_fract_z
 _atom_site_occupancy
  In  In0  1  0.50626496  -0.00778818  0.84517492  1
  In  In1  1  0.18740076  0.15333525  0.68396772  1
  In  In2  1  0.85650962  0.64864778  0.82980248  1
  In  In3  1  0.16695198  -0.00668776  0.50956722  1
  In  In4  1  0.01892568  0.00363614  0.66136618  1
  In  In5  1  0.82691167  0.17576531  -0.00467495  1
  In  In6  1  0.69443881  0.80704170  0.47104747  1
  In  In7  1  0.65751998  -0.00365473  0.30683077  1
  In  In8  1  0.82135471  0.80519834  0.68784043  1
  In  In9  1  0.35359901  0.51734321  0.50620804  1
  In  In10  1  0.83782897  0.48920138  -0.00134970  1
  In  In11  1  0.50142756  0.14808914  0.00737738  1
  In  In12  1  0.29258237  -0.02409110  0.06107998  1
  In  In13  1  -0.03882954  0.53018422  0.46075416  1
  In  In14  1  0.68508642  0.52477989  0.49675698  1
  In  In15  1  0.82934991  -0.00393062  0.84883496  1
  In  In16  1  0.48410893  0.66867826  0.50317956  1
  In  In17  1  0.66347843  0.16157276  0.50838425  1
  In  In18  1  0.16583246  0.31506347  0.83089177  1
  In  In19  1  0.82796965  0.68096209  0.15944819  1
  In  In20  1  0.68029104  0.32778157  0.32014415  1
  In  In21  1  0.66140409  0.36824801  0.01409273  1
  In  In22  1  0.31024813  0.67608960  0.32115349  1
  In  In23  1  0.32374661  0.00676973  0.34018412  1
  In  In24  1  0.32653320  0.66614876  0.00309040  1
  In  In25  1  0.02053009  0.83665206  0.83638621  1
  In  In26  1  0.16319974  -0.00062668  0.85110373  1
  In  In27  1  0.49955755  0.33818322  0.17232519  1
  In  In28  1  0.00932137  0.16039689  0.51432558  1
  In  In29  1  0.67306065  0.01680116  0.67250806  1
  In  In30  1  0.34371772  0.65869162  0.67060905  1
  In  In31  1  0.13292695  0.14363135  0.02954535  1
  In  In32  1  0.67012180  -0.00809837  -0.00124722  1
  In  In33  1  0.50305746  0.82033300  0.32974930  1
  In  In34  1  0.00770307  0.68408544  -0.01444931  1
  In  In35  1  0.33492090  0.48309598  0.18332047  1
  In  In36  1  0.33452439  0.33581677  0.01787265  1
  In  In37  1  0.81067558  0.33648137  0.51065803  1
  In  In38  1  0.16066822  0.34577534  0.18027392  1
  In  In39  1  -0.01235565  0.68260109  0.67610323  1
  In  In40  1  0.18345331  0.34289527  0.48578495  1
  In  In41  1  0.49308643  0.01979599  0.19462768  1
  In  In42  1  0.52918377  0.63770576  0.13817493  1
  In  In43  1  0.49203906  0.48772591  0.34406732  1
  In  In44  1  0.31619976  0.84100990  0.83655344  1
  In  In45  1  0.66344177  0.35542983  0.66785703  1
  In  In46  1  0.83588864  -0.00302321  0.16193750  1
  In  In47  1  0.49275507  0.21603866  0.63017905  1
  In  In48  1  0.16070827  0.52310577  0.66219826  1
  In  In49  1  0.35726421  0.49884459  0.83369970  1
  In  In50  1  0.81517801  0.17002387  0.34329547  1
  In  In51  1  0.35811423  -0.00776041  0.68079501  1
  In  In52  1  0.47824937  0.18799785  0.34185180  1
  In  In53  1  -0.01771261  0.32681090  0.01028218  1
  In  In54  1  0.66968797  0.78296764  0.81090489  1
  In  In55  1  0.18740510  0.66641517  0.49392045  1
  In  In56  1  0.81502356  0.36027101  0.82418626  1
  In  In57  1  0.66679425  0.83540143  0.14743026  1
  In  In58  1  -0.01343828  0.33835413  0.65936326  1
  In  In59  1  0.15671624  0.52140676  -0.00481161  1
  In  In60  1  0.86132790  -0.01403174  0.51826524  1
  In  In61  1  0.16228865  0.16736607  0.33996152  1
  In  In62  1  -0.01679020  0.35198061  0.32181244  1
  In  In63  1  -0.00112363  -0.04121772  0.30981882  1
  In  In64  1  0.00274511  0.79275286  0.48026904  1
  In  In65  1  0.00839138  0.53651549  0.20766595  1
  In  In66  1  0.53210116  0.35716140  0.84239143  1
  In  In67  1  0.31937288  0.18337197  0.84330602  1
  In  In68  1  0.49931680  0.82422025  -0.02498085  1
  In  In69  1  -0.00360896  0.83181649  0.15003758  1
  In  In70  1  0.14731138  0.84336893  0.30197255  1
  In  In71  1  0.48954344  0.81338833  0.66494458  1
  Te  Te72  1  0.05243453  0.04407855  0.09889108  1
  Te  Te73  1  0.06204203  0.05638317  0.41730893  1
  Te  Te74  1  0.07617200  0.09604695  0.76732655  1
  Te  Te75  1  0.07583331  0.42920169  0.08624717  1
  Te  Te76  1  0.06878535  0.42252519  0.42484641  1
  Te  Te77  1  0.09098909  0.41290653  0.74295970  1
  Te  Te78  1  0.09609557  0.73877283  0.09315074  1
  Te  Te79  1  0.08934201  0.72041251  0.37740223  1
  Te  Te80  1  0.09572979  0.75475515  0.74178866  1
  Te  Te81  1  0.39863140  0.08797240  0.09797514  1
  Te  Te82  1  0.43759200  0.06594693  0.41108901  1
  Te  Te83  1  0.42180686  0.09756837  0.76893351  1
  Te  Te84  1  0.43088618  0.43557100  0.07627400  1
  Te  Te85  1  0.41601267  0.39873005  0.43624789  1
  Te  Te86  1  0.42999394  0.40387409  0.74853944  1
  Te  Te87  1  0.43302137  0.74376351  0.08432084  1
  Te  Te88  1  0.39609330  0.75694295  0.41791969  1
  Te  Te89  1  0.41691825  0.74547764  0.77859251  1
  Te  Te90  1  0.73736498  0.08731517  0.09165569  1
  Te  Te91  1  0.75368922  0.06104320  0.43277229  1
  Te  Te92  1  0.75506877  0.09154696  0.76591905  1
  Te  Te93  1  0.76928181  0.41398417  0.10513671  1
  Te  Te94  1  0.76147157  0.42679373  0.40127293  1
  Te  Te95  1  0.73138757  0.45614723  0.75013241  1
  Te  Te96  1  0.73550905  0.73987454  0.06015976  1
  Te  Te97  1  0.75619661  0.70053803  0.38728515  1
  Te  Te98  1  0.72826542  0.68258466  0.70399263  1
  Te  Te99  1  0.06858273  0.24676605  0.25078522  1
  Te  Te100  1  0.10417907  0.24808019  0.59138262  1
  Te  Te101  1  0.07507635  0.23907616  0.92508396  1
  Te  Te102  1  0.11659090  0.58399649  0.29131403  1
  Te  Te103  1  0.06851084  0.59005979  0.56028000  1
  Te  Te104  1  0.08477758  0.59778258  0.89443189  1
  Te  Te105  1  0.11892676  0.96931095  0.21385505  1
  Te  Te106  1  0.07423350  0.89179658  0.57516496  1
  Te  Te107  1  0.07799215  0.92270237  0.94121927  1
  Te  Te108  1  0.39429918  0.26943960  0.25002014  1
  Te  Te109  1  0.40423342  0.27166741  0.52986761  1
  Te  Te110  1  0.42789498  0.25962530  0.92170017  1
  Te  Te111  1  0.42162626  0.59453556  0.25144417  1
  Te  Te112  1  0.45063810  0.56882792  0.61284138  1
  Te  Te113  1  0.42462013  0.58545739  0.93046513  1
  Te  Te114  1  0.40911799  0.90886656  0.25024149  1
  Te  Te115  1  0.41486752  0.90480205  0.57896400  1
  Te  Te116  1  0.39443163  0.93422308  0.93023744  1
  Te  Te117  1  0.77038866  0.25220117  0.23170253  1
  Te  Te118  1  0.74931315  0.23945729  0.60534675  1
  Te  Te119  1  0.73645591  0.27345880  0.92022130  1
  Te  Te120  1  0.76097455  0.59746405  0.26304592  1
  Te  Te121  1  0.78052687  0.61743918  0.56275392  1
  Te  Te122  1  0.75817688  0.56926550  0.90383056  1
  Te  Te123  1  0.75735499  0.89904771  0.25179821  1
  Te  Te124  1  0.74908306  0.90564073  0.59003684  1
  Te  Te125  1  0.73023320  0.89510540  0.90195292  1
  Te  Te126  1  0.23240105  0.25045424  0.08553894  1
  Te  Te127  1  0.25732819  0.22356034  0.43931000  1
  Te  Te128  1  0.27239455  0.27095422  0.72949386  1
  Te  Te129  1  0.24786571  0.57803631  0.10231055  1
  Te  Te130  1  0.24952594  0.56022541  0.40159116  1
  Te  Te131  1  0.25126956  0.58683956  0.76641722  1
  Te  Te132  1  0.23479018  0.83984745  0.07168414  1
  Te  Te133  1  0.23726613  0.90312506  0.41241267  1
  Te  Te134  1  0.23528681  0.92470586  0.73973057  1
  Te  Te135  1  0.58327488  0.25102324  0.08157909  1
  Te  Te136  1  0.59029024  0.25932923  0.42028707  1
  Te  Te137  1  0.58461939  0.25023532  0.74569173  1
  Te  Te138  1  0.60512358  0.53342603  0.06756632  1
  Te  Te139  1  0.57646785  0.59473968  0.41001420  1
  Te  Te140  1  0.59245774  0.65679698  0.79226289  1
  Te  Te141  1  0.55814991  0.92863044  0.08120683  1
  Te  Te142  1  0.59360036  0.90994465  0.41299989  1
  Te  Te143  1  0.58341733  0.90861034  0.74648641  1
  Te  Te144  1  0.91220662  0.23622282  0.09992448  1
  Te  Te145  1  0.92084945  0.25076878  0.43118905  1
  Te  Te146  1  0.91044808  0.26713456  0.76005992  1
  Te  Te147  1  0.93141430  0.59098777  0.07923353  1
  Te  Te148  1  0.88587425  0.61377142  0.36023008  1
  Te  Te149  1  0.93883741  0.56373384  0.74407171  1
  Te  Te150  1  0.90387156  0.90862702  0.06671386  1
  Te  Te151  1  0.90710477  0.88882593  0.41099444  1
  Te  Te152  1  0.91866852  0.91312368  0.73869141  1
  Te  Te153  1  0.24765371  0.09251585  0.24642137  1
  Te  Te154  1  0.26854389  0.07753874  0.58299534  1
  Te  Te155  1  0.25086069  0.08896662  0.93908581  1
  Te  Te156  1  0.26961020  0.38545651  0.27328071  1
  Te  Te157  1  0.25516283  0.43244252  0.58654291  1
  Te  Te158  1  0.24616379  0.41239678  0.91888719  1
  Te  Te159  1  0.25610748  0.77440152  0.22400355  1
  Te  Te160  1  0.26104763  0.74818797  0.58915364  1
  Te  Te161  1  0.23339189  0.76208769  0.93241263  1
  Te  Te162  1  0.58956644  0.11859624  0.25437907  1
  Te  Te163  1  0.56228014  0.08447264  0.59085725  1
  Te  Te164  1  0.60095600  0.09257893  0.90733565  1
  Te  Te165  1  0.59393703  0.43020362  0.24783661  1
  Te  Te166  1  0.59714258  0.42185832  0.55514098  1
  Te  Te167  1  0.59111488  0.46810148  0.92532549  1
  Te  Te168  1  0.59086226  0.73956692  0.23717359  1
  Te  Te169  1  0.59365911  0.75093990  0.56902047  1
  Te  Te170  1  0.59894122  0.71974598  0.93488616  1
  Te  Te171  1  0.90994895  0.07703552  0.26765137  1
  Te  Te172  1  0.91017727  0.09803513  0.61007445  1
  Te  Te173  1  0.91575445  0.07480955  0.93568368  1
  Te  Te174  1  0.90632076  0.43299495  0.22709363  1
  Te  Te175  1  0.90817287  0.43465261  0.57248018  1
  Te  Te176  1  0.93417503  0.42133049  0.90385206  1
  Te  Te177  1  0.92737227  0.74734379  0.24906522  1
  Te  Te178  1  0.88800038  0.73320082  0.56379755  1
  Te  Te179  1  0.90507156  0.76635831  0.90841140  1
