# generated using pymatgen
data_In2Te3
_symmetry_space_group_name_H-M   'P 1'
_cell_length_a   19.01588847
_cell_length_b   19.01433638
_cell_length_c   19.02721753
_cell_angle_alpha   90.17622318
_cell_angle_beta   89.86366982
_cell_angle_gamma   90.14109339
_symmetry_Int_Tables_number   1
_chemical_formula_structural   In2Te3
_chemical_formula_sum   'In72 Te108'
_cell_volume   6879.68391029
_cell_formula_units_Z   36
loop_
 _symmetry_equiv_pos_site_id
 _symmetry_equiv_pos_as_xyz
  1  'x, y, z'
loop_
 _atom_site_type_symbol
 _atom_site_label
 _atom_site_symmetry_multiplicity
 _atom_site_fract_x
 _atom_site_fract_y
 _atom_site_fract_z
 _atom_site_occupancy
  In  In0  1  0.67417873  0.81632967  0.80377212  1
  In  In1  1  0.48200140  0.82489343  -0.02279209  1
  In  In2  1  0.81227746  0.84375907  0.35445530  1
  In  In3  1  0.59505455  0.63312402  0.22020061  1
  In  In4  1  0.18257252  0.17236880  0.32844476  1
  In  In5  1  -0.01733416  0.32062755  -0.00544185  1
  In  In6  1  0.82547225  0.66932299  0.81790535  1
  In  In7  1  0.35433600  0.15769890  0.81875686  1
  In  In8  1  0.16481271  0.53287380  0.35528618  1
  In  In9  1  -0.01489167  0.66331825  0.33862705  1
  In  In10  1  0.35007718  0.34278866  0.34521307  1
  In  In11  1  -0.02132325  0.31412802  0.67102225  1
  In  In12  1  -0.01465104  0.50282674  0.49266568  1
  In  In13  1  0.51963115  0.00228415  0.17337611  1
  In  In14  1  0.84334049  -0.00292425  0.16761137  1
  In  In15  1  0.15183904  0.17859710  0.00918865  1
  In  In16  1  0.82414630  0.16689021  0.68664471  1
  In  In17  1  -0.00149643  0.47706925  0.82134561  1
  In  In18  1  0.15001705  0.35071182  0.50100207  1
  In  In19  1  0.84341773  -0.00586640  0.84206231  1
  In  In20  1  0.65893601  0.46395161  0.15456866  1
  In  In21  1  0.00286911  0.66955426  0.65741990  1
  In  In22  1  -0.16335450  0.50995172  0.13960155  1
  In  In23  1  0.18329426  0.14840233  0.67677469  1
  In  In24  1  0.52192451  0.49375722  0.64129823  1
  In  In25  1  0.13377037  0.83414881  -0.01126103  1
  In  In26  1  0.15101100  0.00458235  0.85300895  1
  In  In27  1  0.16308044  0.65843164  0.80911329  1
  In  In28  1  -0.00204710  0.15704038  0.16272179  1
  In  In29  1  0.33501453  -0.02476947  -0.00392962  1
  In  In30  1  0.14598663  0.49134014  -0.01680033  1
  In  In31  1  0.49875303  0.15328042  0.01975601  1
  In  In32  1  0.79759125  0.17598240  -0.00946506  1
  In  In33  1  0.35387680  0.85357780  0.17308000  1
  In  In34  1  0.66254627  0.47154129  0.83539360  1
  In  In35  1  0.16263360  0.67272502  0.17547733  1
  In  In36  1  0.66888832  0.18052066  0.46890194  1
  In  In37  1  0.67453584  0.64103824  0.00888241  1
  In  In38  1  0.79801515  0.34598963  0.44269891  1
  In  In39  1  0.34934837  0.64700692  -0.01058943  1
  In  In40  1  0.34732621  0.01248034  0.66916228  1
  In  In41  1  0.33754583  0.53579960  0.51351535  1
  In  In42  1  0.80318780  0.49908427  0.63575253  1
  In  In43  1  0.36517241  -0.00822129  0.37218585  1
  In  In44  1  0.00813320  -0.00223003  0.68950214  1
  In  In45  1  0.82941372  0.00046555  0.50006842  1
  In  In46  1  0.47711548  0.68459085  0.38402547  1
  In  In47  1  -0.00346742  0.83076498  0.16261286  1
  In  In48  1  0.31284552  0.85078854  0.84479676  1
  In  In49  1  0.67015383  0.00675617  0.33175886  1
  In  In50  1  0.16423764  0.34393024  0.15133848  1
  In  In51  1  0.20703445  0.69614792  0.53432140  1
  In  In52  1  0.51225375  0.32962062  0.83109587  1
  In  In53  1  0.38173190  0.30538061  0.63007271  1
  In  In54  1  0.64685607  0.81314260  0.51983146  1
  In  In55  1  0.34051215  0.50625001  0.18029686  1
  In  In56  1  0.69557044  -0.01715385  0.67308244  1
  In  In57  1  0.84242118  0.77893816  0.00200979  1
  In  In58  1  0.47504385  0.32530987  0.16585961  1
  In  In59  1  0.15928350  0.84559648  0.32271690  1
  In  In60  1  0.18175807  0.51556152  0.67236959  1
  In  In61  1  0.30284572  0.33590023  -0.00084184  1
  In  In62  1  0.50991538  0.01991495  0.52128144  1
  In  In63  1  0.53842246  0.49800582  0.35262198  1
  In  In64  1  0.68847369  0.19698277  0.19908226  1
  In  In65  1  0.16642644  0.02517054  0.16650033  1
  In  In66  1  0.49278794  0.66440098  0.81250468  1
  In  In67  1  0.17242090  0.01216428  0.49584976  1
  In  In68  1  0.65754351  -0.01252038  -0.00239493  1
  In  In69  1  -0.00001598  0.83098929  0.51379819  1
  In  In70  1  -0.01603300  0.18132103  0.48363220  1
  In  In71  1  0.65878253  0.32226669  0.65488612  1
  Te  Te72  1  0.06686165  0.06578052  0.06095568  1
  Te  Te73  1  0.08023441  0.09103454  0.40668738  1
  Te  Te74  1  0.07360810  0.10690889  0.77207063  1
  Te  Te75  1  0.05738134  0.42495929  0.08631658  1
  Te  Te76  1  0.06775004  0.42035934  0.39567300  1
  Te  Te77  1  0.08951043  0.40484687  0.72476337  1
  Te  Te78  1  0.06601240  0.72867193  0.07460775  1
  Te  Te79  1  0.08647248  0.74858272  0.41497202  1
  Te  Te80  1  0.09710528  0.75707795  0.72604016  1
  Te  Te81  1  0.40383599  0.06469765  0.09769073  1
  Te  Te82  1  0.43506287  0.10969988  0.42934321  1
  Te  Te83  1  0.44862332  0.10876980  0.71764282  1
  Te  Te84  1  0.40477381  0.42175934  0.07345467  1
  Te  Te85  1  0.42265301  0.43918107  0.43463032  1
  Te  Te86  1  0.43146956  0.40742777  0.72888088  1
  Te  Te87  1  0.41636251  0.74375607  0.08894649  1
  Te  Te88  1  0.43353488  0.78859876  0.47972811  1
  Te  Te89  1  0.40147294  0.76949074  0.75429530  1
  Te  Te90  1  0.73027288  0.08062402  0.09993821  1
  Te  Te91  1  0.77340651  0.09530417  0.39757734  1
  Te  Te92  1  0.73856847  0.08394162  0.77836749  1
  Te  Te93  1  0.76081797  0.40065091  0.06353800  1
  Te  Te94  1  0.76886074  0.46655247  0.36217855  1
  Te  Te95  1  0.75693368  0.39976166  0.74040678  1
  Te  Te96  1  0.73857508  0.73755385  0.10266159  1
  Te  Te97  1  0.71876168  0.74247527  0.40870880  1
  Te  Te98  1  0.73474850  0.71640168  0.71497117  1
  Te  Te99  1  0.08631388  0.25200411  0.24339405  1
  Te  Te100  1  0.08816089  0.23482197  0.58324571  1
  Te  Te101  1  0.09832370  0.27399737  0.91510666  1
  Te  Te102  1  0.06810732  0.57688010  0.24588631  1
  Te  Te103  1  0.10150900  0.58223237  0.56200799  1
  Te  Te104  1  0.06506858  0.58874591  0.90105104  1
  Te  Te105  1  0.06991141  0.93678639  0.24415466  1
  Te  Te106  1  0.09562185  0.92184466  0.59010339  1
  Te  Te107  1  0.05040072  0.90651820  0.89472331  1
  Te  Te108  1  0.39918499  0.23915457  0.25592154  1
  Te  Te109  1  0.46568284  0.24509042  0.52592013  1
  Te  Te110  1  0.41236066  0.24899454  0.92746251  1
  Te  Te111  1  0.43758582  0.58131951  0.26592888  1
  Te  Te112  1  0.42086764  0.60479033  0.61533819  1
  Te  Te113  1  0.43879551  0.56740469  0.90778854  1
  Te  Te114  1  0.44909149  0.91084983  0.27399138  1
  Te  Te115  1  0.41655442  0.91709612  0.57865867  1
  Te  Te116  1  0.43309568  0.93772585  0.88878424  1
  Te  Te117  1  0.77191300  0.29177075  0.27955543  1
  Te  Te118  1  0.76910705  0.24768387  0.56947903  1
  Te  Te119  1  0.73109687  0.29973303  0.94800794  1
  Te  Te120  1  0.73234515  0.57445325  0.24327204  1
  Te  Te121  1  0.69143475  0.54239613  0.55087115  1
  Te  Te122  1  0.75718863  0.56747768  0.90685886  1
  Te  Te123  1  0.73998517  0.91105757  0.23906095  1
  Te  Te124  1  0.76797908  0.88905160  0.57906008  1
  Te  Te125  1  0.74475482  0.89502466  0.91592542  1
  Te  Te126  1  0.25645663  0.23452133  0.10252357  1
  Te  Te127  1  0.25069181  0.26184881  0.42917812  1
  Te  Te128  1  0.27490224  0.25374597  0.73295796  1
  Te  Te129  1  0.24094558  0.57472328  0.08626701  1
  Te  Te130  1  0.26905535  0.62598613  0.41351373  1
  Te  Te131  1  0.27414587  0.57148754  0.77119272  1
  Te  Te132  1  0.23096991  0.90254657  0.08814906  1
  Te  Te133  1  0.25256938  0.90318921  0.42733384  1
  Te  Te134  1  0.23917990  0.93911105  0.74786508  1
  Te  Te135  1  0.58677164  0.24828815  0.09694172  1
  Te  Te136  1  0.57880802  0.29003732  0.42924464  1
  Te  Te137  1  0.58418055  0.23465978  0.74556090  1
  Te  Te138  1  0.56769801  0.56813989  0.08607471  1
  Te  Te139  1  0.57971035  0.60012885  0.45683802  1
  Te  Te140  1  0.59764252  0.57360960  0.74580826  1
  Te  Te141  1  0.57277746  0.89422656  0.08135767  1
  Te  Te142  1  0.59417512  0.92825529  0.43398167  1
  Te  Te143  1  0.58634639  0.90777957  0.73358884  1
  Te  Te144  1  0.89749756  0.24180145  0.09109469  1
  Te  Te145  1  0.90974620  0.26398446  0.38773894  1
  Te  Te146  1  0.90083901  0.25238873  0.77711354  1
  Te  Te147  1  0.86406768  0.64201320  0.07343031  1
  Te  Te148  1  0.89329979  0.60430621  0.43894503  1
  Te  Te149  1  0.91566558  0.56254496  0.72072739  1
  Te  Te150  1  0.90845851  0.90604946  0.06751518  1
  Te  Te151  1  0.92845870  0.92183516  0.41673198  1
  Te  Te152  1  0.90254488  0.90976773  0.73699490  1
  Te  Te153  1  0.26604802  0.05856169  0.27292438  1
  Te  Te154  1  0.27362648  0.09868309  0.56669108  1
  Te  Te155  1  0.25782481  0.08819691  0.92429594  1
  Te  Te156  1  0.24046133  0.42823863  0.26439972  1
  Te  Te157  1  0.26261846  0.41689371  0.57979127  1
  Te  Te158  1  0.24363109  0.42295869  0.89904738  1
  Te  Te159  1  0.26150299  0.75909515  0.25049277  1
  Te  Te160  1  0.30017801  0.72383428  0.64303880  1
  Te  Te161  1  0.24703358  0.74362029  0.93053246  1
  Te  Te162  1  0.58073500  0.10798910  0.26413078  1
  Te  Te163  1  0.63035579  0.08800179  0.58123970  1
  Te  Te164  1  0.57939712  0.08335092  0.92109572  1
  Te  Te165  1  0.57939259  0.38765508  0.25887391  1
  Te  Te166  1  0.60418431  0.40670875  0.54311293  1
  Te  Te167  1  0.59070138  0.39334155  0.93942374  1
  Te  Te168  1  0.58466076  0.75243490  0.30399931  1
  Te  Te169  1  0.53499168  0.73155699  0.57640905  1
  Te  Te170  1  0.58871645  0.73553712  0.91644143  1
  Te  Te171  1  0.90936550  0.09026162  0.25838599  1
  Te  Te172  1  0.92170235  0.08374918  0.59058646  1
  Te  Te173  1  0.90349013  0.09990382  0.92445538  1
  Te  Te174  1  0.86874215  0.41855581  0.25600543  1
  Te  Te175  1  0.90483286  0.39903384  0.56787012  1
  Te  Te176  1  0.90648658  0.42051739  0.91887062  1
  Te  Te177  1  0.90405663  0.76158702  0.25949720  1
  Te  Te178  1  0.90629026  0.72734620  0.56209531  1
  Te  Te179  1  0.92607324  0.74916152  0.88505811  1
