# generated using pymatgen
data_In2Te3
_symmetry_space_group_name_H-M   'P 1'
_cell_length_a   19.04642240
_cell_length_b   19.03138795
_cell_length_c   18.97718701
_cell_angle_alpha   90.03985356
_cell_angle_beta   90.00251707
_cell_angle_gamma   89.75731999
_symmetry_Int_Tables_number   1
_chemical_formula_structural   In2Te3
_chemical_formula_sum   'In72 Te108'
_cell_volume   6878.78459883
_cell_formula_units_Z   36
loop_
 _symmetry_equiv_pos_site_id
 _symmetry_equiv_pos_as_xyz
  1  'x, y, z'
loop_
 _atom_site_type_symbol
 _atom_site_label
 _atom_site_symmetry_multiplicity
 _atom_site_fract_x
 _atom_site_fract_y
 _atom_site_fract_z
 _atom_site_occupancy
  In  In0  1  0.64587873  -0.02811907  -0.00346424  1
  In  In1  1  -0.00924716  0.83109954  0.51275052  1
  In  In2  1  0.46725652  0.33242922  0.83942499  1
  In  In3  1  0.01915913  0.17534847  0.50478330  1
  In  In4  1  0.00298700  0.49394936  0.17230568  1
  In  In5  1  0.83018439  0.51231436  -0.00375361  1
  In  In6  1  0.32801532  0.30621660  0.30025366  1
  In  In7  1  -0.01727427  0.80219508  0.84793191  1
  In  In8  1  0.67359388  0.57216324  0.74561419  1
  In  In9  1  0.68715320  0.50724312  0.15718426  1
  In  In10  1  0.16851161  0.00959952  0.50554576  1
  In  In11  1  0.66866756  -0.01043185  0.66557072  1
  In  In12  1  0.28817710  0.53302522  0.24996195  1
  In  In13  1  -0.02305880  0.84148920  0.16680078  1
  In  In14  1  0.15357410  0.34779088  0.80932480  1
  In  In15  1  0.30683077  0.18839742  0.85029039  1
  In  In16  1  0.83459352  0.48499407  0.65872038  1
  In  In17  1  0.35379807  0.02647219  0.00869919  1
  In  In18  1  0.13109315  0.01616796  0.83885078  1
  In  In19  1  0.68283309  0.31385916  0.31909523  1
  In  In20  1  0.13371630  0.67770102  0.18997935  1
  In  In21  1  0.17776151  0.86765912  0.33319525  1
  In  In22  1  0.65476082  0.15206607  0.16781363  1
  In  In23  1  0.16715500  0.50395162  0.00683346  1
  In  In24  1  0.32005349  0.03732377  0.32841940  1
  In  In25  1  0.52268905  -0.01935465  0.16633462  1
  In  In26  1  0.13715418  0.35376003  0.46189810  1
  In  In27  1  0.49912552  0.50988012  -0.00647584  1
  In  In28  1  0.67425530  0.12590246  0.83893857  1
  In  In29  1  0.31959025  0.38720283  0.67710700  1
  In  In30  1  0.17797618  0.82892698  0.02178685  1
  In  In31  1  0.68096440  0.50884371  0.52082192  1
  In  In32  1  0.84520724  0.35580660  0.83847993  1
  In  In33  1  -0.01252462  0.02254815  0.66380810  1
  In  In34  1  0.15365758  0.65794767  0.86209129  1
  In  In35  1  0.49044665  0.50554663  0.31667979  1
  In  In36  1  0.34596630  0.84281276  0.16797625  1
  In  In37  1  0.68396349  0.69120162  0.36844236  1
  In  In38  1  0.81745054  -0.00724257  0.83598705  1
  In  In39  1  0.82118468  0.82974708  0.66638632  1
  In  In40  1  0.52375288  0.82563994  0.35825366  1
  In  In41  1  0.82804834  0.14269576  0.34200383  1
  In  In42  1  0.83080939  0.65782995  0.81615962  1
  In  In43  1  -0.02466446  0.66411041  0.36457480  1
  In  In44  1  0.52534216  0.34969663  0.48277169  1
  In  In45  1  0.47845931  0.34243012  0.15629216  1
  In  In46  1  0.33594739  0.18846792  0.50610879  1
  In  In47  1  -0.00189288  0.20819358  0.82348530  1
  In  In48  1  0.15118531  0.50328997  0.64620707  1
  In  In49  1  0.34020065  0.52553579  0.85526696  1
  In  In50  1  0.85224738  0.17048443  0.01423943  1
  In  In51  1  0.50579450  0.67222246  0.50961246  1
  In  In52  1  0.68595994  0.34138838  0.00325875  1
  In  In53  1  0.34786670  0.66267681  0.01296537  1
  In  In54  1  0.84922927  0.50084448  0.33394178  1
  In  In55  1  0.47078430  0.17340745  0.67812145  1
  In  In56  1  0.17548935  0.81326470  0.68788303  1
  In  In57  1  0.79839118  -0.02733227  0.17482207  1
  In  In58  1  -0.00254587  -0.01190159  0.33259958  1
  In  In59  1  0.66868065  0.30995112  0.66195312  1
  In  In60  1  0.17856538  0.65923968  0.48051815  1
  In  In61  1  0.33134350  0.64221060  0.63658302  1
  In  In62  1  0.02300353  0.16248361  0.17687410  1
  In  In63  1  0.30094990  0.31751784  0.03378636  1
  In  In64  1  0.51128376  -0.01587955  0.82854210  1
  In  In65  1  0.33824298  -0.01940350  0.66271917  1
  In  In66  1  0.86746454  0.32824351  0.48122789  1
  In  In67  1  0.36923358  0.83292288  0.82659851  1
  In  In68  1  0.49768993  -0.01522091  0.49557756  1
  In  In69  1  0.66479894  0.67090074  -0.02251460  1
  In  In70  1  0.66708946  0.15192053  0.48737397  1
  In  In71  1  -0.02437822  -0.00693565  0.01228896  1
  Te  Te72  1  0.07928097  0.07151135  0.07478191  1
  Te  Te73  1  0.09230002  0.08346082  0.40006032  1
  Te  Te74  1  0.08635226  0.11211973  0.73379245  1
  Te  Te75  1  0.11364918  0.41467275  0.11191968  1
  Te  Te76  1  0.04756271  0.42955061  0.37393261  1
  Te  Te77  1  0.06556437  0.45232637  0.75529153  1
  Te  Te78  1  0.06266288  0.74877494  0.07738613  1
  Te  Te79  1  0.08675854  0.77002718  0.40446689  1
  Te  Te80  1  0.07187801  0.72468896  0.75158773  1
  Te  Te81  1  0.42930958  0.08753853  0.11974631  1
  Te  Te82  1  0.42292131  0.09789845  0.42248357  1
  Te  Te83  1  0.39954373  0.08151264  0.77433930  1
  Te  Te84  1  0.39410246  0.43351152  0.07157824  1
  Te  Te85  1  0.41656826  0.39724316  0.39027725  1
  Te  Te86  1  0.43106282  0.45257789  0.75399357  1
  Te  Te87  1  0.43155820  0.75356602  0.08878979  1
  Te  Te88  1  0.42024271  0.74141156  0.41444194  1
  Te  Te89  1  0.41275011  0.74022483  0.72047138  1
  Te  Te90  1  0.74536953  0.07449513  0.06250278  1
  Te  Te91  1  0.72324851  0.05247896  0.39256313  1
  Te  Te92  1  0.76907702  0.08963706  0.72910047  1
  Te  Te93  1  0.78090281  0.40460653  0.10034742  1
  Te  Te94  1  0.74436245  0.40680978  0.42076404  1
  Te  Te95  1  0.72644353  0.41755054  0.75105837  1
  Te  Te96  1  0.78540349  0.67847825  0.06335568  1
  Te  Te97  1  0.79395513  0.78341974  0.40709514  1
  Te  Te98  1  0.74390023  0.77392308  0.78001246  1
  Te  Te99  1  0.13677598  0.24156604  0.23147330  1
  Te  Te100  1  0.08408732  0.28255018  0.57812019  1
  Te  Te101  1  0.09877037  0.26131337  0.91327653  1
  Te  Te102  1  0.07252105  0.57523999  0.28343663  1
  Te  Te103  1  0.07807465  0.59962339  0.56603895  1
  Te  Te104  1  0.06114908  0.57763305  0.93858066  1
  Te  Te105  1  0.08754782  0.92668393  0.22691597  1
  Te  Te106  1  0.09252962  0.91872675  0.60064115  1
  Te  Te107  1  0.08206170  0.89721631  0.92134077  1
  Te  Te108  1  0.42213014  0.22205318  0.22168028  1
  Te  Te109  1  0.42353773  0.28493009  0.58706003  1
  Te  Te110  1  0.40729996  0.24496318  0.94681432  1
  Te  Te111  1  0.41832141  0.59248111  0.22508377  1
  Te  Te112  1  0.42203346  0.56164769  0.55677390  1
  Te  Te113  1  0.45956851  0.62004778  0.89200880  1
  Te  Te114  1  0.41573668  0.92940920  0.26965742  1
  Te  Te115  1  0.43629233  0.89571633  0.59641874  1
  Te  Te116  1  0.43083128  0.91473868  0.93767238  1
  Te  Te117  1  0.76953586  0.22990541  0.23050979  1
  Te  Te118  1  0.75883522  0.24783398  0.55928787  1
  Te  Te119  1  0.75335019  0.23792716  0.90868665  1
  Te  Te120  1  0.74715393  0.58955659  0.26716923  1
  Te  Te121  1  0.74586853  0.61047926  0.61274481  1
  Te  Te122  1  0.72203903  0.55696275  0.89272864  1
  Te  Te123  1  0.78668069  0.86293042  0.27405688  1
  Te  Te124  1  0.76072770  0.92476346  0.57275758  1
  Te  Te125  1  0.72467707  0.89598817  0.89488934  1
  Te  Te126  1  0.23616904  0.21064152  0.11369924  1
  Te  Te127  1  0.23907045  0.24734922  0.41003110  1
  Te  Te128  1  0.25364570  0.26300669  0.73010707  1
  Te  Te129  1  0.23640004  0.60532716  0.09675945  1
  Te  Te130  1  0.25096206  0.56931073  0.38952402  1
  Te  Te131  1  0.24282607  0.58866839  0.75729433  1
  Te  Te132  1  0.25723488  0.93644692  0.08877557  1
  Te  Te133  1  0.27266136  0.92980060  0.43146739  1
  Te  Te134  1  0.24514002  0.92050957  0.77192261  1
  Te  Te135  1  0.58738511  0.25939045  0.08302878  1
  Te  Te136  1  0.57863523  0.23712404  0.39673765  1
  Te  Te137  1  0.57643138  0.23937398  0.76629780  1
  Te  Te138  1  0.58452413  0.59089388  0.08742811  1
  Te  Te139  1  0.59248400  0.56789748  0.41116903  1
  Te  Te140  1  0.55804053  0.65423719  0.69469720  1
  Te  Te141  1  0.61128947  0.88022295  0.10498898  1
  Te  Te142  1  0.60901890  0.90122282  0.45122205  1
  Te  Te143  1  0.57092996  0.89930758  0.72601162  1
  Te  Te144  1  0.94760591  0.25175872  0.08631713  1
  Te  Te145  1  0.93873792  0.23402841  0.38703225  1
  Te  Te146  1  0.90722314  0.27663684  0.73339952  1
  Te  Te147  1  0.90414659  0.58553403  0.10680121  1
  Te  Te148  1  0.88037198  0.58927216  0.44631044  1
  Te  Te149  1  0.91809575  0.55170695  0.76170813  1
  Te  Te150  1  0.87468255  0.89663378  0.06576714  1
  Te  Te151  1  0.90587483  0.91129602  0.41970715  1
  Te  Te152  1  0.93109592  0.91624699  0.76035546  1
  Te  Te153  1  0.23251641  0.11087049  0.23464122  1
  Te  Te154  1  0.25976525  0.09131786  0.59446658  1
  Te  Te155  1  0.23352091  0.08250960  0.92760962  1
  Te  Te156  1  0.22729500  0.39910518  0.23854809  1
  Te  Te157  1  0.24345037  0.42585622  0.55541108  1
  Te  Te158  1  0.25653883  0.41333374  0.91344783  1
  Te  Te159  1  0.24549544  0.76142887  0.24939146  1
  Te  Te160  1  0.25419347  0.75859317  0.57330284  1
  Te  Te161  1  0.26686990  0.75256156  0.91618786  1
  Te  Te162  1  0.60836590  0.05191460  0.26509558  1
  Te  Te163  1  0.56847810  0.09393244  0.59443722  1
  Te  Te164  1  0.56537171  0.08354396  0.93187732  1
  Te  Te165  1  0.59295333  0.40929453  0.24005237  1
  Te  Te166  1  0.58522113  0.42275067  0.60069995  1
  Te  Te167  1  0.57573850  0.40499287  0.91658560  1
  Te  Te168  1  0.60359899  0.75041428  0.26067730  1
  Te  Te169  1  0.62543802  0.72263387  0.58037959  1
  Te  Te170  1  0.55106917  0.73600553  0.91474660  1
  Te  Te171  1  0.90565763  0.06341645  0.23019853  1
  Te  Te172  1  0.91480103  0.08745338  0.55670668  1
  Te  Te173  1  0.92309792  0.08575560  0.90192554  1
  Te  Te174  1  0.93644029  0.39804426  0.26926544  1
  Te  Te175  1  0.92992695  0.43379152  0.55983182  1
  Te  Te176  1  0.92257806  0.40814525  0.94909564  1
  Te  Te177  1  0.90764793  0.74708253  0.25774681  1
  Te  Te178  1  0.92186819  0.74295475  0.60473042  1
  Te  Te179  1  0.88889706  0.72888402  0.93325905  1
