# generated using pymatgen
data_In2Te3
_symmetry_space_group_name_H-M   'P 1'
_cell_length_a   18.94995317
_cell_length_b   18.93674875
_cell_length_c   18.92334047
_cell_angle_alpha   90.17336093
_cell_angle_beta   89.93789797
_cell_angle_gamma   90.10858124
_symmetry_Int_Tables_number   1
_chemical_formula_structural   In2Te3
_chemical_formula_sum   'In72 Te108'
_cell_volume   6790.60300351
_cell_formula_units_Z   36
loop_
 _symmetry_equiv_pos_site_id
 _symmetry_equiv_pos_as_xyz
  1  'x, y, z'
loop_
 _atom_site_type_symbol
 _atom_site_label
 _atom_site_symmetry_multiplicity
 _atom_site_fract_x
 _atom_site_fract_y
 _atom_site_fract_z
 _atom_site_occupancy
  In  In0  1  0.18205447  0.50025872  0.67439389  1
  In  In1  1  0.66310430  0.66368193  -0.01823870  1
  In  In2  1  0.80530023  0.31456709  0.49101566  1
  In  In3  1  0.34910440  0.02420237  0.66366686  1
  In  In4  1  0.66361392  -0.00226215  0.65170869  1
  In  In5  1  0.49854393  0.00778617  0.16696039  1
  In  In6  1  0.79675258  0.50405486  0.64828388  1
  In  In7  1  0.34274262  0.31687967  0.32289618  1
  In  In8  1  0.54653333  0.81493717  -0.01923147  1
  In  In9  1  -0.02089122  0.29794170  0.66208572  1
  In  In10  1  0.01959587  0.51933957  0.84586291  1
  In  In11  1  0.63099822  0.31564845  0.36151965  1
  In  In12  1  0.84132490  0.82724648  0.01913403  1
  In  In13  1  0.32611467  0.48172498  0.50258798  1
  In  In14  1  0.49667366  0.67475684  0.18512521  1
  In  In15  1  0.49981534  0.47270687  -0.00592062  1
  In  In16  1  -0.00851880  0.83324365  0.81885421  1
  In  In17  1  0.15768374  0.16551613  0.66861591  1
  In  In18  1  0.16765540  0.01893557  0.18640124  1
  In  In19  1  0.18284702  0.47826220  0.33143713  1
  In  In20  1  0.81364289  -0.00302304  0.16488108  1
  In  In21  1  -0.02189427  0.01950312  -0.04769956  1
  In  In22  1  0.68274104  -0.00455715  0.34814952  1
  In  In23  1  0.33939480  0.84432431  0.18619917  1
  In  In24  1  0.34025506  0.50025001  0.84116705  1
  In  In25  1  0.14866336  0.80961816  0.32561671  1
  In  In26  1  0.00089665  0.66777404  0.67775142  1
  In  In27  1  0.50710570  -0.00013654  0.50382490  1
  In  In28  1  0.31255584  0.66434869  0.65604206  1
  In  In29  1  0.33892477  0.65351113  0.02064906  1
  In  In30  1  0.66931801  0.18119638  0.83327644  1
  In  In31  1  0.14447559  0.80184138  0.03021611  1
  In  In32  1  0.01081704  0.49278293  0.51547854  1
  In  In33  1  0.81621754  0.49620400  0.32587108  1
  In  In34  1  0.50057020  0.67477935  0.49505791  1
  In  In35  1  0.82545381  0.15265923  0.66365924  1
  In  In36  1  0.50057031  0.51947695  0.32982522  1
  In  In37  1  0.66527326  0.16916661  0.17505087  1
  In  In38  1  0.33557754  0.00535023  -0.00437300  1
  In  In39  1  0.82028756  0.67547144  0.82755045  1
  In  In40  1  0.49956253  0.01297161  0.80784207  1
  In  In41  1  0.81449552  0.67833487  0.49373572  1
  In  In42  1  0.33846439  0.82787948  0.83641115  1
  In  In43  1  0.15945619  0.01028309  0.84192005  1
  In  In44  1  0.49885977  0.33759479  0.82527213  1
  In  In45  1  0.69753231  -0.00301902  -0.02333963  1
  In  In46  1  0.84639556  0.51284950  0.01009580  1
  In  In47  1  0.49157535  0.20143478  -0.02078490  1
  In  In48  1  0.00982302  0.32113131  -0.01851430  1
  In  In49  1  0.15852627  0.32610947  0.80706819  1
  In  In50  1  0.00262520  0.14697387  0.16980233  1
  In  In51  1  0.50398881  0.83190215  0.66039418  1
  In  In52  1  -0.02522719  0.68206016  0.33276933  1
  In  In53  1  0.57509322  0.47765883  0.68937519  1
  In  In54  1  0.65559544  0.83466646  0.19576035  1
  In  In55  1  0.34223895  0.65796210  0.33335649  1
  In  In56  1  0.20226732  0.19405757  0.01505166  1
  In  In57  1  0.68060639  0.52738867  0.18699561  1
  In  In58  1  0.17081154  0.83307666  0.65867644  1
  In  In59  1  0.16367428  0.51212451  0.00409762  1
  In  In60  1  0.82140152  0.32507691  0.80348878  1
  In  In61  1  0.18455657  0.16646977  0.33652893  1
  In  In62  1  0.33621708  0.01035732  0.32562041  1
  In  In63  1  0.00552135  0.52274178  0.15818993  1
  In  In64  1  0.84165402  0.00511406  0.49150914  1
  In  In65  1  0.82305771  0.84162023  0.66262065  1
  In  In66  1  0.83223331  0.32381631  0.16008078  1
  In  In67  1  0.00006395  0.32604298  0.35248343  1
  In  In68  1  0.48018116  0.33556174  0.16392762  1
  In  In69  1  -0.01627783  -0.01050932  0.33124873  1
  In  In70  1  0.36008933  0.18840080  0.52592562  1
  In  In71  1  0.14844247  -0.02034148  0.49609737  1
  Te  Te72  1  0.09880872  0.08679604  0.06794225  1
  Te  Te73  1  0.08025335  0.08167778  0.40674364  1
  Te  Te74  1  0.07511734  0.06301664  0.73575982  1
  Te  Te75  1  0.07849082  0.41028899  0.08214631  1
  Te  Te76  1  0.10174095  0.40076335  0.43723996  1
  Te  Te77  1  0.05881371  0.41705127  0.73493685  1
  Te  Te78  1  0.04600430  0.73005030  0.11133140  1
  Te  Te79  1  0.06511457  0.74802165  0.42800449  1
  Te  Te80  1  0.10063695  0.74532020  0.76173025  1
  Te  Te81  1  0.42215204  0.10004276  0.07579381  1
  Te  Te82  1  0.41898977  0.09343354  0.42157568  1
  Te  Te83  1  0.41962573  0.12157302  0.74959735  1
  Te  Te84  1  0.38766629  0.39750270  0.05985548  1
  Te  Te85  1  0.42395556  0.41506814  0.40848645  1
  Te  Te86  1  0.42824889  0.43948585  0.73722790  1
  Te  Te87  1  0.43248205  0.77287639  0.08038967  1
  Te  Te88  1  0.41504790  0.75834664  0.40946581  1
  Te  Te89  1  0.41436091  0.73863581  0.74370387  1
  Te  Te90  1  0.75495666  0.10183253  0.07222228  1
  Te  Te91  1  0.75475048  0.10022033  0.42112127  1
  Te  Te92  1  0.74340202  0.06982257  0.76064839  1
  Te  Te93  1  0.74835200  0.42738623  0.08932571  1
  Te  Te94  1  0.72445588  0.42184395  0.42063320  1
  Te  Te95  1  0.71731194  0.41065443  0.73529544  1
  Te  Te96  1  0.72841078  0.75160797  0.08790588  1
  Te  Te97  1  0.73826354  0.71662666  0.37323377  1
  Te  Te98  1  0.74005624  0.73372387  0.72085275  1
  Te  Te99  1  0.08442981  0.24514076  0.25202487  1
  Te  Te100  1  0.07623872  0.24027949  0.57153660  1
  Te  Te101  1  0.09966406  0.22696686  0.90541232  1
  Te  Te102  1  0.07649773  0.57448579  0.28116161  1
  Te  Te103  1  0.09852980  0.59307962  0.58714978  1
  Te  Te104  1  0.07616453  0.61306387  0.94086254  1
  Te  Te105  1  0.07517779  0.91194526  0.23697282  1
  Te  Te106  1  0.06771687  0.92259590  0.60514806  1
  Te  Te107  1  0.09045047  0.90380010  0.92774297  1
  Te  Te108  1  0.45408054  0.23635108  0.26915862  1
  Te  Te109  1  0.45902377  0.29149005  0.57690128  1
  Te  Te110  1  0.39036319  0.27895251  0.90880623  1
  Te  Te111  1  0.40108201  0.56353092  0.22552187  1
  Te  Te112  1  0.41235182  0.57981476  0.57906423  1
  Te  Te113  1  0.43394192  0.58947289  0.92172851  1
  Te  Te114  1  0.44282276  0.91294922  0.27208948  1
  Te  Te115  1  0.40512399  0.91230830  0.57759873  1
  Te  Te116  1  0.43361740  0.91566210  0.91903654  1
  Te  Te117  1  0.74375405  0.26213709  0.26599596  1
  Te  Te118  1  0.74298880  0.26358455  0.61525872  1
  Te  Te119  1  0.74828736  0.27184307  0.91870979  1
  Te  Te120  1  0.77570866  0.62288962  0.25528369  1
  Te  Te121  1  0.71530207  0.59320263  0.56646524  1
  Te  Te122  1  0.74896843  0.56460543  0.90479686  1
  Te  Te123  1  0.77169403  0.89755235  0.26976460  1
  Te  Te124  1  0.73565585  0.90603657  0.55586651  1
  Te  Te125  1  0.76294923  0.88550892  0.90812945  1
  Te  Te126  1  0.28534549  0.28230641  0.09692724  1
  Te  Te127  1  0.25847598  0.25559642  0.43392839  1
  Te  Te128  1  0.25877682  0.26433308  0.71710125  1
  Te  Te129  1  0.24397417  0.58255965  0.10590275  1
  Te  Te130  1  0.24539160  0.58285932  0.42396573  1
  Te  Te131  1  0.24233618  0.59557584  0.77474099  1
  Te  Te132  1  0.24891697  0.92249500  0.09103990  1
  Te  Te133  1  0.24135827  0.91462566  0.39369153  1
  Te  Te134  1  0.26366927  0.93144136  0.75345230  1
  Te  Te135  1  0.58645851  0.26052513  0.08285258  1
  Te  Te136  1  0.57575319  0.24604049  0.48115038  1
  Te  Te137  1  0.55761705  0.22358782  0.74635106  1
  Te  Te138  1  0.57719224  0.58338440  0.08735808  1
  Te  Te139  1  0.59545870  0.58646759  0.41818927  1
  Te  Te140  1  0.57609838  0.59583700  0.77356763  1
  Te  Te141  1  0.60281799  0.93190769  0.08625909  1
  Te  Te142  1  0.60181139  0.90800488  0.43675869  1
  Te  Te143  1  0.59541206  0.90879847  0.75605715  1
  Te  Te144  1  0.92310996  0.23680676  0.07508266  1
  Te  Te145  1  0.90546024  0.23598791  0.41776844  1
  Te  Te146  1  0.93009130  0.21642673  0.78161261  1
  Te  Te147  1  0.90805478  0.61632941  0.09687776  1
  Te  Te148  1  0.91045463  0.56623457  0.43021384  1
  Te  Te149  1  0.90764901  0.56755345  0.74495921  1
  Te  Te150  1  0.92414288  0.94411205  0.07146546  1
  Te  Te151  1  0.91758011  0.89767909  0.42317238  1
  Te  Te152  1  0.89489055  0.92560700  0.76131511  1
  Te  Te153  1  0.27847056  0.11233483  0.22881577  1
  Te  Te154  1  0.25125402  0.07910910  0.56138610  1
  Te  Te155  1  0.26476923  0.10005299  0.90350091  1
  Te  Te156  1  0.24442490  0.38470727  0.23449195  1
  Te  Te157  1  0.25657444  0.39608778  0.60253878  1
  Te  Te158  1  0.23142393  0.41645495  0.90673846  1
  Te  Te159  1  0.24891456  0.73568826  0.23654859  1
  Te  Te160  1  0.25352560  0.76016341  0.56351386  1
  Te  Te161  1  0.25485713  0.75020066  0.93678518  1
  Te  Te162  1  0.58402681  0.08255678  0.26834307  1
  Te  Te163  1  0.57780933  0.09902674  0.58842709  1
  Te  Te164  1  0.57787165  0.07929919  0.92300089  1
  Te  Te165  1  0.58894759  0.41790915  0.24482017  1
  Te  Te166  1  0.57556712  0.39408654  0.56666350  1
  Te  Te167  1  0.59885173  0.39821977  0.91776540  1
  Te  Te168  1  0.58824999  0.73602599  0.28466480  1
  Te  Te169  1  0.59564701  0.74606741  0.58471155  1
  Te  Te170  1  0.58519640  0.72222921  0.86703085  1
  Te  Te171  1  0.89437546  0.08805367  0.25650093  1
  Te  Te172  1  0.92595796  0.07963943  0.58750974  1
  Te  Te173  1  0.88939521  0.11636976  0.89386436  1
  Te  Te174  1  0.92380072  0.41828340  0.24687065  1
  Te  Te175  1  0.90069556  0.40938631  0.58281329  1
  Te  Te176  1  0.91673310  0.41722635  0.90894042  1
  Te  Te177  1  0.94011069  0.76564490  0.21641196  1
  Te  Te178  1  0.91777449  0.74950442  0.58372379  1
  Te  Te179  1  0.92102131  0.74190771  0.91810566  1
