# generated using pymatgen
data_In2Te3
_symmetry_space_group_name_H-M   'P 1'
_cell_length_a   18.77951871
_cell_length_b   18.78175939
_cell_length_c   18.78143127
_cell_angle_alpha   90.00135920
_cell_angle_beta   90.00300721
_cell_angle_gamma   90.10032616
_symmetry_Int_Tables_number   1
_chemical_formula_structural   In2Te3
_chemical_formula_sum   'In72 Te108'
_cell_volume   6624.43356537
_cell_formula_units_Z   36
loop_
 _symmetry_equiv_pos_site_id
 _symmetry_equiv_pos_as_xyz
  1  'x, y, z'
loop_
 _atom_site_type_symbol
 _atom_site_label
 _atom_site_symmetry_multiplicity
 _atom_site_fract_x
 _atom_site_fract_y
 _atom_site_fract_z
 _atom_site_occupancy
  In  In0  1  -0.00544794  0.49412055  0.49528457  1
  In  In1  1  0.66811775  0.32479655  0.34395668  1
  In  In2  1  0.67731903  0.48931738  0.85263451  1
  In  In3  1  0.15652032  0.82705905  0.66906237  1
  In  In4  1  0.67166307  0.67575366  0.65475650  1
  In  In5  1  0.00091676  0.15337508  0.46988801  1
  In  In6  1  0.68277292  0.48399974  0.49615235  1
  In  In7  1  0.31815506  0.83536503  0.51325074  1
  In  In8  1  0.83786286  0.01583130  0.17518351  1
  In  In9  1  0.16110601  0.68065015  0.49181166  1
  In  In10  1  0.66158677  0.65699630  -0.03277888  1
  In  In11  1  0.17112596  0.17096310  0.66938019  1
  In  In12  1  0.66815167  0.85257154  0.48761114  1
  In  In13  1  0.34308435  0.82205021  0.84436565  1
  In  In14  1  0.17278767  0.52180647  0.68249457  1
  In  In15  1  -0.00435052  0.35480474  0.66022340  1
  In  In16  1  0.68531155  0.48666424  0.15041184  1
  In  In17  1  -0.01296859  0.49298687  0.84101645  1
  In  In18  1  0.49854673  0.66585630  0.50017460  1
  In  In19  1  0.84893582  0.64041232  0.15384504  1
  In  In20  1  0.16301160  0.00408415  0.87155047  1
  In  In21  1  0.34294884  0.51040211  0.47967800  1
  In  In22  1  0.14707777  0.00156970  0.48512579  1
  In  In23  1  0.87897734  0.68067380  0.52019312  1
  In  In24  1  0.47659445  0.49165842  0.33998762  1
  In  In25  1  0.32616908  0.67584761  0.00456665  1
  In  In26  1  0.66081518  0.82096201  0.83517698  1
  In  In27  1  0.00939346  0.83151719  0.17028534  1
  In  In28  1  0.66673664  0.34178315  0.66760722  1
  In  In29  1  0.00515149  -0.03083183  0.66075474  1
  In  In30  1  0.34164866  0.14834540  0.85644697  1
  In  In31  1  0.68570237  0.66427893  0.30883607  1
  In  In32  1  0.30829363  0.17032019  0.16938403  1
  In  In33  1  0.01402757  0.85263616  0.83961153  1
  In  In34  1  0.48645698  0.33129789  0.15237924  1
  In  In35  1  0.00661999  0.65285444  0.02639454  1
  In  In36  1  0.66978844  0.00437624  0.66241713  1
  In  In37  1  0.17931329  0.33098548  0.47485380  1
  In  In38  1  0.16574844  0.68099502  0.81764461  1
  In  In39  1  0.49905179  0.69323677  0.83887258  1
  In  In40  1  0.84768624  0.32947523  0.16532722  1
  In  In41  1  0.49729462  0.00377908  0.82875312  1
  In  In42  1  0.34542202  -0.00644252  0.67013617  1
  In  In43  1  0.16521289  0.83959800  0.32777700  1
  In  In44  1  0.16008018  0.48896622  0.02836180  1
  In  In45  1  0.49787026  0.17721929  0.00818075  1
  In  In46  1  0.66280815  0.85214685  0.16066434  1
  In  In47  1  0.00451770  0.17269825  0.85586309  1
  In  In48  1  0.31169003  0.66151048  0.31704025  1
  In  In49  1  0.83752305  -0.01668952  0.48267920  1
  In  In50  1  0.36298619  0.14709745  0.46937444  1
  In  In51  1  0.83089494  0.64332022  0.82830236  1
  In  In52  1  0.82768612  0.17281502  -0.00031932  1
  In  In53  1  0.47489446  0.67858122  0.16814563  1
  In  In54  1  0.16787195  0.33021306  0.88521161  1
  In  In55  1  0.84303421  0.17938879  0.32099415  1
  In  In56  1  0.81120699  0.16394731  0.66146869  1
  In  In57  1  0.81639003  0.81993952  -0.01199397  1
  In  In58  1  0.01189965  0.02945289  0.03290892  1
  In  In59  1  0.51799235  0.48923970  0.66840413  1
  In  In60  1  0.64665018  -0.00305816  0.00722706  1
  In  In61  1  0.29678569  0.00340905  0.03031949  1
  In  In62  1  0.47412586  0.87092009  0.31681776  1
  In  In63  1  0.49998615  0.31579884  0.83422959  1
  In  In64  1  0.48886542  0.48880567  0.01546228  1
  In  In65  1  0.65053244  0.16852952  0.50449168  1
  In  In66  1  0.01394252  0.31545933  0.30294395  1
  In  In67  1  0.86110909  0.81692266  0.33515191  1
  In  In68  1  0.31073028  0.33809805  0.30331680  1
  In  In69  1  0.64399749  0.02785625  0.30047701  1
  In  In70  1  0.83969068  0.33916849  0.84854624  1
  In  In71  1  0.34543001  0.32958956  0.66094486  1
  Te  Te72  1  0.11821498  0.08624141  0.12105557  1
  Te  Te73  1  0.10635683  0.10076561  0.38214075  1
  Te  Te74  1  0.08501951  0.07655960  0.75355142  1
  Te  Te75  1  0.10857751  0.38749110  0.12831658  1
  Te  Te76  1  0.08557008  0.41940463  0.39656437  1
  Te  Te77  1  0.10096089  0.40427438  0.75974827  1
  Te  Te78  1  0.10270806  0.73798898  0.10050962  1
  Te  Te79  1  0.07437597  0.73598559  0.38596118  1
  Te  Te80  1  0.04954514  0.74111171  0.73805426  1
  Te  Te81  1  0.41407056  0.08413323  0.09302374  1
  Te  Te82  1  0.42666942  0.06522343  0.35582223  1
  Te  Te83  1  0.42611875  0.10536270  0.73724110  1
  Te  Te84  1  0.38266936  0.41954999  0.09231790  1
  Te  Te85  1  0.40467237  0.38557492  0.42078837  1
  Te  Te86  1  0.41691457  0.42227527  0.76141532  1
  Te  Te87  1  0.39905980  0.77966548  0.08705590  1
  Te  Te88  1  0.40835279  0.74842712  0.40825073  1
  Te  Te89  1  0.41897961  0.76029155  0.73524717  1
  Te  Te90  1  0.73337368  0.08868827  0.09373391  1
  Te  Te91  1  0.75046851  0.08580101  0.40878988  1
  Te  Te92  1  0.74336493  0.08458657  0.76384449  1
  Te  Te93  1  0.75844154  0.39479648  0.06378818  1
  Te  Te94  1  0.77044270  0.41605508  0.39968171  1
  Te  Te95  1  0.76612870  0.42807545  0.74566734  1
  Te  Te96  1  0.74221005  0.73601423  0.09415908  1
  Te  Te97  1  0.75247829  0.74060309  0.42468817  1
  Te  Te98  1  0.76616479  0.75460947  0.74613116  1
  Te  Te99  1  0.11220982  0.24398184  0.21076412  1
  Te  Te100  1  0.08290885  0.25062702  0.57339037  1
  Te  Te101  1  0.06119588  0.25907650  0.96369936  1
  Te  Te102  1  0.13012544  0.56493429  0.21438371  1
  Te  Te103  1  0.07900429  0.58923363  0.58439084  1
  Te  Te104  1  0.09365651  0.58011594  0.91253318  1
  Te  Te105  1  0.09224016  0.93593946  0.23786232  1
  Te  Te106  1  0.07174720  0.88101070  0.54800498  1
  Te  Te107  1  0.08505784  0.91222269  0.96340507  1
  Te  Te108  1  0.42138941  0.23964296  0.25542802  1
  Te  Te109  1  0.42007526  0.23626378  0.57440972  1
  Te  Te110  1  0.39594513  0.26580701  0.93680341  1
  Te  Te111  1  0.39557387  0.56417322  0.23313763  1
  Te  Te112  1  0.41634566  0.57917528  0.59535825  1
  Te  Te113  1  0.42164896  0.58981197  0.92020139  1
  Te  Te114  1  0.38025569  0.96404661  0.24794286  1
  Te  Te115  1  0.42531188  0.91888680  0.57168423  1
  Te  Te116  1  0.39353605  0.94256668  0.92127135  1
  Te  Te117  1  0.73627894  0.24272773  0.23501689  1
  Te  Te118  1  0.75410695  0.26460623  0.56505339  1
  Te  Te119  1  0.74225845  0.24209449  0.90057461  1
  Te  Te120  1  0.77369379  0.55315141  0.25812095  1
  Te  Te121  1  0.76338784  0.58525108  0.57729536  1
  Te  Te122  1  0.77766010  0.56023304  0.94518832  1
  Te  Te123  1  0.75307262  0.91208909  0.26812633  1
  Te  Te124  1  0.76589317  0.90582507  0.59212825  1
  Te  Te125  1  0.74309868  0.92669773  0.91007070  1
  Te  Te126  1  0.22822838  0.28573641  0.11262391  1
  Te  Te127  1  0.25105160  0.22600193  0.39347020  1
  Te  Te128  1  0.25469067  0.25075363  0.76790115  1
  Te  Te129  1  0.23340221  0.60285199  0.10216641  1
  Te  Te130  1  0.22588544  0.57012683  0.40473591  1
  Te  Te131  1  0.27160124  0.59268146  0.76481625  1
  Te  Te132  1  0.26883564  0.88526771  0.11559202  1
  Te  Te133  1  0.25969429  0.92946729  0.41061369  1
  Te  Te134  1  0.23737220  0.92494826  0.75646437  1
  Te  Te135  1  0.59524144  0.25743596  0.08570868  1
  Te  Te136  1  0.56583440  0.23866025  0.40559257  1
  Te  Te137  1  0.59199422  0.24207264  0.74582488  1
  Te  Te138  1  0.58169216  0.59398173  0.09090440  1
  Te  Te139  1  0.58785146  0.58185679  0.40823398  1
  Te  Te140  1  0.59570708  0.58984608  0.76060311  1
  Te  Te141  1  0.55265347  0.92081382  0.09253754  1
  Te  Te142  1  0.57411161  0.94256957  0.40964989  1
  Te  Te143  1  0.57546836  0.90642764  0.74324455  1
  Te  Te144  1  0.93050630  0.22946178  0.09006188  1
  Te  Te145  1  0.91914183  0.26987401  0.41741935  1
  Te  Te146  1  0.92511588  0.24433492  0.74503668  1
  Te  Te147  1  0.94444394  0.53901174  0.10053176  1
  Te  Te148  1  0.92626321  0.59564111  0.40996689  1
  Te  Te149  1  0.91834960  0.56954516  0.73550475  1
  Te  Te150  1  0.89948670  0.90543066  0.08484684  1
  Te  Te151  1  0.93878090  0.93117450  0.38860328  1
  Te  Te152  1  0.91113163  0.92742148  0.76580383  1
  Te  Te153  1  0.22893809  0.05801035  0.22895730  1
  Te  Te154  1  0.25028048  0.08217596  0.57408247  1
  Te  Te155  1  0.22555228  0.11693040  0.95135210  1
  Te  Te156  1  0.21018552  0.44509675  0.25051677  1
  Te  Te157  1  0.24676962  0.42049012  0.58177762  1
  Te  Te158  1  0.26164178  0.43205436  0.93445319  1
  Te  Te159  1  0.26488964  0.77579434  0.23111161  1
  Te  Te160  1  0.25520836  0.72990598  0.60295621  1
  Te  Te161  1  0.22789648  0.76821278  0.92598117  1
  Te  Te162  1  0.53371421  0.10465607  0.24143524  1
  Te  Te163  1  0.56820669  0.07101045  0.57869193  1
  Te  Te164  1  0.58496959  0.09751016  0.91019270  1
  Te  Te165  1  0.57981015  0.42521331  0.24780133  1
  Te  Te166  1  0.57146676  0.39986416  0.55888031  1
  Te  Te167  1  0.58369421  0.40145429  0.93298315  1
  Te  Te168  1  0.57304814  0.75820619  0.26289856  1
  Te  Te169  1  0.57737938  0.76913043  0.58032202  1
  Te  Te170  1  0.56706115  0.77600571  0.94796495  1
  Te  Te171  1  0.93750951  0.08221115  0.26100375  1
  Te  Te172  1  0.92257825  0.08074873  0.58185836  1
  Te  Te173  1  0.91632843  0.06667040  0.92024151  1
  Te  Te174  1  0.93530213  0.42661502  0.23886922  1
  Te  Te175  1  0.89486643  0.41557101  0.57344711  1
  Te  Te176  1  0.94335774  0.39286434  0.94093892  1
  Te  Te177  1  0.93975277  0.71772733  0.24984158  1
  Te  Te178  1  0.94327497  0.79184157  0.58954823  1
  Te  Te179  1  0.92399482  0.73742206  0.91860700  1
