# generated using pymatgen
data_In2Te3
_symmetry_space_group_name_H-M   'P 1'
_cell_length_a   19.01275536
_cell_length_b   19.03203924
_cell_length_c   19.00398461
_cell_angle_alpha   90.08193619
_cell_angle_beta   90.13723622
_cell_angle_gamma   89.71621548
_symmetry_Int_Tables_number   1
_chemical_formula_structural   In2Te3
_chemical_formula_sum   'In72 Te108'
_cell_volume   6876.50946473
_cell_formula_units_Z   36
loop_
 _symmetry_equiv_pos_site_id
 _symmetry_equiv_pos_as_xyz
  1  'x, y, z'
loop_
 _atom_site_type_symbol
 _atom_site_label
 _atom_site_symmetry_multiplicity
 _atom_site_fract_x
 _atom_site_fract_y
 _atom_site_fract_z
 _atom_site_occupancy
  In  In0  1  0.33224791  0.16807627  0.83208633  1
  In  In1  1  0.84860550  -0.00713995  0.46107903  1
  In  In2  1  0.33418148  0.00154414  0.65503330  1
  In  In3  1  0.48776943  0.00229153  0.51632243  1
  In  In4  1  0.83481677  0.16519513  0.64825894  1
  In  In5  1  0.00725740  0.49035523  0.16614583  1
  In  In6  1  0.86414027  0.35362654  0.16618608  1
  In  In7  1  0.01047920  0.51634466  0.80851710  1
  In  In8  1  0.33865477  0.82603092  0.80406950  1
  In  In9  1  -0.01388840  -0.01441614  0.01671051  1
  In  In10  1  0.15145663  0.69210680  0.87965008  1
  In  In11  1  0.51605637  0.16233547  0.01542027  1
  In  In12  1  0.48673512  0.50312504  0.34429754  1
  In  In13  1  0.00977314  0.33983710  -0.01134147  1
  In  In14  1  0.85412853  0.19263010  0.01117963  1
  In  In15  1  0.83632533  0.33197715  0.50329383  1
  In  In16  1  -0.01977869  0.18396775  0.81534930  1
  In  In17  1  0.80286985  0.68544718  0.16478582  1
  In  In18  1  0.02954509  0.16353876  0.49022348  1
  In  In19  1  0.35123458  0.64814196  -0.00039771  1
  In  In20  1  0.68438541  0.14912982  0.17153202  1
  In  In21  1  0.19013327  0.51879078  0.65960153  1
  In  In22  1  0.11755149  -0.04417839  0.42981354  1
  In  In23  1  0.15398388  0.45454760  0.32677701  1
  In  In24  1  0.15188019  0.83009552  0.64289643  1
  In  In25  1  0.33549192  0.49623282  0.82336857  1
  In  In26  1  0.83979064  0.16098398  0.34155905  1
  In  In27  1  0.17139683  0.12847734  0.01660806  1
  In  In28  1  0.67749920  0.48457467  0.14615017  1
  In  In29  1  0.15691972  0.55780431  0.01267770  1
  In  In30  1  0.50379463  0.65494098  0.18331873  1
  In  In31  1  0.64690153  0.31452269  0.32908486  1
  In  In32  1  0.84901066  -0.01346734  0.21385589  1
  In  In33  1  0.17195210  0.67145553  0.50909218  1
  In  In34  1  0.51455934  0.36882491  0.81400907  1
  In  In35  1  0.35433871  -0.02689751  0.02965510  1
  In  In36  1  0.52849711  0.00667526  0.85312832  1
  In  In37  1  0.32036066  0.68868081  0.33309718  1
  In  In38  1  0.33917939  0.50198822  0.49457661  1
  In  In39  1  0.82865990  0.50684564  0.31799243  1
  In  In40  1  0.83218203  0.51552968  0.67456181  1
  In  In41  1  0.81646801  0.33222098  0.82114425  1
  In  In42  1  0.83817956  -0.00515390  0.80987369  1
  In  In43  1  0.67341879  0.84187049  0.83605551  1
  In  In44  1  0.32371513  0.81792121  0.17460655  1
  In  In45  1  0.84110189  0.71209190  0.52707675  1
  In  In46  1  0.82092305  0.68480751  0.83996032  1
  In  In47  1  0.50356420  0.30396173  0.48455248  1
  In  In48  1  0.29202461  0.17000455  0.47332902  1
  In  In49  1  0.82741050  0.52849021  -0.01428257  1
  In  In50  1  0.67895918  0.87214965  0.49662431  1
  In  In51  1  0.31514211  -0.02685472  0.34115764  1
  In  In52  1  0.50388038  0.66187128  0.55039042  1
  In  In53  1  0.32516585  0.18477770  0.19191208  1
  In  In54  1  0.13622551  0.00831099  0.83750623  1
  In  In55  1  -0.01522453  0.65560319  0.33049877  1
  In  In56  1  0.50659548  0.84420480  0.67831611  1
  In  In57  1  0.48342769  0.31367650  0.16303900  1
  In  In58  1  -0.02073141  0.84166133  0.84444755  1
  In  In59  1  0.01330990  0.52105031  0.49006002  1
  In  In60  1  0.67472629  0.31974810  0.66191300  1
  In  In61  1  0.66133700  0.68982644  0.36938895  1
  In  In62  1  0.14591819  -0.03126024  0.19300854  1
  In  In63  1  0.32851720  0.31208755  0.00912185  1
  In  In64  1  0.54001038  0.84874604  0.01345693  1
  In  In65  1  0.81000782  0.85117887  0.03410068  1
  In  In66  1  0.48778740  0.83181965  0.33886490  1
  In  In67  1  0.15091557  0.15395580  0.67978874  1
  In  In68  1  0.68065053  0.49404845  0.53166100  1
  In  In69  1  0.49532348  0.47456012  0.00321912  1
  In  In70  1  0.50595606  0.17730549  0.65063808  1
  In  In71  1  0.15896218  0.33283922  0.82478583  1
  Te  Te72  1  0.06870963  0.07270652  0.10922950  1
  Te  Te73  1  0.08806687  0.09211884  0.37496014  1
  Te  Te74  1  0.04074520  0.06632405  0.73815807  1
  Te  Te75  1  0.10324904  0.42461431  0.07054659  1
  Te  Te76  1  0.10825452  0.41124753  0.46222311  1
  Te  Te77  1  0.08793212  0.41961757  0.72453883  1
  Te  Te78  1  0.11447604  0.70138091  0.02632494  1
  Te  Te79  1  0.05978450  0.73918737  0.43206670  1
  Te  Te80  1  0.08400161  0.76625338  0.76383634  1
  Te  Te81  1  0.41027743  0.09319148  0.09734764  1
  Te  Te82  1  0.39710255  0.07521733  0.41825208  1
  Te  Te83  1  0.42419163  0.07643915  0.75116976  1
  Te  Te84  1  0.39333972  0.41606987  0.09800273  1
  Te  Te85  1  0.40653409  0.39419266  0.40830285  1
  Te  Te86  1  0.40197080  0.40347651  0.72991709  1
  Te  Te87  1  0.43565968  0.75389729  0.08761614  1
  Te  Te88  1  0.42912063  0.72741195  0.42941643  1
  Te  Te89  1  0.44133011  0.73355432  0.75235932  1
  Te  Te90  1  0.80070103  0.08509448  0.10162356  1
  Te  Te91  1  0.74114238  0.06976561  0.39457285  1
  Te  Te92  1  0.75866273  0.10494885  0.75661263  1
  Te  Te93  1  0.77175747  0.40657127  0.05807165  1
  Te  Te94  1  0.73867204  0.41364543  0.40929449  1
  Te  Te95  1  0.72931339  0.43311863  0.74799345  1
  Te  Te96  1  0.71559384  0.74291924  0.06319802  1
  Te  Te97  1  0.77013307  0.78272714  0.41087245  1
  Te  Te98  1  0.76503463  0.77731373  0.73860721  1
  Te  Te99  1  0.12509333  0.31488987  0.27113051  1
  Te  Te100  1  0.08576091  0.25149058  0.59291778  1
  Te  Te101  1  0.09600887  0.22552390  0.91406897  1
  Te  Te102  1  0.09008175  0.57889208  0.25482868  1
  Te  Te103  1  0.07457137  0.60103525  0.60156631  1
  Te  Te104  1  0.03098390  0.59737897  0.93271670  1
  Te  Te105  1  0.07146771  0.89507779  0.29729595  1
  Te  Te106  1  0.06321056  0.92184499  0.56750734  1
  Te  Te107  1  0.08692486  0.90729393  0.93508782  1
  Te  Te108  1  0.44528733  0.22107263  0.26917975  1
  Te  Te109  1  0.39566404  0.23670593  0.56759467  1
  Te  Te110  1  0.42923401  0.24874000  0.91561470  1
  Te  Te111  1  0.39411493  0.57934651  0.25298924  1
  Te  Te112  1  0.40913682  0.56111429  0.61785624  1
  Te  Te113  1  0.43913294  0.57326403  0.90171239  1
  Te  Te114  1  0.41556656  0.91931479  0.23899541  1
  Te  Te115  1  0.40329047  0.89309931  0.57670080  1
  Te  Te116  1  0.42505888  0.91216123  0.91012703  1
  Te  Te117  1  0.76762086  0.26625835  0.24281966  1
  Te  Te118  1  0.73524275  0.23314851  0.55379159  1
  Te  Te119  1  0.75679850  0.23436714  0.91066500  1
  Te  Te120  1  0.71495258  0.58760638  0.25891998  1
  Te  Te121  1  0.74422881  0.61259499  0.59743153  1
  Te  Te122  1  0.72993629  0.58287435  0.89330180  1
  Te  Te123  1  0.71184982  0.92533608  0.21603980  1
  Te  Te124  1  0.77926728  0.93893112  0.57943143  1
  Te  Te125  1  0.75457506  0.93626317  0.92261166  1
  Te  Te126  1  0.22293672  0.24635838  0.09410138  1
  Te  Te127  1  0.23350051  0.26149409  0.37196796  1
  Te  Te128  1  0.25390701  0.25308489  0.73721405  1
  Te  Te129  1  0.27082432  0.58278752  0.10135017  1
  Te  Te130  1  0.24133807  0.58029176  0.40857135  1
  Te  Te131  1  0.23021900  0.59633877  0.78341170  1
  Te  Te132  1  0.23393998  0.90444539  0.08411350  1
  Te  Te133  1  0.24628553  0.88459167  0.43188316  1
  Te  Te134  1  0.23708902  0.93110915  0.74884757  1
  Te  Te135  1  0.60436847  0.25676532  0.09391389  1
  Te  Te136  1  0.57670238  0.20846318  0.39885525  1
  Te  Te137  1  0.58715526  0.24398203  0.75853544  1
  Te  Te138  1  0.58170644  0.57854476  0.07752915  1
  Te  Te139  1  0.58564179  0.57360790  0.43498449  1
  Te  Te140  1  0.53991156  0.59974040  0.68091189  1
  Te  Te141  1  0.60943131  0.94557699  0.09757136  1
  Te  Te142  1  0.57281185  0.93457365  0.40825327  1
  Te  Te143  1  0.60381626  0.94084671  0.74050649  1
  Te  Te144  1  0.96074354  0.25509449  0.10405379  1
  Te  Te145  1  0.93088530  0.25871365  0.41432195  1
  Te  Te146  1  0.91319278  0.27599055  0.71811558  1
  Te  Te147  1  0.90021240  0.58156178  0.10622018  1
  Te  Te148  1  0.88166205  0.59024588  0.43303888  1
  Te  Te149  1  0.92039801  0.61711550  0.74192266  1
  Te  Te150  1  0.93045437  0.89051372  0.11674478  1
  Te  Te151  1  0.92296531  0.93526083  0.34294169  1
  Te  Te152  1  0.89661525  0.88560918  0.72877146  1
  Te  Te153  1  0.24292069  0.07061800  0.24980124  1
  Te  Te154  1  0.22977394  0.07541223  0.57518452  1
  Te  Te155  1  0.26581390  0.06271368  0.91810189  1
  Te  Te156  1  0.26665999  0.37637804  0.26531049  1
  Te  Te157  1  0.24261756  0.41564958  0.56632883  1
  Te  Te158  1  0.25370209  0.40755412  0.91582402  1
  Te  Te159  1  0.21863020  0.74997501  0.24803489  1
  Te  Te160  1  0.26001776  0.74089451  0.60280504  1
  Te  Te161  1  0.28050960  0.76168817  0.92668458  1
  Te  Te162  1  0.60270532  0.04016339  0.22510478  1
  Te  Te163  1  0.59020797  0.07813652  0.58628829  1
  Te  Te164  1  0.61424868  0.08144870  0.94383825  1
  Te  Te165  1  0.57380625  0.42284640  0.24673308  1
  Te  Te166  1  0.57439541  0.40048376  0.58029263  1
  Te  Te167  1  0.59622871  0.40001343  0.92910093  1
  Te  Te168  1  0.58984898  0.75811865  0.25389190  1
  Te  Te169  1  0.60272417  0.77543106  0.58220092  1
  Te  Te170  1  0.57747816  0.75710416  0.90719002  1
  Te  Te171  1  0.94960260  0.08467616  0.27418130  1
  Te  Te172  1  0.92445052  0.08152205  0.56139657  1
  Te  Te173  1  0.92510507  0.08382048  0.91885779  1
  Te  Te174  1  0.94072783  0.41426287  0.28267235  1
  Te  Te175  1  0.91587703  0.43601066  0.57697521  1
  Te  Te176  1  0.92283423  0.41756861  0.89264131  1
  Te  Te177  1  0.89547459  0.74758679  0.25889697  1
  Te  Te178  1  0.96049508  0.79808882  0.53236962  1
  Te  Te179  1  0.89886441  0.76240027  0.94284702  1
