# generated using pymatgen
data_In2Te3
_symmetry_space_group_name_H-M   'P 1'
_cell_length_a   18.91086602
_cell_length_b   18.92460187
_cell_length_c   18.91593595
_cell_angle_alpha   89.93406800
_cell_angle_beta   89.94101165
_cell_angle_gamma   90.21069926
_symmetry_Int_Tables_number   1
_chemical_formula_structural   In2Te3
_chemical_formula_sum   'In72 Te108'
_cell_volume   6769.59283523
_cell_formula_units_Z   36
loop_
 _symmetry_equiv_pos_site_id
 _symmetry_equiv_pos_as_xyz
  1  'x, y, z'
loop_
 _atom_site_type_symbol
 _atom_site_label
 _atom_site_symmetry_multiplicity
 _atom_site_fract_x
 _atom_site_fract_y
 _atom_site_fract_z
 _atom_site_occupancy
  In  In0  1  0.67073353  0.67358996  0.67357295  1
  In  In1  1  0.67880898  -0.00193705  0.34362509  1
  In  In2  1  0.03097024  0.65094636  0.31213465  1
  In  In3  1  0.67787431  0.00735787  -0.02565268  1
  In  In4  1  0.32847072  0.65341407  0.02227974  1
  In  In5  1  0.32668541  0.05889864  -0.07595850  1
  In  In6  1  0.63466158  0.66289124  0.34801425  1
  In  In7  1  0.48711817  0.51428749  0.64484018  1
  In  In8  1  0.16814892  0.64950430  0.50669921  1
  In  In9  1  0.48498012  0.67513463  0.83318218  1
  In  In10  1  0.83764102  0.66628206  0.86377373  1
  In  In11  1  0.67679862  0.17104978  0.15087437  1
  In  In12  1  0.48980683  0.82910032  0.00032511  1
  In  In13  1  0.82676181  0.47534105  0.33862026  1
  In  In14  1  0.63464144  0.18405468  0.80495335  1
  In  In15  1  0.06930263  0.14001889  0.81702975  1
  In  In16  1  0.51064698  0.84671921  0.68013851  1
  In  In17  1  0.00706139  0.85950321  0.49560815  1
  In  In18  1  0.49570181  0.34457649  0.18348662  1
  In  In19  1  0.33143979  0.47398156  0.49353990  1
  In  In20  1  0.01874805  0.33675699  0.68487300  1
  In  In21  1  0.48200814  0.16060355  0.33849594  1
  In  In22  1  0.65569055  0.33422051  0.00071932  1
  In  In23  1  0.16625531  0.86574208  0.66764040  1
  In  In24  1  0.16905002  0.47646676  0.33787234  1
  In  In25  1  0.85835216  0.18465064  0.01323269  1
  In  In26  1  0.82993353  0.86026295  0.66873618  1
  In  In27  1  0.83868511  0.14906805  0.32309743  1
  In  In28  1  0.66557280  0.85857104  0.50103002  1
  In  In29  1  0.66622736  0.65806199  -0.00258845  1
  In  In30  1  0.83200685  0.64204209  0.14637350  1
  In  In31  1  0.51232507  0.03824962  0.77128781  1
  In  In32  1  0.49624078  0.01127205  0.13870131  1
  In  In33  1  0.02158378  0.48084206  0.84055870  1
  In  In34  1  0.33869688  0.85503201  0.81992772  1
  In  In35  1  0.15526683  0.83187020  -0.00471685  1
  In  In36  1  0.33897760  0.30897547  0.67327793  1
  In  In37  1  0.01222169  0.82337541  0.15972749  1
  In  In38  1  0.34661721  0.84469424  0.50998094  1
  In  In39  1  0.17411579  0.64441339  0.84903976  1
  In  In40  1  0.28420740  0.19470481  0.52354193  1
  In  In41  1  0.03305953  0.35165251  0.01991735  1
  In  In42  1  0.81787647  0.32042698  0.81781226  1
  In  In43  1  0.84219234  0.51566645  -0.01206522  1
  In  In44  1  0.17028098  -0.02077844  0.15884325  1
  In  In45  1  0.65084588  0.52486559  0.47562294  1
  In  In46  1  0.83106949  0.67110924  0.49040263  1
  In  In47  1  0.82683989  0.17270060  0.65513035  1
  In  In48  1  -0.01966773  0.84009939  0.84152740  1
  In  In49  1  0.84165065  0.01596042  0.83666040  1
  In  In50  1  0.02641979  0.31434257  0.31709087  1
  In  In51  1  0.02131073  -0.00819724  0.00669042  1
  In  In52  1  0.19490969  0.83354368  0.33117503  1
  In  In53  1  0.85348210  0.86251485  0.31724141  1
  In  In54  1  0.48696688  0.66485140  0.47718850  1
  In  In55  1  0.02038531  0.67070999  0.66525146  1
  In  In56  1  0.51950230  0.82142070  0.33291179  1
  In  In57  1  0.33823348  0.00145873  0.34639308  1
  In  In58  1  0.65656111  0.49078591  0.17447598  1
  In  In59  1  0.28163654  0.19245120  0.14686721  1
  In  In60  1  0.63740188  0.14551733  0.53679052  1
  In  In61  1  -0.00054636  0.02407017  0.35887607  1
  In  In62  1  0.00800184  0.18525867  0.50691440  1
  In  In63  1  0.33219891  0.49955321  0.18125204  1
  In  In64  1  0.84042811  0.47862212  0.69156600  1
  In  In65  1  0.26962534  0.45974592  0.80574574  1
  In  In66  1  0.44913547  0.19289548  -0.03820119  1
  In  In67  1  0.32046844  0.82999163  0.16545595  1
  In  In68  1  0.85029603  0.31802262  0.16950859  1
  In  In69  1  -0.00192505  0.48653389  0.51607668  1
  In  In70  1  0.50349846  0.48190332  -0.01367483  1
  In  In71  1  0.47437292  0.31776812  0.50607330  1
  Te  Te72  1  0.10924231  0.08659654  0.07912787  1
  Te  Te73  1  0.10706652  0.10273767  0.42558811  1
  Te  Te74  1  0.12151621  0.11083378  0.68064940  1
  Te  Te75  1  0.12262262  0.41336219  0.12164456  1
  Te  Te76  1  0.08638607  0.39483712  0.43593849  1
  Te  Te77  1  0.12697252  0.40789438  0.76266778  1
  Te  Te78  1  0.11846476  0.73762081  0.10372727  1
  Te  Te79  1  0.08209407  0.74773252  0.42411002  1
  Te  Te80  1  0.09477597  0.75853336  0.76265024  1
  Te  Te81  1  0.38854679  0.09636885  0.07095452  1
  Te  Te82  1  0.38819168  0.10618701  0.44370114  1
  Te  Te83  1  0.37734575  0.10372718  0.78555228  1
  Te  Te84  1  0.40983814  0.40767720  0.07824245  1
  Te  Te85  1  0.38804672  0.37394718  0.39792933  1
  Te  Te86  1  0.40714614  0.42957604  0.74077406  1
  Te  Te87  1  0.42527137  0.73809671  0.10366059  1
  Te  Te88  1  0.39694716  0.75665406  0.39574907  1
  Te  Te89  1  0.40386702  0.75085020  0.72993928  1
  Te  Te90  1  0.77041533  0.07864304  0.07934714  1
  Te  Te91  1  0.74500925  0.09959197  0.43226379  1
  Te  Te92  1  0.74013041  0.08923399  0.75095337  1
  Te  Te93  1  0.76081485  0.41036393  0.08487613  1
  Te  Te94  1  0.74565091  0.41698924  0.44442203  1
  Te  Te95  1  0.72488337  0.40411473  0.74193515  1
  Te  Te96  1  0.75813251  0.74318587  0.07294483  1
  Te  Te97  1  0.74401749  0.76398278  0.40953570  1
  Te  Te98  1  0.76597052  0.75472247  0.75822120  1
  Te  Te99  1  0.15032262  0.25675234  0.25788694  1
  Te  Te100  1  0.10922712  0.24813587  0.60329682  1
  Te  Te101  1  0.07916336  0.25789956  0.90624744  1
  Te  Te102  1  0.09427116  0.54706407  0.22935028  1
  Te  Te103  1  0.09953310  0.55583050  0.60582142  1
  Te  Te104  1  0.08090102  0.57367386  0.93746121  1
  Te  Te105  1  0.08069457  0.91419701  0.27097383  1
  Te  Te106  1  0.07677468  0.95041581  0.58640596  1
  Te  Te107  1  0.09763513  0.92605974  0.89206329  1
  Te  Te108  1  0.40152991  0.23594148  0.23558058  1
  Te  Te109  1  0.45589347  0.22359918  0.62478225  1
  Te  Te110  1  0.34904636  0.29103735  0.90873228  1
  Te  Te111  1  0.43864384  0.57205394  0.24975779  1
  Te  Te112  1  0.38676853  0.59724216  0.56936650  1
  Te  Te113  1  0.40586061  0.57567167  0.91577917  1
  Te  Te114  1  0.42289651  0.92123196  0.24163205  1
  Te  Te115  1  0.43275031  0.93595735  0.58995073  1
  Te  Te116  1  0.42411730  0.93527495  0.91574685  1
  Te  Te117  1  0.74546971  0.25365089  0.25786314  1
  Te  Te118  1  0.71311346  0.25163048  0.60591306  1
  Te  Te119  1  0.74433387  0.23201138  0.92110653  1
  Te  Te120  1  0.74696243  0.58412625  0.26811428  1
  Te  Te121  1  0.75882153  0.58047104  0.58931713  1
  Te  Te122  1  0.73007895  0.56216599  0.89783579  1
  Te  Te123  1  0.74750735  0.92332981  0.23876657  1
  Te  Te124  1  0.73634150  0.94468522  0.59524168  1
  Te  Te125  1  0.77454022  0.91363243  0.91744084  1
  Te  Te126  1  0.20932906  0.30200098  0.06771523  1
  Te  Te127  1  0.21151309  0.21991787  0.39704231  1
  Te  Te128  1  0.27860507  0.22613492  0.78455153  1
  Te  Te129  1  0.23898390  0.54842235  0.07532324  1
  Te  Te130  1  0.25659877  0.58123540  0.40691115  1
  Te  Te131  1  0.25360758  0.59059255  0.73976243  1
  Te  Te132  1  0.26519502  0.91913699  0.05672574  1
  Te  Te133  1  0.24008351  0.93000665  0.43864336  1
  Te  Te134  1  0.26646416  0.95429067  0.73485603  1
  Te  Te135  1  0.56273847  0.24177499  0.07953569  1
  Te  Te136  1  0.57673303  0.23798872  0.42551580  1
  Te  Te137  1  0.52669465  0.26874848  0.75362807  1
  Te  Te138  1  0.57126713  0.57678076  0.08512844  1
  Te  Te139  1  0.52339749  0.55188052  0.37901664  1
  Te  Te140  1  0.57485202  0.58423872  0.74946314  1
  Te  Te141  1  0.59276027  0.91713912  0.07111686  1
  Te  Te142  1  0.56229301  0.93721491  0.42117770  1
  Te  Te143  1  0.59259093  0.91569205  0.77935771  1
  Te  Te144  1  0.96445094  0.24204555  0.10591881  1
  Te  Te145  1  0.91669635  0.25327162  0.40386631  1
  Te  Te146  1  0.92814021  0.23718595  0.75559011  1
  Te  Te147  1  0.94131211  0.57192389  0.08015812  1
  Te  Te148  1  0.93151907  0.58173841  0.41700399  1
  Te  Te149  1  0.92878515  0.58583312  0.75686022  1
  Te  Te150  1  0.92558329  0.90689603  0.07836836  1
  Te  Te151  1  0.89335193  0.94124633  0.43831754  1
  Te  Te152  1  0.93546420  0.94365747  0.73926249  1
  Te  Te153  1  0.25336630  0.07420563  0.24566558  1
  Te  Te154  1  0.26314675  0.08637536  0.62120049  1
  Te  Te155  1  0.19267145  0.12645870  0.90987755  1
  Te  Te156  1  0.27837836  0.39440609  0.27651232  1
  Te  Te157  1  0.25112406  0.37931034  0.57502735  1
  Te  Te158  1  0.23991977  0.39839212  0.93808653  1
  Te  Te159  1  0.23319807  0.73010807  0.23327748  1
  Te  Te160  1  0.23916721  0.76256968  0.58232678  1
  Te  Te161  1  0.26982876  0.75568886  0.91744175  1
  Te  Te162  1  0.58371548  0.08394008  0.24498766  1
  Te  Te163  1  0.55364669  0.05654564  0.62362429  1
  Te  Te164  1  0.56917603  0.10062056  0.92132113  1
  Te  Te165  1  0.60237229  0.39463370  0.27076653  1
  Te  Te166  1  0.57178339  0.42319273  0.56159341  1
  Te  Te167  1  0.56760580  0.38516325  0.89392677  1
  Te  Te168  1  0.60073724  0.75024969  0.23538435  1
  Te  Te169  1  0.58178258  0.74318891  0.57041785  1
  Te  Te170  1  0.58776249  0.75555860  0.90939360  1
  Te  Te171  1  0.93475813  0.07770750  0.23936798  1
  Te  Te172  1  0.92133989  0.09080778  0.57902673  1
  Te  Te173  1  0.94032663  0.09789294  0.91922598  1
  Te  Te174  1  0.93170476  0.41910164  0.24811002  1
  Te  Te175  1  0.90967717  0.38859501  0.59091882  1
  Te  Te176  1  0.90926977  0.39872720  0.91690036  1
  Te  Te177  1  0.91668952  0.73700096  0.25686402  1
  Te  Te178  1  0.91936194  0.75428531  0.58593545  1
  Te  Te179  1  0.94169865  0.73708446  0.93837898  1
