# generated using pymatgen
data_In2Te3
_symmetry_space_group_name_H-M   'P 1'
_cell_length_a   18.98517442
_cell_length_b   18.92798653
_cell_length_c   18.94877962
_cell_angle_alpha   89.99517862
_cell_angle_beta   90.05185721
_cell_angle_gamma   89.96066977
_symmetry_Int_Tables_number   1
_chemical_formula_structural   In2Te3
_chemical_formula_sum   'In72 Te108'
_cell_volume   6809.26086702
_cell_formula_units_Z   36
loop_
 _symmetry_equiv_pos_site_id
 _symmetry_equiv_pos_as_xyz
  1  'x, y, z'
loop_
 _atom_site_type_symbol
 _atom_site_label
 _atom_site_symmetry_multiplicity
 _atom_site_fract_x
 _atom_site_fract_y
 _atom_site_fract_z
 _atom_site_occupancy
  In  In0  1  0.17613903  0.83720094  0.30503454  1
  In  In1  1  0.16013126  0.63456453  0.49005176  1
  In  In2  1  0.68186235  0.67095093  0.36503487  1
  In  In3  1  0.64073332  0.00884048  0.67707961  1
  In  In4  1  -0.01116829  0.31819369  0.33533835  1
  In  In5  1  0.17436985  0.00930697  0.13270338  1
  In  In6  1  -0.00810386  0.84573915  0.17108074  1
  In  In7  1  0.48717002  0.01008895  0.14516351  1
  In  In8  1  0.70527903  0.87276414  0.17835587  1
  In  In9  1  0.32467649  0.17182382  0.14203163  1
  In  In10  1  0.68194765  0.01712387  -0.01824675  1
  In  In11  1  0.50798402  0.83955814  0.68201258  1
  In  In12  1  0.50578890  0.67180637  0.83056457  1
  In  In13  1  0.64773729  0.32615600  0.00184148  1
  In  In14  1  0.49066873  0.32053737  0.50524786  1
  In  In15  1  0.51739373  0.66913347  0.20067547  1
  In  In16  1  0.03305410  0.47497779  0.13603260  1
  In  In17  1  0.33883654  0.35823808  0.66490636  1
  In  In18  1  0.67933152  0.49315622  0.16467291  1
  In  In19  1  0.48516013  0.50808158  0.69717610  1
  In  In20  1  0.14781674  0.39265837  0.25136542  1
  In  In21  1  0.82669853  0.31289115  0.16339302  1
  In  In22  1  0.32625443  0.84020883  0.13601506  1
  In  In23  1  0.50229682  0.47738155  -0.01135450  1
  In  In24  1  0.67585555  0.66120696  -0.01547555  1
  In  In25  1  0.84738661  0.15311401  -0.00233336  1
  In  In26  1  0.84616410  0.49832416  0.34526730  1
  In  In27  1  0.17897457  0.68118349  0.82852023  1
  In  In28  1  -0.01395999  0.35223052  0.66806960  1
  In  In29  1  0.16875392  -0.00531974  0.86848918  1
  In  In30  1  0.84850341  -0.03149365  0.80369464  1
  In  In31  1  -0.01245513  0.84081402  0.50259796  1
  In  In32  1  -0.01394572  0.14666200  0.48950297  1
  In  In33  1  0.34172946  0.17564318  0.84235015  1
  In  In34  1  0.37037006  0.67665532  0.32445102  1
  In  In35  1  0.65590328  0.48205969  0.48734685  1
  In  In36  1  0.14880384  0.15487676  0.68820458  1
  In  In37  1  0.68577019  0.00257307  0.35041859  1
  In  In38  1  0.16245136  0.31747621  0.48167248  1
  In  In39  1  0.47962063  0.47747455  0.34113052  1
  In  In40  1  0.32994914  0.83836640  0.51855629  1
  In  In41  1  0.79139363  0.14334555  0.62041748  1
  In  In42  1  -0.00533714  0.50702007  0.85512694  1
  In  In43  1  0.82064174  0.69332586  0.53483772  1
  In  In44  1  0.00465285  0.48232574  0.52394875  1
  In  In45  1  -0.00044642  0.66906454  0.33577534  1
  In  In46  1  0.00689716  0.68969306  0.00439767  1
  In  In47  1  0.14491088  0.52306602  0.68592419  1
  In  In48  1  0.34008413  0.66820975  0.68612945  1
  In  In49  1  0.16121989  0.84032265  0.67791438  1
  In  In50  1  0.80566136  0.68889330  0.80154633  1
  In  In51  1  0.19670347  0.33362148  0.87713555  1
  In  In52  1  0.49298436  0.14164586  0.33110773  1
  In  In53  1  0.48857292  0.85662796  -0.02062188  1
  In  In54  1  0.33991485  0.02848064  0.68765137  1
  In  In55  1  0.88209627  0.67860639  0.15162320  1
  In  In56  1  0.83081095  -0.02190486  0.50776423  1
  In  In57  1  0.83620114  0.34759369  0.82952927  1
  In  In58  1  0.32867794  0.67028711  0.00395034  1
  In  In59  1  -0.01372915  0.14329157  0.18094861  1
  In  In60  1  0.66159739  0.29896672  0.29450494  1
  In  In61  1  0.32801079  0.16913233  0.48296160  1
  In  In62  1  0.83525211  0.49858024  0.67290764  1
  In  In63  1  0.64217119  0.17010552  0.83231081  1
  In  In64  1  -0.00988600  0.15817425  0.82896016  1
  In  In65  1  0.13857374  0.66274192  0.13876285  1
  In  In66  1  0.49359595  0.29618509  0.13992552  1
  In  In67  1  0.33100452  0.50705627  0.50816370  1
  In  In68  1  0.50586304  0.85865674  0.34623843  1
  In  In69  1  0.16288281  0.00162706  0.46853425  1
  In  In70  1  0.65212009  0.83439970  0.52274913  1
  In  In71  1  0.82437486  0.84191335  0.00245689  1
  Te  Te72  1  0.05828297  0.07463402  0.07200836  1
  Te  Te73  1  0.09532892  0.11133878  0.39670829  1
  Te  Te74  1  0.07239672  0.04772605  0.76123813  1
  Te  Te75  1  0.12672837  0.40105974  0.04243246  1
  Te  Te76  1  0.08435460  0.42724216  0.40762224  1
  Te  Te77  1  0.08647353  0.40913753  0.76804656  1
  Te  Te78  1  0.10482368  0.79681949  0.07070613  1
  Te  Te79  1  0.09825361  0.76008706  0.41581261  1
  Te  Te80  1  0.07056592  0.76141764  0.76431073  1
  Te  Te81  1  0.43894840  0.12110020  0.05848940  1
  Te  Te82  1  0.41285095  0.06439053  0.42663450  1
  Te  Te83  1  0.43517956  0.06996044  0.79348585  1
  Te  Te84  1  0.41373121  0.36121327  0.03062652  1
  Te  Te85  1  0.38340962  0.39317836  0.42233304  1
  Te  Te86  1  0.42274653  0.39900527  0.78139949  1
  Te  Te87  1  0.44199561  0.74881783  0.08806472  1
  Te  Te88  1  0.43261837  0.75960554  0.43582602  1
  Te  Te89  1  0.40467196  0.77156381  0.77234455  1
  Te  Te90  1  0.74977516  0.09104951  0.08853423  1
  Te  Te91  1  0.74160676  0.08671866  0.46030809  1
  Te  Te92  1  0.75317986  0.08666952  0.76367253  1
  Te  Te93  1  0.75986244  0.41350800  0.06836558  1
  Te  Te94  1  0.73502969  0.40415472  0.38491926  1
  Te  Te95  1  0.74231695  0.40331800  0.73268850  1
  Te  Te96  1  0.75186758  0.74045141  0.10061906  1
  Te  Te97  1  0.76096845  0.78357244  0.42808898  1
  Te  Te98  1  0.71412679  0.76248794  0.71285449  1
  Te  Te99  1  0.08134331  0.25910467  0.23370784  1
  Te  Te100  1  0.07618523  0.25176751  0.58741270  1
  Te  Te101  1  0.09829930  0.22619665  0.91046665  1
  Te  Te102  1  0.07941403  0.57619814  0.24923432  1
  Te  Te103  1  0.05549017  0.60723013  0.59574180  1
  Te  Te104  1  0.09554747  0.59607329  0.92421900  1
  Te  Te105  1  0.08644832  0.93905551  0.24496780  1
  Te  Te106  1  0.08715417  0.92821576  0.57744482  1
  Te  Te107  1  0.11702846  0.87129296  0.93264109  1
  Te  Te108  1  0.41204059  0.24358230  0.25446528  1
  Te  Te109  1  0.40291592  0.23760830  0.59826371  1
  Te  Te110  1  0.42602366  0.28573009  0.89396161  1
  Te  Te111  1  0.41267266  0.56150204  0.23230647  1
  Te  Te112  1  0.42461505  0.59613433  0.58370765  1
  Te  Te113  1  0.41797845  0.58294167  0.91731599  1
  Te  Te114  1  0.41410296  0.91306776  0.23875434  1
  Te  Te115  1  0.41830404  0.93089404  0.59765361  1
  Te  Te116  1  0.39355358  0.95702561  0.93404058  1
  Te  Te117  1  0.78208103  0.21859557  0.26771906  1
  Te  Te118  1  0.68643705  0.24254186  0.59821824  1
  Te  Te119  1  0.75435779  0.24287673  0.91542990  1
  Te  Te120  1  0.75406453  0.58926086  0.25799802  1
  Te  Te121  1  0.74022227  0.57387163  0.57728225  1
  Te  Te122  1  0.76448930  0.58449042  0.89867249  1
  Te  Te123  1  0.79687200  0.96517676  0.25236724  1
  Te  Te124  1  0.74203864  0.90896946  0.61925262  1
  Te  Te125  1  0.74178899  0.90807295  0.89406673  1
  Te  Te126  1  0.23089531  0.28195602  0.10014854  1
  Te  Te127  1  0.22989627  0.22744783  0.38784919  1
  Te  Te128  1  0.24452146  0.25948863  0.74235588  1
  Te  Te129  1  0.24538959  0.57604380  0.08265596  1
  Te  Te130  1  0.26452654  0.58516238  0.39509318  1
  Te  Te131  1  0.26466642  0.56556192  0.76710741  1
  Te  Te132  1  0.28765827  0.95175858  0.04374223  1
  Te  Te133  1  0.26670132  0.91281572  0.40166020  1
  Te  Te134  1  0.25530279  0.92504424  0.76035894  1
  Te  Te135  1  0.62452656  0.23376240  0.11487349  1
  Te  Te136  1  0.57838019  0.24228428  0.40829807  1
  Te  Te137  1  0.58036896  0.23809662  0.71405504  1
  Te  Te138  1  0.58332895  0.57981150  0.08203176  1
  Te  Te139  1  0.56829053  0.58223413  0.41205432  1
  Te  Te140  1  0.59486204  0.57632424  0.76491288  1
  Te  Te141  1  0.59576040  0.91363261  0.08060242  1
  Te  Te142  1  0.58061965  0.94370800  0.44606903  1
  Te  Te143  1  0.55833885  0.93994716  0.77808917  1
  Te  Te144  1  0.93296175  0.25005721  0.07704645  1
  Te  Te145  1  0.90343082  0.25490329  0.43454563  1
  Te  Te146  1  0.90538782  0.24201591  0.73463893  1
  Te  Te147  1  0.93027007  0.56768410  0.06622047  1
  Te  Te148  1  0.91280340  0.59918762  0.43835295  1
  Te  Te149  1  0.92117614  0.59136241  0.75344149  1
  Te  Te150  1  0.91922495  0.92806193  0.07354743  1
  Te  Te151  1  0.93426300  0.94116916  0.40790688  1
  Te  Te152  1  0.93799115  0.86870377  0.74424935  1
  Te  Te153  1  0.26673837  0.06954937  0.22933052  1
  Te  Te154  1  0.23519502  0.08295006  0.58464829  1
  Te  Te155  1  0.22779705  0.12226975  0.92256613  1
  Te  Te156  1  0.28428796  0.37711458  0.20418730  1
  Te  Te157  1  0.22251944  0.43001415  0.58516598  1
  Te  Te158  1  0.24547726  0.44649007  0.95726389  1
  Te  Te159  1  0.25932214  0.73391563  0.23136332  1
  Te  Te160  1  0.23965347  0.73092049  0.58737786  1
  Te  Te161  1  0.25076247  0.77003581  0.92484117  1
  Te  Te162  1  0.58941884  0.06237659  0.24659827  1
  Te  Te163  1  0.57049772  0.12355347  0.61379058  1
  Te  Te164  1  0.56974064  0.10736479  0.94521055  1
  Te  Te165  1  0.56940117  0.41305970  0.23412200  1
  Te  Te166  1  0.55982869  0.42517713  0.58888402  1
  Te  Te167  1  0.60175628  0.41921189  0.89852737  1
  Te  Te168  1  0.60891874  0.77588959  0.26914320  1
  Te  Te169  1  0.59350809  0.73331778  0.61674562  1
  Te  Te170  1  0.59305879  0.76495306  0.91241344  1
  Te  Te171  1  0.90649951  0.07257764  0.28095270  1
  Te  Te172  1  0.91967350  0.06750321  0.60007379  1
  Te  Te173  1  0.92084192  0.05020626  0.91123428  1
  Te  Te174  1  0.91774086  0.42309318  0.23506286  1
  Te  Te175  1  0.88633850  0.39953838  0.56220890  1
  Te  Te176  1  0.93595688  0.39370506  0.92554672  1
  Te  Te177  1  0.90469264  0.76799932  0.27130391  1
  Te  Te178  1  0.90931893  0.78181262  0.61706125  1
  Te  Te179  1  0.89987716  0.74518518  0.91479419  1
