# generated using pymatgen
data_In2Te3
_symmetry_space_group_name_H-M   'P 1'
_cell_length_a   18.73875174
_cell_length_b   18.73380076
_cell_length_c   18.72500325
_cell_angle_alpha   90.06951361
_cell_angle_beta   89.92183458
_cell_angle_gamma   89.97952411
_symmetry_Int_Tables_number   1
_chemical_formula_structural   In2Te3
_chemical_formula_sum   'In72 Te108'
_cell_volume   6573.36434265
_cell_formula_units_Z   36
loop_
 _symmetry_equiv_pos_site_id
 _symmetry_equiv_pos_as_xyz
  1  'x, y, z'
loop_
 _atom_site_type_symbol
 _atom_site_label
 _atom_site_symmetry_multiplicity
 _atom_site_fract_x
 _atom_site_fract_y
 _atom_site_fract_z
 _atom_site_occupancy
  In  In0  1  0.50523367  0.68115809  0.80942915  1
  In  In1  1  0.66453247  0.67630459  -0.01949762  1
  In  In2  1  0.63557809  0.00800938  0.35045204  1
  In  In3  1  0.64466133  -0.01038137  -0.00321549  1
  In  In4  1  0.31755629  0.50235840  0.52634964  1
  In  In5  1  0.67504077  0.15009068  0.82754163  1
  In  In6  1  0.14976884  0.17593380  0.64543552  1
  In  In7  1  0.49049312  0.67867553  0.15345057  1
  In  In8  1  0.01711689  0.00396920  0.65822674  1
  In  In9  1  0.84140807  0.49663761  -0.01917964  1
  In  In10  1  0.18426868  0.31088338  0.18233252  1
  In  In11  1  0.00472028  0.53086545  0.79358055  1
  In  In12  1  0.32304384  0.17532234  0.49562232  1
  In  In13  1  0.49376950  0.48171984  0.35410201  1
  In  In14  1  0.18401879  0.18389863  0.01156649  1
  In  In15  1  0.49250598  -0.00734920  0.83812841  1
  In  In16  1  0.32853635  0.02934643  0.31302894  1
  In  In17  1  0.48318284  0.51977922  -0.01330100  1
  In  In18  1  0.85770546  0.19687513  0.35251770  1
  In  In19  1  0.66277777  0.33483747  0.34437643  1
  In  In20  1  0.03663399  0.19655464  0.17371669  1
  In  In21  1  0.16935539  0.80313985  0.35328524  1
  In  In22  1  0.85641305  0.34492730  0.50761841  1
  In  In23  1  0.17156880  -0.01001117  0.50884399  1
  In  In24  1  -0.01425449  0.19769387  0.78213128  1
  In  In25  1  0.83449151  0.81606767  0.36130121  1
  In  In26  1  0.00445935  0.64616873  -0.02015161  1
  In  In27  1  -0.00215451  0.35129757  -0.00228786  1
  In  In28  1  0.47495984  0.65927693  0.52660791  1
  In  In29  1  0.00798428  0.66301849  0.36210559  1
  In  In30  1  0.34345906  0.67788660  -0.02988626  1
  In  In31  1  0.84835552  0.78853087  0.65542893  1
  In  In32  1  0.85903802  0.49469448  0.35080055  1
  In  In33  1  0.30793275  0.32892403  -0.00307209  1
  In  In34  1  0.16954552  0.48057089  0.35005355  1
  In  In35  1  -0.02994112  0.48649354  0.17623977  1
  In  In36  1  0.64445976  0.16965974  0.17671866  1
  In  In37  1  0.81770264  0.18323732  -0.01212993  1
  In  In38  1  0.48332794  0.17179648  0.65915471  1
  In  In39  1  0.83265459  -0.00848630  0.17654377  1
  In  In40  1  0.16076244  0.33751887  0.81769422  1
  In  In41  1  0.66648905  0.64855740  0.35648465  1
  In  In42  1  0.49831656  0.16768370  0.32736540  1
  In  In43  1  0.65472164  0.35914282  0.64346991  1
  In  In44  1  0.16259304  0.48402998  -0.02193859  1
  In  In45  1  0.84475951  0.81626512  -0.01271317  1
  In  In46  1  0.65549765  0.49630348  0.20757292  1
  In  In47  1  0.35215206  0.01236031  0.01588512  1
  In  In48  1  0.31927004  0.16779079  0.83118673  1
  In  In49  1  0.47401720  0.35631903  0.79912151  1
  In  In50  1  0.03453858  0.81535417  0.80046856  1
  In  In51  1  0.16494336  0.67936131  0.17098837  1
  In  In52  1  0.66447135  0.16898902  0.49981585  1
  In  In53  1  0.49128239  0.85432839  0.34086106  1
  In  In54  1  0.82412356  -0.00781356  0.83453576  1
  In  In55  1  0.66932768  0.00113160  0.67221546  1
  In  In56  1  0.67914475  0.65126461  0.66204264  1
  In  In57  1  0.31180093  0.65091546  0.33588313  1
  In  In58  1  0.84539781  0.37532251  0.18065286  1
  In  In59  1  0.31317297  0.48844973  0.16368124  1
  In  In60  1  0.19238021  0.84469534  -0.01070979  1
  In  In61  1  0.31611683  0.83145710  0.54387012  1
  In  In62  1  0.01342747  0.01467855  0.34862133  1
  In  In63  1  0.48857185  0.83126937  0.66490198  1
  In  In64  1  0.65273419  0.83854408  0.15120231  1
  In  In65  1  0.19575210  -0.04051270  0.79667357  1
  In  In66  1  0.02333127  0.03316619  0.00655595  1
  In  In67  1  0.00371530  0.83786081  0.19091315  1
  In  In68  1  0.66695780  0.48677933  0.81724079  1
  In  In69  1  0.84582263  0.00252719  0.51499626  1
  In  In70  1  0.66022165  0.30534081  0.00210551  1
  In  In71  1  0.00901490  0.49885176  0.51416280  1
  Te  Te72  1  0.12196268  0.07568260  0.11955149  1
  Te  Te73  1  0.10818313  0.10004790  0.42781258  1
  Te  Te74  1  0.09446101  0.08470329  0.76450241  1
  Te  Te75  1  0.09621745  0.41754706  0.10340377  1
  Te  Te76  1  0.11471153  0.39963753  0.46739407  1
  Te  Te77  1  0.08652012  0.42394647  0.72185997  1
  Te  Te78  1  0.07372716  0.75371626  0.07237722  1
  Te  Te79  1  0.07588401  0.75326548  0.46230680  1
  Te  Te80  1  0.09475170  0.71662553  0.70496640  1
  Te  Te81  1  0.42134976  0.11868021  0.09357439  1
  Te  Te82  1  0.42076158  0.07819883  0.42544715  1
  Te  Te83  1  0.40229118  0.07286752  0.74393683  1
  Te  Te84  1  0.41325873  0.41539736  0.07515581  1
  Te  Te85  1  0.39609748  0.40783322  0.43689639  1
  Te  Te86  1  0.39301087  0.42585981  0.69521078  1
  Te  Te87  1  0.40790722  0.76688663  0.06980060  1
  Te  Te88  1  0.41083309  0.74020022  0.41441498  1
  Te  Te89  1  0.38867398  0.76721864  0.75892222  1
  Te  Te90  1  0.74639402  0.07876122  0.08168010  1
  Te  Te91  1  0.75948822  0.08282399  0.40306668  1
  Te  Te92  1  0.77766342  0.09426146  0.72871054  1
  Te  Te93  1  0.74119531  0.41825515  0.07327421  1
  Te  Te94  1  0.74844429  0.42480873  0.43182428  1
  Te  Te95  1  0.76244163  0.43309422  0.71612318  1
  Te  Te96  1  0.75444775  0.74258100  0.08813270  1
  Te  Te97  1  0.74147913  0.73883376  0.45023598  1
  Te  Te98  1  0.74469323  0.74993824  0.75429063  1
  Te  Te99  1  0.10392856  0.25252796  0.29791196  1
  Te  Te100  1  0.08012067  0.27830662  0.56432196  1
  Te  Te101  1  0.07833471  0.24727596  0.91678056  1
  Te  Te102  1  0.08708913  0.57711922  0.25476768  1
  Te  Te103  1  0.08819037  0.58098411  0.61953173  1
  Te  Te104  1  0.11378978  0.59496500  0.88655471  1
  Te  Te105  1  0.10424896  0.91703114  0.26882448  1
  Te  Te106  1  0.09899890  0.89605477  0.59889838  1
  Te  Te107  1  0.07508054  0.91846366  0.91033660  1
  Te  Te108  1  0.39898342  0.23812413  0.24668740  1
  Te  Te109  1  0.41363321  0.26834544  0.57128429  1
  Te  Te110  1  0.41416739  0.26114253  0.90429901  1
  Te  Te111  1  0.41994659  0.57609744  0.24684778  1
  Te  Te112  1  0.40266324  0.57842711  0.63073279  1
  Te  Te113  1  0.40285513  0.57634806  0.87175070  1
  Te  Te114  1  0.40668335  0.92294484  0.24161646  1
  Te  Te115  1  0.41713858  0.93109738  0.58148177  1
  Te  Te116  1  0.39843247  0.91030435  0.91624673  1
  Te  Te117  1  0.75489435  0.25477207  0.24312490  1
  Te  Te118  1  0.75636282  0.25222934  0.58368026  1
  Te  Te119  1  0.75381884  0.27259367  0.88254194  1
  Te  Te120  1  0.76823213  0.58233141  0.25969764  1
  Te  Te121  1  0.76723797  0.59990561  0.55461341  1
  Te  Te122  1  0.75371328  0.58761555  0.89384520  1
  Te  Te123  1  0.74299419  0.90502635  0.26343873  1
  Te  Te124  1  0.75699145  0.90619213  0.59010567  1
  Te  Te125  1  0.73544826  0.89661286  0.91412001  1
  Te  Te126  1  0.30230622  0.21908555  0.12048324  1
  Te  Te127  1  0.21291644  0.23230646  0.41387328  1
  Te  Te128  1  0.25747890  0.25906659  0.72635643  1
  Te  Te129  1  0.24638908  0.59041199  0.07092556  1
  Te  Te130  1  0.22083898  0.59346156  0.44152532  1
  Te  Te131  1  0.21578463  0.60058900  0.70682542  1
  Te  Te132  1  0.25440768  0.92699050  0.09317099  1
  Te  Te133  1  0.26224849  0.91140283  0.41350016  1
  Te  Te134  1  0.27514700  0.87066303  0.70637235  1
  Te  Te135  1  0.55219482  0.23955671  0.08243431  1
  Te  Te136  1  0.56354750  0.26189332  0.43381985  1
  Te  Te137  1  0.58319169  0.25188788  0.74701080  1
  Te  Te138  1  0.59166340  0.57623891  0.08504629  1
  Te  Te139  1  0.58252851  0.55968779  0.45319356  1
  Te  Te140  1  0.57168124  0.56577135  0.72885660  1
  Te  Te141  1  0.54841385  0.91354225  0.07939780  1
  Te  Te142  1  0.58744074  0.90407598  0.44159262  1
  Te  Te143  1  0.58881690  0.90484168  0.75827404  1
  Te  Te144  1  0.91474119  0.25289134  0.08570394  1
  Te  Te145  1  0.95416614  0.23868959  0.46089389  1
  Te  Te146  1  0.91083621  0.29643985  0.70670577  1
  Te  Te147  1  0.90531653  0.59068666  0.08414843  1
  Te  Te148  1  0.89654670  0.60108163  0.46247170  1
  Te  Te149  1  0.89851009  0.62967358  0.76031590  1
  Te  Te150  1  0.92357945  0.91934050  0.07519300  1
  Te  Te151  1  0.93448373  0.91038362  0.42990919  1
  Te  Te152  1  0.91885450  0.91172594  0.74370354  1
  Te  Te153  1  0.22185831  0.10052066  0.24035720  1
  Te  Te154  1  0.25806772  0.07956617  0.59868089  1
  Te  Te155  1  0.23796440  0.07197038  0.91787254  1
  Te  Te156  1  0.27615199  0.39609485  0.27795528  1
  Te  Te157  1  0.25394554  0.40899637  0.62470085  1
  Te  Te158  1  0.26804017  0.42685100  0.88430379  1
  Te  Te159  1  0.27086320  0.76256323  0.23863170  1
  Te  Te160  1  0.26086544  0.70656200  0.60075603  1
  Te  Te161  1  0.23779132  0.74568952  0.88991998  1
  Te  Te162  1  0.56039570  0.05484409  0.22917850  1
  Te  Te163  1  0.57359110  0.07506037  0.57843782  1
  Te  Te164  1  0.56765973  0.09887970  0.92199068  1
  Te  Te165  1  0.55851884  0.38730984  0.24394269  1
  Te  Te166  1  0.57295295  0.43399115  0.54895556  1
  Te  Te167  1  0.57407548  0.41316468  0.91649217  1
  Te  Te168  1  0.58482751  0.73996146  0.26026614  1
  Te  Te169  1  0.58475692  0.74885641  0.57991556  1
  Te  Te170  1  0.55871621  0.76003851  0.92291356  1
  Te  Te171  1  0.92663954  0.09161088  0.24465235  1
  Te  Te172  1  0.93335006  0.10112326  0.58314620  1
  Te  Te173  1  0.91461095  0.09363241  0.90865567  1
  Te  Te174  1  0.95239552  0.38744229  0.29272507  1
  Te  Te175  1  0.91800565  0.43057920  0.61851117  1
  Te  Te176  1  0.92802267  0.41916093  0.88304647  1
  Te  Te177  1  0.91524961  0.73433302  0.25860700  1
  Te  Te178  1  0.94563929  0.73490785  0.55797810  1
  Te  Te179  1  0.92011260  0.73108395  0.88034453  1
