# generated using pymatgen
data_In2Te3
_symmetry_space_group_name_H-M   'P 1'
_cell_length_a   18.89683442
_cell_length_b   18.89842824
_cell_length_c   18.89243821
_cell_angle_alpha   90.07228104
_cell_angle_beta   89.97178528
_cell_angle_gamma   89.94645630
_symmetry_Int_Tables_number   1
_chemical_formula_structural   In2Te3
_chemical_formula_sum   'In72 Te108'
_cell_volume   6746.86726107
_cell_formula_units_Z   36
loop_
 _symmetry_equiv_pos_site_id
 _symmetry_equiv_pos_as_xyz
  1  'x, y, z'
loop_
 _atom_site_type_symbol
 _atom_site_label
 _atom_site_symmetry_multiplicity
 _atom_site_fract_x
 _atom_site_fract_y
 _atom_site_fract_z
 _atom_site_occupancy
  In  In0  1  0.30238836  -0.00122915  0.65589384  1
  In  In1  1  0.01256265  0.33461176  0.32197420  1
  In  In2  1  0.16156578  0.67591506  0.48745656  1
  In  In3  1  0.51447120  0.64693767  0.51332822  1
  In  In4  1  0.84927616  0.85540213  0.01638893  1
  In  In5  1  0.36792872  0.37891982  0.35315032  1
  In  In6  1  0.01357346  0.65318193  0.00738429  1
  In  In7  1  0.32983513  0.82129982  0.15849237  1
  In  In8  1  0.68525440  0.65549692  0.34067043  1
  In  In9  1  0.67126165  0.68113448  0.00701825  1
  In  In10  1  0.68507455  0.46300398  0.14977580  1
  In  In11  1  0.33543320  0.17972658  0.82609807  1
  In  In12  1  0.32828727  0.80606903  0.49719923  1
  In  In13  1  0.83751211  0.48689129  0.65927511  1
  In  In14  1  0.83154908  0.18875549  0.00416136  1
  In  In15  1  -0.02005939  -0.00406582  0.01205976  1
  In  In16  1  0.67804358  0.32881912  0.66088168  1
  In  In17  1  0.48977028  0.18672273  0.00205740  1
  In  In18  1  0.50705995  0.83417861  0.67190381  1
  In  In19  1  0.32193464  0.64331945  0.31898344  1
  In  In20  1  0.66383775  0.31624417  0.35322394  1
  In  In21  1  0.13099109  0.83193064  0.62656661  1
  In  In22  1  0.68181065  0.02066049  0.35186174  1
  In  In23  1  0.67650954  0.18119946  0.15563226  1
  In  In24  1  -0.01996397  0.47617434  0.82952539  1
  In  In25  1  -0.01673551  0.85346461  0.82625658  1
  In  In26  1  0.33695573  0.17656039  0.21089423  1
  In  In27  1  0.11875273  0.85004599  0.33655666  1
  In  In28  1  -0.02123132  0.70589875  0.62360432  1
  In  In29  1  0.82010729  0.32496667  0.84621208  1
  In  In30  1  0.14449694  0.33349244  0.49973572  1
  In  In31  1  0.70188798  0.82451999  0.17065883  1
  In  In32  1  0.16646848  0.66556290  0.18596203  1
  In  In33  1  0.82170891  0.64811576  0.84200795  1
  In  In34  1  0.31655510  0.32312540  0.66008812  1
  In  In35  1  0.67054130  0.50437087  0.51495584  1
  In  In36  1  0.48315563  0.67458555  0.17281360  1
  In  In37  1  0.31719692  0.15812779  0.50129566  1
  In  In38  1  -0.01861749  0.50617123  0.49581162  1
  In  In39  1  0.33863157  0.81191246  0.83754402  1
  In  In40  1  0.15146717  -0.00704862  0.83612924  1
  In  In41  1  0.00986776  0.17594426  0.83277637  1
  In  In42  1  0.32130020  -0.01702567  0.34914883  1
  In  In43  1  0.68713522  0.66812483  0.66504321  1
  In  In44  1  0.32613759  -0.02427680  0.00068858  1
  In  In45  1  0.47789569  0.49939544  0.01164547  1
  In  In46  1  -0.01934770  0.15122181  0.16712960  1
  In  In47  1  0.52817510  0.01892630  0.16278596  1
  In  In48  1  0.82090196  0.17807986  0.65230675  1
  In  In49  1  0.49866736  0.01745478  0.49297639  1
  In  In50  1  0.48644436  0.63466950  0.84370053  1
  In  In51  1  0.50634129  0.85689268  0.34522467  1
  In  In52  1  0.17097723  0.66824841  0.83402752  1
  In  In53  1  0.65470675  0.83597964  0.80505714  1
  In  In54  1  0.83777514  -0.02684995  0.81964219  1
  In  In55  1  0.83374884  0.15994437  0.34418837  1
  In  In56  1  0.19086125  0.34350657  0.15066134  1
  In  In57  1  0.68235524  0.04261615  -0.00034206  1
  In  In58  1  0.51717947  0.35651101  0.83467037  1
  In  In59  1  0.49148988  0.50567851  0.66323308  1
  In  In60  1  0.01679957  0.51216890  0.16640977  1
  In  In61  1  0.32628488  0.48175916  0.14403474  1
  In  In62  1  0.00223016  0.16190720  0.50156311  1
  In  In63  1  0.49248129  0.83103905  0.02140685  1
  In  In64  1  0.67075009  0.17586340  0.85111551  1
  In  In65  1  0.16790403  0.49883570  0.68306689  1
  In  In66  1  0.86109924  0.83109637  0.32057939  1
  In  In67  1  0.84002505  0.50436418  0.33055084  1
  In  In68  1  0.68251334  -0.00615378  0.63265829  1
  In  In69  1  0.48356361  0.15345657  0.64686242  1
  In  In70  1  0.16935040  0.15547493  0.33778403  1
  In  In71  1  0.15168993  0.19362749  -0.00943956  1
  Te  Te72  1  0.08567461  0.08481454  0.07554782  1
  Te  Te73  1  0.07439240  0.06972303  0.40921014  1
  Te  Te74  1  0.06048639  0.06635105  0.74512698  1
  Te  Te75  1  0.08333512  0.41505769  0.07103265  1
  Te  Te76  1  0.08519519  0.43773528  0.40552033  1
  Te  Te77  1  0.07595711  0.40113505  0.74499111  1
  Te  Te78  1  0.06700827  0.74853774  0.11078784  1
  Te  Te79  1  0.05685981  0.72643066  0.39435901  1
  Te  Te80  1  0.07071132  0.75197719  0.74721679  1
  Te  Te81  1  0.41435794  0.07879300  0.08202803  1
  Te  Te82  1  0.41206074  0.09533123  0.39680688  1
  Te  Te83  1  0.40383243  0.06937625  0.74519557  1
  Te  Te84  1  0.43829722  0.38891162  0.10266661  1
  Te  Te85  1  0.46441440  0.44274568  0.44221693  1
  Te  Te86  1  0.40566570  0.41264004  0.74780853  1
  Te  Te87  1  0.39338015  0.72311481  0.06032425  1
  Te  Te88  1  0.43381692  0.73931188  0.40863965  1
  Te  Te89  1  0.42194147  0.73039914  0.73931315  1
  Te  Te90  1  0.78372964  0.07959839  0.10214937  1
  Te  Te91  1  0.79443310  0.05303268  0.44452887  1
  Te  Te92  1  0.74622307  0.08456954  0.75552282  1
  Te  Te93  1  0.77431892  0.39082071  0.05834796  1
  Te  Te94  1  0.75781514  0.41920298  0.42548166  1
  Te  Te95  1  0.74127965  0.42407783  0.75930824  1
  Te  Te96  1  0.78985309  0.73209931  0.08876782  1
  Te  Te97  1  0.75294264  0.76879329  0.40329901  1
  Te  Te98  1  0.77523563  0.76458035  0.74619224  1
  Te  Te99  1  0.09641422  0.24315747  0.23298991  1
  Te  Te100  1  0.09437007  0.23282004  0.59423957  1
  Te  Te101  1  0.09251272  0.28447531  0.89076897  1
  Te  Te102  1  0.08539186  0.58358528  0.27681415  1
  Te  Te103  1  0.07609655  0.59013807  0.59235185  1
  Te  Te104  1  0.08198805  0.56523403  0.90447571  1
  Te  Te105  1  0.04303095  0.94177776  0.24842935  1
  Te  Te106  1  0.05383928  0.92206561  0.54348854  1
  Te  Te107  1  0.07602690  0.90512324  0.93504971  1
  Te  Te108  1  0.42902033  0.28040991  0.25967802  1
  Te  Te109  1  0.41512589  0.25752533  0.56237738  1
  Te  Te110  1  0.40753469  0.27972653  0.91358524  1
  Te  Te111  1  0.42257204  0.55960281  0.24661795  1
  Te  Te112  1  0.39949505  0.58000127  0.57420402  1
  Te  Te113  1  0.38238862  0.55933417  0.91443499  1
  Te  Te114  1  0.42622407  0.92619601  0.23649990  1
  Te  Te115  1  0.41401726  0.91703070  0.57291163  1
  Te  Te116  1  0.43024401  0.91258468  0.90872558  1
  Te  Te117  1  0.76741186  0.25741247  0.24860448  1
  Te  Te118  1  0.75532853  0.26614681  0.55280265  1
  Te  Te119  1  0.71250445  0.28117597  0.95379719  1
  Te  Te120  1  0.75363324  0.58068499  0.23075201  1
  Te  Te121  1  0.77880021  0.59666959  0.56802815  1
  Te  Te122  1  0.73118401  0.57120353  0.92751565  1
  Te  Te123  1  0.76103164  0.93451289  0.25217482  1
  Te  Te124  1  0.77349328  0.88105163  0.61593143  1
  Te  Te125  1  0.73691835  0.91196081  0.92079797  1
  Te  Te126  1  0.26784515  0.22714316  0.08499787  1
  Te  Te127  1  0.25102721  0.26362392  0.40795567  1
  Te  Te128  1  0.23283582  0.22647149  0.73271778  1
  Te  Te129  1  0.23435661  0.58500397  0.08125912  1
  Te  Te130  1  0.25970413  0.57930731  0.43424772  1
  Te  Te131  1  0.26320586  0.57295471  0.76853183  1
  Te  Te132  1  0.23273611  0.90692955  0.08988960  1
  Te  Te133  1  0.22951355  0.90570713  0.43868889  1
  Te  Te134  1  0.23827827  0.89898674  0.75081692  1
  Te  Te135  1  0.56751944  0.26674157  0.09953834  1
  Te  Te136  1  0.60786658  0.21157013  0.43755716  1
  Te  Te137  1  0.57336020  0.23928557  0.74470268  1
  Te  Te138  1  0.58465169  0.59162327  0.09533140  1
  Te  Te139  1  0.57903317  0.56255916  0.40094741  1
  Te  Te140  1  0.59456910  0.58149862  0.74737607  1
  Te  Te141  1  0.60561974  0.91612487  0.08064766  1
  Te  Te142  1  0.60520192  0.92050521  0.43931932  1
  Te  Te143  1  0.58011003  0.95026777  0.73772674  1
  Te  Te144  1  0.94260591  0.25566291  0.07098673  1
  Te  Te145  1  0.92155253  0.26150197  0.41742405  1
  Te  Te146  1  0.91084152  0.25675177  0.74642777  1
  Te  Te147  1  0.91557820  0.56752665  0.07375784  1
  Te  Te148  1  0.91999047  0.60542144  0.40441086  1
  Te  Te149  1  0.92021569  0.59171446  0.74043310  1
  Te  Te150  1  0.94395957  0.90071664  0.13115719  1
  Te  Te151  1  0.95105785  0.88174382  0.43538307  1
  Te  Te152  1  0.94064615  0.94362447  0.71622938  1
  Te  Te153  1  0.24381786  0.05827688  0.24331891  1
  Te  Te154  1  0.21476439  0.08095660  0.57266953  1
  Te  Te155  1  0.24674761  0.08259466  0.91579837  1
  Te  Te156  1  0.25186441  0.42423870  0.26619525  1
  Te  Te157  1  0.24434224  0.42317547  0.57247916  1
  Te  Te158  1  0.23575648  0.42819144  1.02639676  1
  Te  Te159  1  0.25131928  0.77256403  0.27961056  1
  Te  Te160  1  0.24782518  0.73678875  0.60375786  1
  Te  Te161  1  0.23711685  0.76017377  0.92895918  1
  Te  Te162  1  0.59245716  0.10808094  0.26502883  1
  Te  Te163  1  0.60675404  0.11222934  0.55994180  1
  Te  Te164  1  0.56503000  0.08518515  0.91451618  1
  Te  Te165  1  0.60158448  0.40922734  0.25741490  1
  Te  Te166  1  0.57086216  0.40568597  0.57678609  1
  Te  Te167  1  0.58672897  0.45168488  0.92177806  1
  Te  Te168  1  0.58320259  0.76355974  0.24717428  1
  Te  Te169  1  0.59808705  0.75642853  0.57799606  1
  Te  Te170  1  0.57431633  0.74997992  0.90811128  1
  Te  Te171  1  0.93444577  0.06579448  0.28019032  1
  Te  Te172  1  0.89382399  0.07856925  0.56817177  1
  Te  Te173  1  0.90411893  0.08252256  0.91027285  1
  Te  Te174  1  0.91621767  0.41253071  0.23656706  1
  Te  Te175  1  0.92706123  0.40090402  0.58211090  1
  Te  Te176  1  0.89157115  0.41980956  0.93721728  1
  Te  Te177  1  0.92952662  0.76139993  0.20846969  1
  Te  Te178  1  0.88426732  0.79240423  0.54805611  1
  Te  Te179  1  0.91147137  0.75165394  0.91613228  1
