# generated using pymatgen
data_In2Te3
_symmetry_space_group_name_H-M   'P 1'
_cell_length_a   18.95364998
_cell_length_b   18.93739298
_cell_length_c   18.97591705
_cell_angle_alpha   89.86382295
_cell_angle_beta   89.78529349
_cell_angle_gamma   90.04480671
_symmetry_Int_Tables_number   1
_chemical_formula_structural   In2Te3
_chemical_formula_sum   'In72 Te108'
_cell_volume   6811.00829751
_cell_formula_units_Z   36
loop_
 _symmetry_equiv_pos_site_id
 _symmetry_equiv_pos_as_xyz
  1  'x, y, z'
loop_
 _atom_site_type_symbol
 _atom_site_label
 _atom_site_symmetry_multiplicity
 _atom_site_fract_x
 _atom_site_fract_y
 _atom_site_fract_z
 _atom_site_occupancy
  In  In0  1  0.51173898  0.67370531  0.85229039  1
  In  In1  1  0.13219885  0.48282471  0.65849520  1
  In  In2  1  0.67396368  0.17179899  0.83639932  1
  In  In3  1  0.80963377  0.85701988  -0.03124371  1
  In  In4  1  0.36330572  0.01094687  0.00201324  1
  In  In5  1  0.51506013  0.63126283  0.15896282  1
  In  In6  1  0.82971726  0.33372011  0.50516190  1
  In  In7  1  0.67809272  -0.00641462  0.33598305  1
  In  In8  1  0.19423753  0.83985123  0.65957262  1
  In  In9  1  0.65754157  0.67797567  0.33457124  1
  In  In10  1  0.66581499  0.83540947  0.49072282  1
  In  In11  1  0.35730367  0.17487987  0.83739631  1
  In  In12  1  0.18805157  0.82900247  -0.03032330  1
  In  In13  1  0.17777570  0.31523923  0.84816127  1
  In  In14  1  0.85075343  0.84363313  0.33697351  1
  In  In15  1  -0.01881195  0.31053563  0.65497530  1
  In  In16  1  0.16516659  -0.00947053  0.18040465  1
  In  In17  1  0.64927720  0.15774789  0.15430087  1
  In  In18  1  0.55228210  0.13034601  0.65168605  1
  In  In19  1  0.17029003  0.00978643  0.49145196  1
  In  In20  1  -0.00788356  0.84417785  0.17045964  1
  In  In21  1  -0.02713435  0.83770672  0.49284498  1
  In  In22  1  -0.03576144  0.51209810  0.17619243  1
  In  In23  1  0.00546323  0.66661088  0.64373041  1
  In  In24  1  0.82347905  0.00218609  0.17152446  1
  In  In25  1  0.67442840  0.66254878  -0.01378278  1
  In  In26  1  0.80368532  0.64144172  0.17039141  1
  In  In27  1  0.36133092  0.33874127  0.01183613  1
  In  In28  1  0.14468581  -0.00897774  0.81833924  1
  In  In29  1  -0.03984043  0.32084606  0.00788578  1
  In  In30  1  0.82849707  0.16317071  0.33879316  1
  In  In31  1  0.51518017  0.17024380  0.34858316  1
  In  In32  1  -0.01088399  0.16426893  0.50196470  1
  In  In33  1  0.34015447  0.31801407  0.66576807  1
  In  In34  1  0.67525493  0.66672990  0.65144354  1
  In  In35  1  0.33226031  0.82742301  0.85512563  1
  In  In36  1  0.83405709  0.67124685  0.81086513  1
  In  In37  1  0.35289099  0.16614749  0.15729208  1
  In  In38  1  0.17923187  0.67268574  0.83983475  1
  In  In39  1  0.33369362  0.66031213  0.31407498  1
  In  In40  1  0.34969014  0.83658168  0.51456723  1
  In  In41  1  0.67820804  0.33341778  0.66426671  1
  In  In42  1  0.49117103  0.82070573  0.30583466  1
  In  In43  1  0.17085131  0.49697724  0.03414888  1
  In  In44  1  0.33104182  0.48693552  0.47044044  1
  In  In45  1  0.16563610  0.21056852  0.32516143  1
  In  In46  1  0.81796629  0.86351793  0.68207631  1
  In  In47  1  0.79162119  0.34810941  0.15529428  1
  In  In48  1  0.35078953  0.81200496  0.15073693  1
  In  In49  1  0.63869738  0.46386782  0.84583923  1
  In  In50  1  0.34353335  -0.00184307  0.33835647  1
  In  In51  1  0.14921114  0.33809468  0.47987717  1
  In  In52  1  0.01317411  0.84413098  0.85426628  1
  In  In53  1  0.53690244  0.35720849  0.17054872  1
  In  In54  1  -0.00960898  0.49279192  0.86729478  1
  In  In55  1  -0.01248824  0.01826139  0.65596996  1
  In  In56  1  0.49218296  0.34582264  0.47351782  1
  In  In57  1  0.66707114  0.52157559  0.49254959  1
  In  In58  1  0.33126902  0.66220347  0.66502077  1
  In  In59  1  0.47557233  0.49315101  0.67380042  1
  In  In60  1  0.17027757  0.13873088  0.02132636  1
  In  In61  1  0.18591679  0.66628467  0.15910662  1
  In  In62  1  0.81835629  0.51157649  0.34737691  1
  In  In63  1  -0.01699036  0.65897204  0.03962852  1
  In  In64  1  -0.03016635  0.17377385  0.84213179  1
  In  In65  1  0.52458986  0.85531766  0.66639960  1
  In  In66  1  0.81435696  0.16073923  0.00015410  1
  In  In67  1  0.35926892  0.51839590  0.84926711  1
  In  In68  1  -0.00679155  0.65791319  0.35542653  1
  In  In69  1  0.31539358  0.16452537  0.50581106  1
  In  In70  1  0.51246408  0.01234627  0.84299177  1
  In  In71  1  0.17466767  0.47181507  0.30990488  1
  Te  Te72  1  0.07742755  0.09355641  0.12430538  1
  Te  Te73  1  0.08936848  0.10258521  0.40433404  1
  Te  Te74  1  0.07258776  0.10259896  0.75087096  1
  Te  Te75  1  0.04746306  0.42471770  0.08130437  1
  Te  Te76  1  0.06659252  0.42512907  0.39778838  1
  Te  Te77  1  0.07350427  0.39795245  0.77267439  1
  Te  Te78  1  0.09258468  0.76330208  0.07656300  1
  Te  Te79  1  0.07240397  0.76486973  0.41400473  1
  Te  Te80  1  0.09116079  0.75932795  0.75041318  1
  Te  Te81  1  0.46212182  0.09771693  0.07469293  1
  Te  Te82  1  0.42285452  0.08165044  0.43473681  1
  Te  Te83  1  0.43126062  0.08684334  0.73831657  1
  Te  Te84  1  0.42159794  0.42863140  0.10912966  1
  Te  Te85  1  0.41933517  0.42358508  0.37048639  1
  Te  Te86  1  0.41305481  0.39732679  0.77301444  1
  Te  Te87  1  0.44359254  0.73033360  0.07481366  1
  Te  Te88  1  0.41518871  0.74413371  0.41194506  1
  Te  Te89  1  0.41743202  0.75600162  0.74598346  1
  Te  Te90  1  0.71622713  0.04647773  0.06253001  1
  Te  Te91  1  0.72624804  0.09932854  0.42913102  1
  Te  Te92  1  0.73128742  0.05154006  0.76976721  1
  Te  Te93  1  0.73535321  0.45900453  0.07492233  1
  Te  Te94  1  0.72704575  0.40340800  0.41514486  1
  Te  Te95  1  0.74239640  0.43789018  0.74514591  1
  Te  Te96  1  0.76393234  0.75332780  0.07049990  1
  Te  Te97  1  0.76383588  0.74570733  0.41749435  1
  Te  Te98  1  0.72812225  0.76389489  0.75486938  1
  Te  Te99  1  0.10028866  0.31317873  0.24205432  1
  Te  Te100  1  0.09433340  0.24107668  0.58208121  1
  Te  Te101  1  0.08238547  0.24361835  0.94267419  1
  Te  Te102  1  0.08106790  0.58957749  0.23880363  1
  Te  Te103  1  0.09146550  0.58306255  0.56117512  1
  Te  Te104  1  0.08821725  0.59444687  0.93655526  1
  Te  Te105  1  0.07455251  0.91419316  0.26751454  1
  Te  Te106  1  0.08346631  0.91631944  0.58910336  1
  Te  Te107  1  0.08408518  0.94074777  0.94675627  1
  Te  Te108  1  0.44349904  0.25155474  0.24252801  1
  Te  Te109  1  0.43265165  0.24146946  0.57567839  1
  Te  Te110  1  0.44864626  0.25380912  0.92514648  1
  Te  Te111  1  0.43064827  0.56221305  0.26068514  1
  Te  Te112  1  0.40968932  0.57743540  0.56701813  1
  Te  Te113  1  0.46459629  0.56241332  0.93820112  1
  Te  Te114  1  0.41686518  0.92721946  0.22635140  1
  Te  Te115  1  0.42708760  0.93335085  0.59073536  1
  Te  Te116  1  0.44062969  0.90403979  0.92791385  1
  Te  Te117  1  0.73199676  0.24145611  0.24846817  1
  Te  Te118  1  0.76837348  0.23457844  0.59984342  1
  Te  Te119  1  0.75948002  0.26728839  0.91324396  1
  Te  Te120  1  0.70334248  0.55054822  0.25143853  1
  Te  Te121  1  0.76767030  0.57419095  0.58626390  1
  Te  Te122  1  0.74469037  0.57392205  0.88393926  1
  Te  Te123  1  0.74373590  0.89359429  0.24223717  1
  Te  Te124  1  0.74464250  0.93401441  0.57171053  1
  Te  Te125  1  0.72769758  0.94220904  0.87972855  1
  Te  Te126  1  0.25379418  0.25181641  0.07925936  1
  Te  Te127  1  0.27024385  0.27534509  0.41309487  1
  Te  Te128  1  0.24622121  0.22937396  0.74528579  1
  Te  Te129  1  0.27842092  0.56768901  0.10293059  1
  Te  Te130  1  0.23633626  0.58124056  0.40022071  1
  Te  Te131  1  0.24338769  0.56655249  0.74986621  1
  Te  Te132  1  0.25695631  0.92058612  0.07511792  1
  Te  Te133  1  0.25314226  0.90656217  0.41804236  1
  Te  Te134  1  0.26817430  0.92657315  0.75854325  1
  Te  Te135  1  0.60900162  0.27601348  0.06505712  1
  Te  Te136  1  0.59704225  0.24754182  0.44285456  1
  Te  Te137  1  0.57894781  0.24793686  0.74066546  1
  Te  Te138  1  0.61197174  0.55256309  0.06948240  1
  Te  Te139  1  0.56766997  0.60208494  0.42198286  1
  Te  Te140  1  0.57346036  0.58715169  0.74122942  1
  Te  Te141  1  0.57828478  0.99296781  0.07704857  1
  Te  Te142  1  0.56746701  0.90949670  0.40316049  1
  Te  Te143  1  0.61374236  0.93977734  0.75505791  1
  Te  Te144  1  0.88968386  0.23628012  0.11029766  1
  Te  Te145  1  0.92329423  0.26066369  0.40649108  1
  Te  Te146  1  0.88547766  0.24139043  0.74334407  1
  Te  Te147  1  0.87290668  0.55369185  0.05824833  1
  Te  Te148  1  0.89879480  0.58770363  0.44311714  1
  Te  Te149  1  0.93934371  0.57983189  0.75124040  1
  Te  Te150  1  0.90596401  0.91917775  0.07157978  1
  Te  Te151  1  0.90186730  0.94714548  0.42671576  1
  Te  Te152  1  0.92508744  0.93079648  0.76601669  1
  Te  Te153  1  0.25956547  0.10075517  0.26152258  1
  Te  Te154  1  0.24287659  0.07713114  0.59790668  1
  Te  Te155  1  0.25779295  0.07985653  0.91028117  1
  Te  Te156  1  0.23691740  0.36920954  0.22638160  1
  Te  Te157  1  0.25378238  0.41626086  0.58904455  1
  Te  Te158  1  0.25148784  0.42511278  0.92269990  1
  Te  Te159  1  0.24618194  0.76892222  0.25166508  1
  Te  Te160  1  0.24162422  0.73300539  0.56649460  1
  Te  Te161  1  0.28332902  0.71219699  0.94236147  1
  Te  Te162  1  0.57397710  0.06691404  0.25249979  1
  Te  Te163  1  0.63741200  0.05070978  0.56282623  1
  Te  Te164  1  0.56701369  0.12005064  0.92921881  1
  Te  Te165  1  0.62316129  0.41888868  0.27250178  1
  Te  Te166  1  0.57501600  0.42245602  0.58415064  1
  Te  Te167  1  0.58180416  0.36276786  0.93744337  1
  Te  Te168  1  0.59264667  0.75030269  0.21840744  1
  Te  Te169  1  0.57260972  0.74619593  0.57260824  1
  Te  Te170  1  0.60194239  0.76992173  0.91543685  1
  Te  Te171  1  0.91354946  0.06910290  0.26410529  1
  Te  Te172  1  0.88628802  0.10169517  0.58903717  1
  Te  Te173  1  0.91196241  0.07471760  0.93197644  1
  Te  Te174  1  0.88789787  0.41091340  0.25698850  1
  Te  Te175  1  0.92377496  0.41977571  0.57870173  1
  Te  Te176  1  0.88667233  0.39376912  0.90327435  1
  Te  Te177  1  0.90856088  0.72939685  0.23923910  1
  Te  Te178  1  0.89645454  0.75984423  0.59793256  1
  Te  Te179  1  0.92254443  0.74123945  0.91972933  1
