# generated using pymatgen
data_In2Te3
_symmetry_space_group_name_H-M   'P 1'
_cell_length_a   18.76718739
_cell_length_b   18.76526317
_cell_length_c   18.76136272
_cell_angle_alpha   90.01604373
_cell_angle_beta   90.00471340
_cell_angle_gamma   89.95489004
_symmetry_Int_Tables_number   1
_chemical_formula_structural   In2Te3
_chemical_formula_sum   'In72 Te108'
_cell_volume   6607.20948885
_cell_formula_units_Z   36
loop_
 _symmetry_equiv_pos_site_id
 _symmetry_equiv_pos_as_xyz
  1  'x, y, z'
loop_
 _atom_site_type_symbol
 _atom_site_label
 _atom_site_symmetry_multiplicity
 _atom_site_fract_x
 _atom_site_fract_y
 _atom_site_fract_z
 _atom_site_occupancy
  In  In0  1  0.49299896  0.49424489  0.30601151  1
  In  In1  1  0.67950100  0.33878930  0.66854066  1
  In  In2  1  0.49061763  0.66838800  0.52572762  1
  In  In3  1  0.67931215  0.49385531  0.49898172  1
  In  In4  1  0.31103639  -0.01149857  0.32600249  1
  In  In5  1  0.00772643  0.67809051  0.68950952  1
  In  In6  1  0.01625957  0.15477268  0.14115387  1
  In  In7  1  0.35241555  0.49940407  0.14213660  1
  In  In8  1  0.18345482  0.33539613  0.83917144  1
  In  In9  1  0.69630437  0.80119868  0.13170157  1
  In  In10  1  0.48741306  0.16880498  0.66478758  1
  In  In11  1  0.84389381  0.00247528  0.51014404  1
  In  In12  1  0.47858831  0.65817629  0.85050307  1
  In  In13  1  0.00510220  0.65606578  0.00170667  1
  In  In14  1  0.34115063  0.83270192  0.15884224  1
  In  In15  1  0.34602430  0.35836663  0.66972749  1
  In  In16  1  0.19577685  0.51041575  0.70084095  1
  In  In17  1  0.17152752  0.65422679  0.17307087  1
  In  In18  1  0.81515411  0.32016546  0.82279116  1
  In  In19  1  0.64161694  0.00638978  0.32811634  1
  In  In20  1  0.50864523  0.18483789  0.31370465  1
  In  In21  1  0.31750391  -0.00121040  0.00143081  1
  In  In22  1  0.84624301  0.65534694  0.51369030  1
  In  In23  1  0.66118727  0.82852229  0.84032693  1
  In  In24  1  0.03511369  0.84127631  0.86340291  1
  In  In25  1  0.32515938  0.50202147  0.50199870  1
  In  In26  1  0.15279462  0.83558134  0.32948731  1
  In  In27  1  0.81773605  0.65694695  0.86747169  1
  In  In28  1  0.00379535  0.33251514  0.00943684  1
  In  In29  1  0.50092794  0.50838561  0.68296084  1
  In  In30  1  0.83956826  0.19337507  -0.00231603  1
  In  In31  1  0.48689375  0.84349928  0.33213214  1
  In  In32  1  0.66571337  0.17752645  0.48576520  1
  In  In33  1  0.66296728  0.18640838  0.84239985  1
  In  In34  1  0.01204463  0.01775239  0.33753852  1
  In  In35  1  0.66329396  0.00691913  0.00318147  1
  In  In36  1  0.33209247  0.31873456  0.33802330  1
  In  In37  1  0.49758444  0.01265797  0.48778911  1
  In  In38  1  0.31593451  0.17738452  0.51087512  1
  In  In39  1  0.50793967  0.66032387  0.14348734  1
  In  In40  1  0.32215187  0.82147226  0.51322998  1
  In  In41  1  0.33766796  0.35065197  0.02093810  1
  In  In42  1  0.81807454  0.48115986  0.66996727  1
  In  In43  1  0.84683598  0.83030594  0.33540230  1
  In  In44  1  0.15850045  0.33661221  0.15079358  1
  In  In45  1  0.32720898  0.16249833  0.86412211  1
  In  In46  1  0.03415816  -0.02500010  0.63914024  1
  In  In47  1  0.65509228  0.49925812  0.15731313  1
  In  In48  1  0.17391704  0.66641021  0.51468320  1
  In  In49  1  0.14587757  0.16781447  0.66845798  1
  In  In50  1  0.32747928  0.16138075  0.16989382  1
  In  In51  1  0.15723206  0.49523088  0.33795370  1
  In  In52  1  0.69143938  -0.00706646  0.69030892  1
  In  In53  1  -0.00044804  0.16278657  0.49990940  1
  In  In54  1  0.80808648  0.20195222  0.30529203  1
  In  In55  1  0.00317416  0.49592306  0.48145359  1
  In  In56  1  0.51237988  0.19125989  0.01200260  1
  In  In57  1  0.84677897  0.46660084  0.27853154  1
  In  In58  1  0.83175551  0.34084797  0.48977136  1
  In  In59  1  0.82736387  0.00264356  0.84514305  1
  In  In60  1  0.49480338  0.83916739  0.00950088  1
  In  In61  1  0.00735980  0.66978490  0.31738727  1
  In  In62  1  0.30850085  0.82249414  0.85566874  1
  In  In63  1  0.31636858  -0.00844876  0.69076874  1
  In  In64  1  0.83937579  0.83654003  0.68029312  1
  In  In65  1  0.01960142  0.50070557  0.84214461  1
  In  In66  1  0.82699258  0.50380217  0.00860416  1
  In  In67  1  -0.00188615  0.83926469  0.16520842  1
  In  In68  1  -0.00429536  0.16694081  0.82709608  1
  In  In69  1  0.51564167  0.82671981  0.67435617  1
  In  In70  1  0.83373586  -0.00872869  0.15179071  1
  In  In71  1  0.67159250  0.65479102  0.32954650  1
  Te  Te72  1  0.08904506  0.06573583  0.04898418  1
  Te  Te73  1  0.10629357  0.09576945  0.42013424  1
  Te  Te74  1  0.08414019  0.06168756  0.75832733  1
  Te  Te75  1  0.09849558  0.43549830  0.05740449  1
  Te  Te76  1  0.08247114  0.39238413  0.41246333  1
  Te  Te77  1  0.08866180  0.40773089  0.74271244  1
  Te  Te78  1  0.09338621  0.75141000  0.08363436  1
  Te  Te79  1  0.07322783  0.74859166  0.42927971  1
  Te  Te80  1  0.10655017  0.77226198  0.74993895  1
  Te  Te81  1  0.42046208  0.08381460  0.07666191  1
  Te  Te82  1  0.40289177  0.09527694  0.40216106  1
  Te  Te83  1  0.41497065  0.08094656  0.76562991  1
  Te  Te84  1  0.46060087  0.42702663  0.06485199  1
  Te  Te85  1  0.41898375  0.41699018  0.41737421  1
  Te  Te86  1  0.41717715  0.42883501  0.78124608  1
  Te  Te87  1  0.39944955  0.73072285  0.06011655  1
  Te  Te88  1  0.40958180  0.74235328  0.41617296  1
  Te  Te89  1  0.40902070  0.75649466  0.75449779  1
  Te  Te90  1  0.75065718  0.10179907  0.08488494  1
  Te  Te91  1  0.75735939  0.07939291  0.40825462  1
  Te  Te92  1  0.76512452  0.10936793  0.75481056  1
  Te  Te93  1  0.75379570  0.40484796  0.09388356  1
  Te  Te94  1  0.74775036  0.41614803  0.38734943  1
  Te  Te95  1  0.71575481  0.44285238  0.78250737  1
  Te  Te96  1  0.77252501  0.73194951  0.02825654  1
  Te  Te97  1  0.75588368  0.74299323  0.42213266  1
  Te  Te98  1  0.74896516  0.73956576  0.75308119  1
  Te  Te99  1  0.07480035  0.25063523  0.24143002  1
  Te  Te100  1  0.07810808  0.26216810  0.57870098  1
  Te  Te101  1  0.09068798  0.24447609  0.92010828  1
  Te  Te102  1  0.06568152  0.55766390  0.23250888  1
  Te  Te103  1  0.07890991  0.57407684  0.59418743  1
  Te  Te104  1  0.10676724  0.60975934  0.89683947  1
  Te  Te105  1  0.09288873  0.93810672  0.23357429  1
  Te  Te106  1  0.11160621  0.88966392  0.55000963  1
  Te  Te107  1  0.10028544  0.93438385  0.96238301  1
  Te  Te108  1  0.41970702  0.27110684  0.22250659  1
  Te  Te109  1  0.42256214  0.26894309  0.57016638  1
  Te  Te110  1  0.42059083  0.26936519  0.91836619  1
  Te  Te111  1  0.40885607  0.60292536  0.24502082  1
  Te  Te112  1  0.39056719  0.58943448  0.60840790  1
  Te  Te113  1  0.38542323  0.54653258  0.89193421  1
  Te  Te114  1  0.42311635  0.94001991  0.23360534  1
  Te  Te115  1  0.41844578  0.92462253  0.58529354  1
  Te  Te116  1  0.41421041  0.92007224  0.90938169  1
  Te  Te117  1  0.70951552  0.27667904  0.22367691  1
  Te  Te118  1  0.76390789  0.24129328  0.58404102  1
  Te  Te119  1  0.71792296  0.28664222  0.94961438  1
  Te  Te120  1  0.75899746  0.58865390  0.22586932  1
  Te  Te121  1  0.73701494  0.59169186  0.60057175  1
  Te  Te122  1  0.71685230  0.57278609  0.93432107  1
  Te  Te123  1  0.74610904  0.91109121  0.25159767  1
  Te  Te124  1  0.74681032  0.90587953  0.57824506  1
  Te  Te125  1  0.75476218  0.90425647  0.93538245  1
  Te  Te126  1  0.24387166  0.23954233  0.06798359  1
  Te  Te127  1  0.22777047  0.24678111  0.41402290  1
  Te  Te128  1  0.26617299  0.24232732  0.74107570  1
  Te  Te129  1  0.25268790  0.58298909  0.07091010  1
  Te  Te130  1  0.25212386  0.59457078  0.40451739  1
  Te  Te131  1  0.26683525  0.59974967  0.79809778  1
  Te  Te132  1  0.23549580  0.89738032  0.07509502  1
  Te  Te133  1  0.22876733  0.91984720  0.43863327  1
  Te  Te134  1  0.22107372  0.90493076  0.76399201  1
  Te  Te135  1  0.60474135  0.25305046  0.10841790  1
  Te  Te136  1  0.57448135  0.26835784  0.41681523  1
  Te  Te137  1  0.56483013  0.26807875  0.75237014  1
  Te  Te138  1  0.56140407  0.55469642  0.05077833  1
  Te  Te139  1  0.57236987  0.57837368  0.41955518  1
  Te  Te140  1  0.58372948  0.60243772  0.76075025  1
  Te  Te141  1  0.59277771  0.91166299  0.10054604  1
  Te  Te142  1  0.58873119  0.90395351  0.42962963  1
  Te  Te143  1  0.57578145  0.93314724  0.76793726  1
  Te  Te144  1  0.90662199  0.27255618  0.11356712  1
  Te  Te145  1  0.91633775  0.25069542  0.40101660  1
  Te  Te146  1  0.92415377  0.26412822  0.74131164  1
  Te  Te147  1  0.93394057  0.56353049  0.09264640  1
  Te  Te148  1  0.90286019  0.57411356  0.39510606  1
  Te  Te149  1  0.90948139  0.57842785  0.75503597  1
  Te  Te150  1  0.92877380  0.92224847  0.06264895  1
  Te  Te151  1  0.93639705  0.91600051  0.42448430  1
  Te  Te152  1  0.93210192  0.92038216  0.76708010  1
  Te  Te153  1  0.22894581  0.08247412  0.24686182  1
  Te  Te154  1  0.23741643  0.07243325  0.58781397  1
  Te  Te155  1  0.21982169  0.07195099  0.91322998  1
  Te  Te156  1  0.25844733  0.42159709  0.24476500  1
  Te  Te157  1  0.23340719  0.41182695  0.58243549  1
  Te  Te158  1  0.25340551  0.43278203  0.92668187  1
  Te  Te159  1  0.25699979  0.75058742  0.25832629  1
  Te  Te160  1  0.24380617  0.74911593  0.61582757  1
  Te  Te161  1  0.22964904  0.70956679  0.91243883  1
  Te  Te162  1  0.58493702  0.09400228  0.22453222  1
  Te  Te163  1  0.59417118  0.08190027  0.59189821  1
  Te  Te164  1  0.57079171  0.08617449  0.91243245  1
  Te  Te165  1  0.59246418  0.39892824  0.25169988  1
  Te  Te166  1  0.57871271  0.41668564  0.58309135  1
  Te  Te167  1  0.61471507  0.37519699  0.88087319  1
  Te  Te168  1  0.58232284  0.75196541  0.24787171  1
  Te  Te169  1  0.59926326  0.75150444  0.57966713  1
  Te  Te170  1  0.58160446  0.73951911  0.93402506  1
  Te  Te171  1  0.90951563  0.08945066  0.24645677  1
  Te  Te172  1  0.92654419  0.08074015  0.60910779  1
  Te  Te173  1  0.92307592  0.08263241  0.93395369  1
  Te  Te174  1  0.94866506  0.36654100  0.23783487  1
  Te  Te175  1  0.92481422  0.41251589  0.58728800  1
  Te  Te176  1  0.91115313  0.41109125  0.90420019  1
  Te  Te177  1  0.90252913  0.73716643  0.22788031  1
  Te  Te178  1  0.93154074  0.76092135  0.58435567  1
  Te  Te179  1  0.91710311  0.75638180  0.92366810  1
