# generated using pymatgen
data_In2Te3
_symmetry_space_group_name_H-M   'P 1'
_cell_length_a   18.82917546
_cell_length_b   18.83719743
_cell_length_c   18.82737036
_cell_angle_alpha   89.94065317
_cell_angle_beta   90.02443630
_cell_angle_gamma   90.04095048
_symmetry_Int_Tables_number   1
_chemical_formula_structural   In2Te3
_chemical_formula_sum   'In72 Te108'
_cell_volume   6677.85330599
_cell_formula_units_Z   36
loop_
 _symmetry_equiv_pos_site_id
 _symmetry_equiv_pos_as_xyz
  1  'x, y, z'
loop_
 _atom_site_type_symbol
 _atom_site_label
 _atom_site_symmetry_multiplicity
 _atom_site_fract_x
 _atom_site_fract_y
 _atom_site_fract_z
 _atom_site_occupancy
  In  In0  1  0.01232812  0.82904657  0.49254326  1
  In  In1  1  -0.00384571  0.66708043  0.00685921  1
  In  In2  1  0.33924354  0.82786917  0.82809427  1
  In  In3  1  0.00414931  0.48492953  0.48818895  1
  In  In4  1  0.15382798  0.64294749  0.18707453  1
  In  In5  1  -0.01632660  0.35911894  0.65253503  1
  In  In6  1  0.83642434  0.66661371  0.47968436  1
  In  In7  1  0.82055653  0.16344431  0.01073683  1
  In  In8  1  0.00280710  0.15769115  0.15899935  1
  In  In9  1  0.18353845  0.48446810  0.00868655  1
  In  In10  1  0.85751933  0.66677048  0.20042452  1
  In  In11  1  0.47851710  0.20108546  -0.00992268  1
  In  In12  1  0.48845905  0.84040249  0.33974450  1
  In  In13  1  0.81967281  0.00257923  0.84430752  1
  In  In14  1  0.66728316  0.30978993  0.65184465  1
  In  In15  1  -0.00810053  0.50121849  0.83920266  1
  In  In16  1  0.18930907  0.34431958  0.84524779  1
  In  In17  1  0.65940514  0.65122151  0.34912955  1
  In  In18  1  0.49071934  0.15065615  0.67144383  1
  In  In19  1  0.33011591  -0.00084027  0.00017399  1
  In  In20  1  0.16301410  0.15027022  0.65465431  1
  In  In21  1  0.49050350  -0.00129944  0.48718330  1
  In  In22  1  0.68066535  0.66163926  0.01720829  1
  In  In23  1  -0.00959770  0.34083647  0.32570868  1
  In  In24  1  0.49360533  0.66739824  0.84734323  1
  In  In25  1  0.66124688  -0.01300451  0.01095955  1
  In  In26  1  0.85592260  -0.01648159  0.16102699  1
  In  In27  1  0.66469373  0.16625072  0.81599295  1
  In  In28  1  0.52829719  0.02610629  0.19079449  1
  In  In29  1  0.50559152  0.34536808  0.48791184  1
  In  In30  1  0.85056023  0.33166658  0.83758265  1
  In  In31  1  0.14652146  0.81794463  0.00733594  1
  In  In32  1  0.18284899  0.52465776  0.66122601  1
  In  In33  1  0.52188625  0.47424009  0.31051247  1
  In  In34  1  0.50197155  -0.00742831  0.82600188  1
  In  In35  1  0.16073704  0.84556288  0.31965304  1
  In  In36  1  0.66639063  0.50585697  0.86106442  1
  In  In37  1  0.67663423  0.35389143  0.09192425  1
  In  In38  1  0.17072554  0.02885773  0.16891668  1
  In  In39  1  0.16889919  -0.01379415  0.85877459  1
  In  In40  1  0.33646194  0.50579126  0.48867036  1
  In  In41  1  0.65388151  0.68677723  0.65527945  1
  In  In42  1  0.34235448  0.49018465  0.16154283  1
  In  In43  1  0.47409474  0.49607233  0.67080862  1
  In  In44  1  0.16432464  0.84239250  0.65872251  1
  In  In45  1  -0.00077332  0.00927506  0.33941437  1
  In  In46  1  0.65399642  -0.00173836  0.67852352  1
  In  In47  1  0.67832814  0.48831885  0.46025891  1
  In  In48  1  0.01526124  0.18571849  0.83209240  1
  In  In49  1  0.17438032  0.32999319  0.16128476  1
  In  In50  1  0.00728576  0.83040184  0.84797739  1
  In  In51  1  0.34396838  0.18406759  0.18869161  1
  In  In52  1  0.35211161  0.81820323  0.16833439  1
  In  In53  1  0.33208267  0.17320500  0.47446118  1
  In  In54  1  0.49710838  0.65987665  0.15375673  1
  In  In55  1  0.18681496  0.67004355  0.81532704  1
  In  In56  1  0.15090886  0.33108606  0.46543777  1
  In  In57  1  -0.02058161  0.16765004  0.47822509  1
  In  In58  1  0.83875398  0.50324744  0.66864028  1
  In  In59  1  0.66629215  0.84882968  0.84338470  1
  In  In60  1  0.83299373  0.83075371  0.67589512  1
  In  In61  1  0.16809820  -0.00102221  0.49863763  1
  In  In62  1  0.32967997  0.34415356  0.68388059  1
  In  In63  1  0.67887757  0.84699037  0.17182426  1
  In  In64  1  0.80988570  0.47607553  0.33344776  1
  In  In65  1  0.33289270  0.83567283  0.50185249  1
  In  In66  1  0.82052331  0.02241787  0.49611124  1
  In  In67  1  0.48967360  0.48235017  -0.00285393  1
  In  In68  1  0.65291818  0.81844549  0.48119606  1
  In  In69  1  0.15723495  0.66533192  0.48601127  1
  In  In70  1  0.67275202  0.19512964  0.46611147  1
  In  In71  1  -0.00530462  0.34741454  0.01459784  1
  Te  Te72  1  0.09943326  0.10199632  0.06245993  1
  Te  Te73  1  0.09908093  0.10098712  0.40978631  1
  Te  Te74  1  0.08412942  0.07153042  0.75891859  1
  Te  Te75  1  0.07636310  0.43722156  0.10580108  1
  Te  Te76  1  0.10230147  0.44963161  0.37223782  1
  Te  Te77  1  0.08680196  0.41563724  0.75030301  1
  Te  Te78  1  0.06661066  0.74877852  0.11600209  1
  Te  Te79  1  0.05909249  0.73664127  0.37834886  1
  Te  Te80  1  0.07871591  0.74687584  0.74125859  1
  Te  Te81  1  0.42834401  0.08385049  0.08138979  1
  Te  Te82  1  0.43098839  0.09688603  0.39055304  1
  Te  Te83  1  0.40438592  0.08844124  0.77246881  1
  Te  Te84  1  0.43231163  0.39164056  0.09944937  1
  Te  Te85  1  0.40673237  0.40976978  0.39324859  1
  Te  Te86  1  0.42500712  0.40765619  0.78034190  1
  Te  Te87  1  0.41784791  0.74234481  0.06148474  1
  Te  Te88  1  0.40539415  0.74385455  0.41156809  1
  Te  Te89  1  0.41511097  0.73631696  0.74259045  1
  Te  Te90  1  0.74072013  0.07595589  0.10414645  1
  Te  Te91  1  0.74287252  0.08931388  0.38691374  1
  Te  Te92  1  0.76383683  0.09005766  0.73075442  1
  Te  Te93  1  0.78698487  0.44899794  0.12293565  1
  Te  Te94  1  0.72343085  0.36592528  0.38971610  1
  Te  Te95  1  0.74906279  0.40844252  0.75029374  1
  Te  Te96  1  0.77188736  0.75175328  0.09969169  1
  Te  Te97  1  0.75958364  0.76073456  0.38853981  1
  Te  Te98  1  0.74533793  0.74331305  0.76410052  1
  Te  Te99  1  0.08412852  0.24587277  0.25325290  1
  Te  Te100  1  0.07995190  0.25705230  0.58073308  1
  Te  Te101  1  0.09428207  0.26372116  0.93590707  1
  Te  Te102  1  0.06410404  0.56063285  0.26875547  1
  Te  Te103  1  0.06704001  0.58608751  0.58374144  1
  Te  Te104  1  0.10058361  0.57927952  0.91643014  1
  Te  Te105  1  0.06969987  0.92940425  0.23105529  1
  Te  Te106  1  0.06473652  0.93470342  0.59027839  1
  Te  Te107  1  0.05510802  0.93287448  0.96051916  1
  Te  Te108  1  0.44117143  0.25215068  0.27611457  1
  Te  Te109  1  0.41606315  0.26103703  0.58139453  1
  Te  Te110  1  0.39877845  0.28821762  0.90252678  1
  Te  Te111  1  0.42352903  0.57982867  0.25883690  1
  Te  Te112  1  0.39941419  0.59219125  0.59015728  1
  Te  Te113  1  0.40333245  0.57324563  0.91664435  1
  Te  Te114  1  0.41480690  0.93353348  0.24501735  1
  Te  Te115  1  0.41498092  0.92411195  0.58830675  1
  Te  Te116  1  0.42654518  0.90630082  0.92604570  1
  Te  Te117  1  0.69698600  0.25471288  0.21028689  1
  Te  Te118  1  0.76544987  0.23418354  0.57476540  1
  Te  Te119  1  0.74400229  0.25271850  0.91404971  1
  Te  Te120  1  0.73268768  0.57507254  0.24200279  1
  Te  Te121  1  0.74118267  0.58886387  0.57272648  1
  Te  Te122  1  0.76983306  0.58798390  0.92438242  1
  Te  Te123  1  0.76963159  0.91770400  0.26196426  1
  Te  Te124  1  0.73902230  0.90746472  0.58258824  1
  Te  Te125  1  0.76867884  0.90086004  0.94585210  1
  Te  Te126  1  0.26306408  0.24353968  0.07963873  1
  Te  Te127  1  0.25475338  0.26342931  0.38620810  1
  Te  Te128  1  0.24618339  0.23581674  0.75238262  1
  Te  Te129  1  0.25680892  0.59394270  0.08530436  1
  Te  Te130  1  0.24707053  0.58596390  0.40175696  1
  Te  Te131  1  0.27257717  0.55662974  0.77374843  1
  Te  Te132  1  0.24356361  0.90643661  0.08955584  1
  Te  Te133  1  0.25969041  0.92724498  0.40136594  1
  Te  Te134  1  0.25449103  0.92644456  0.74710544  1
  Te  Te135  1  0.58148323  0.23435045  0.09406632  1
  Te  Te136  1  0.54174615  0.23028994  0.39405210  1
  Te  Te137  1  0.56397638  0.25932777  0.75249109  1
  Te  Te138  1  0.58969190  0.56175413  0.08697747  1
  Te  Te139  1  0.55659326  0.57275366  0.42807456  1
  Te  Te140  1  0.58932636  0.57854511  0.75058355  1
  Te  Te141  1  0.56280665  0.90885158  0.09541889  1
  Te  Te142  1  0.59553886  0.93230305  0.39788062  1
  Te  Te143  1  0.56599787  0.88820377  0.73448559  1
  Te  Te144  1  0.90335348  0.25710614  0.09684946  1
  Te  Te145  1  0.89396372  0.25457860  0.39640250  1
  Te  Te146  1  0.91684492  0.24565557  0.73148350  1
  Te  Te147  1  0.92534948  0.57775578  0.10314644  1
  Te  Te148  1  0.91636071  0.56995113  0.39492881  1
  Te  Te149  1  0.91936918  0.59379877  0.75079844  1
  Te  Te150  1  0.93051879  0.91744053  0.05496995  1
  Te  Te151  1  0.91079113  0.91846951  0.42303778  1
  Te  Te152  1  0.91956353  0.92249618  0.76004269  1
  Te  Te153  1  0.26235025  0.08692752  0.26702044  1
  Te  Te154  1  0.27263374  0.07673181  0.57878961  1
  Te  Te155  1  0.24783204  0.09326631  0.92119851  1
  Te  Te156  1  0.25400934  0.41424285  0.25345614  1
  Te  Te157  1  0.23537567  0.40875261  0.57583037  1
  Te  Te158  1  0.28579858  0.38466883  0.95575098  1
  Te  Te159  1  0.25366841  0.74271637  0.25609879  1
  Te  Te160  1  0.24678462  0.73834334  0.58634272  1
  Te  Te161  1  0.25416610  0.74667273  0.92775505  1
  Te  Te162  1  0.63330667  0.11151086  0.25271219  1
  Te  Te163  1  0.59252131  0.09119807  0.57400090  1
  Te  Te164  1  0.58620506  0.08487674  0.91927872  1
  Te  Te165  1  0.62563875  0.39327943  0.23873261  1
  Te  Te166  1  0.59228207  0.42639078  0.58563056  1
  Te  Te167  1  0.60510791  0.39846525  0.94361268  1
  Te  Te168  1  0.58180958  0.74652241  0.25098188  1
  Te  Te169  1  0.55575924  0.74502930  0.56284855  1
  Te  Te170  1  0.58928628  0.75199738  0.93266682  1
  Te  Te171  1  0.90568372  0.09804808  0.25856630  1
  Te  Te172  1  0.92595653  0.07838381  0.58208591  1
  Te  Te173  1  0.91701246  0.09801161  0.91427633  1
  Te  Te174  1  0.89599228  0.40886569  0.22765940  1
  Te  Te175  1  0.88353266  0.41370716  0.55233527  1
  Te  Te176  1  0.89582569  0.43573859  0.93883209  1
  Te  Te177  1  0.93601294  0.75717615  0.28348936  1
  Te  Te178  1  0.91830655  0.74553576  0.58160694  1
  Te  Te179  1  0.91022939  0.74010186  0.91172615  1
