# generated using pymatgen
data_In2Te3
_symmetry_space_group_name_H-M   'P 1'
_cell_length_a   18.95201445
_cell_length_b   18.96842432
_cell_length_c   18.98758823
_cell_angle_alpha   90.12447215
_cell_angle_beta   90.03945351
_cell_angle_gamma   89.98745424
_symmetry_Int_Tables_number   1
_chemical_formula_structural   In2Te3
_chemical_formula_sum   'In72 Te108'
_cell_volume   6825.82739147
_cell_formula_units_Z   36
loop_
 _symmetry_equiv_pos_site_id
 _symmetry_equiv_pos_as_xyz
  1  'x, y, z'
loop_
 _atom_site_type_symbol
 _atom_site_label
 _atom_site_symmetry_multiplicity
 _atom_site_fract_x
 _atom_site_fract_y
 _atom_site_fract_z
 _atom_site_occupancy
  In  In0  1  0.16136541  0.33017841  0.81631195  1
  In  In1  1  0.67609543  0.49702518  0.51256686  1
  In  In2  1  0.66787978  0.34562559  0.35312794  1
  In  In3  1  0.01263754  0.66551211  0.34820421  1
  In  In4  1  -0.00375849  0.18259307  0.48802072  1
  In  In5  1  0.35024410  0.69026944  0.47575360  1
  In  In6  1  0.85161136  0.47851373  0.34154099  1
  In  In7  1  0.17251748  -0.01758985  0.86439294  1
  In  In8  1  0.83693389  0.67296272  0.82459784  1
  In  In9  1  0.16136522  0.68834993  0.84024011  1
  In  In10  1  0.13135011  0.48428885  0.02633042  1
  In  In11  1  0.69344940  0.02938565  0.67850264  1
  In  In12  1  0.48424943  0.50763948  0.00370977  1
  In  In13  1  0.00988655  0.83708981  0.82950533  1
  In  In14  1  0.69067190  0.17117588  0.84245184  1
  In  In15  1  0.14845802  0.18530160  0.31612083  1
  In  In16  1  0.51444540  0.51256321  0.65144401  1
  In  In17  1  0.29621043  0.36593814  0.03050873  1
  In  In18  1  0.86203008  0.51754850  0.01242679  1
  In  In19  1  0.15156881  0.15168009  0.65731286  1
  In  In20  1  0.48770763  0.35893752  0.48788365  1
  In  In21  1  0.73061037  0.14963357  0.15942319  1
  In  In22  1  0.85027408  0.32605608  0.83724902  1
  In  In23  1  0.14897114  0.82743621  0.33888368  1
  In  In24  1  0.14683193  0.33722278  0.47114384  1
  In  In25  1  -0.00625275  0.00268922  0.66350775  1
  In  In26  1  0.85836115  0.17605146  0.32612991  1
  In  In27  1  0.64733623  0.50027428  0.16341043  1
  In  In28  1  0.15412373  -0.01338614  0.51821750  1
  In  In29  1  0.50611236  0.19058833  0.65679101  1
  In  In30  1  0.83597463  0.84509927  -0.02321266  1
  In  In31  1  0.31539773  0.33271447  0.63981493  1
  In  In32  1  0.31746596  -0.00200482  0.29265606  1
  In  In33  1  0.17826974  0.66201213  0.18013329  1
  In  In34  1  0.30460312  0.12189364  0.85085244  1
  In  In35  1  0.33835122  0.83888295  0.83203027  1
  In  In36  1  0.49274743  0.82759760  0.64311472  1
  In  In37  1  0.49064394  0.69001499  0.15549268  1
  In  In38  1  0.49714819  0.14515576  -0.01442459  1
  In  In39  1  0.02023433  0.79835007  0.18123619  1
  In  In40  1  0.68163460  0.83442978  0.19066059  1
  In  In41  1  0.84113188  0.49557879  0.66372241  1
  In  In42  1  0.31725814  0.19321689  0.16573428  1
  In  In43  1  0.42935339  0.56719117  0.35551112  1
  In  In44  1  0.51013235  -0.00455949  0.18651435  1
  In  In45  1  0.50681263  0.82786296  0.00501965  1
  In  In46  1  0.28302385  0.48642528  0.19395715  1
  In  In47  1  0.35958049  0.51643573  0.83256067  1
  In  In48  1  0.72067143  0.29222555  0.64843499  1
  In  In49  1  -0.01984901  0.50974218  0.83419217  1
  In  In50  1  0.32129174  -0.04206861  0.05141309  1
  In  In51  1  0.47605571  0.33762441  0.85571113  1
  In  In52  1  0.84781561  0.65927807  0.18949137  1
  In  In53  1  0.65608101  0.34605246  0.00091925  1
  In  In54  1  0.67971263  0.00181862  0.36387862  1
  In  In55  1  0.87633888  0.31755674  0.15778710  1
  In  In56  1  0.66767251  0.65996017  0.36847169  1
  In  In57  1  0.00864522  0.49836963  0.49569404  1
  In  In58  1  0.50964654  -0.01475809  0.81570231  1
  In  In59  1  0.84680098  0.84138183  0.65364808  1
  In  In60  1  0.67682787  0.83459818  0.51903184  1
  In  In61  1  0.13690968  0.50401381  0.66675387  1
  In  In62  1  -0.00886908  0.16488335  0.88663538  1
  In  In63  1  0.30117735  0.68253529  0.65283467  1
  In  In64  1  0.49691571  0.00622412  0.49970594  1
  In  In65  1  0.51945667  0.29542443  0.17535253  1
  In  In66  1  0.66343065  0.67775075  0.67128540  1
  In  In67  1  0.33271588  -0.01983843  0.66807675  1
  In  In68  1  0.85921253  -0.00280738  0.15912581  1
  In  In69  1  0.50144162  0.17131641  0.32721670  1
  In  In70  1  0.68263911  0.69569025  -0.03156800  1
  In  In71  1  -0.01763595  -0.01342149  0.33713255  1
  Te  Te72  1  0.01564690  0.09220259  0.02175728  1
  Te  Te73  1  0.08384641  0.07780801  0.41623964  1
  Te  Te74  1  0.08887574  0.06942383  0.76610369  1
  Te  Te75  1  0.05662348  0.39667007  0.11646866  1
  Te  Te76  1  0.09727620  0.44832250  0.38364835  1
  Te  Te77  1  0.05203572  0.40745734  0.74611270  1
  Te  Te78  1  0.12824891  0.76417102  0.08098627  1
  Te  Te79  1  0.11331919  0.72469061  0.44149877  1
  Te  Te80  1  0.07814949  0.74612307  0.73614434  1
  Te  Te81  1  0.42037032  0.08830092  0.10471313  1
  Te  Te82  1  0.41002161  0.07304484  0.39498557  1
  Te  Te83  1  0.42403966  0.08421910  0.73822438  1
  Te  Te84  1  0.43830372  0.38302085  0.07570304  1
  Te  Te85  1  0.38283780  0.43475604  0.41706907  1
  Te  Te86  1  0.41510485  0.40672991  0.73146511  1
  Te  Te87  1  0.39523062  0.77798436  0.08644462  1
  Te  Te88  1  0.39199616  0.76471332  0.35478938  1
  Te  Te89  1  0.41182270  0.74407892  0.73872238  1
  Te  Te90  1  0.75812113  0.04321768  0.05355006  1
  Te  Te91  1  0.76365418  0.11125283  0.42116203  1
  Te  Te92  1  0.79296811  0.10909992  0.75515742  1
  Te  Te93  1  0.75481712  0.42553525  0.08626912  1
  Te  Te94  1  0.77333913  0.40079323  0.44642741  1
  Te  Te95  1  0.75503139  0.40321332  0.74839127  1
  Te  Te96  1  0.75878188  0.74561772  0.09263582  1
  Te  Te97  1  0.75844346  0.75950993  0.42338350  1
  Te  Te98  1  0.75094476  0.77236201  0.75131181  1
  Te  Te99  1  0.08994800  0.28528795  0.22186668  1
  Te  Te100  1  0.07847896  0.26159736  0.58966169  1
  Te  Te101  1  0.11070778  0.24841600  0.92731000  1
  Te  Te102  1  0.09010849  0.57504890  0.26021357  1
  Te  Te103  1  0.08440104  0.60167549  0.57085873  1
  Te  Te104  1  0.08332925  0.57983494  0.91949361  1
  Te  Te105  1  0.08332559  0.92551992  0.23943555  1
  Te  Te106  1  0.05829977  0.89088527  0.58376775  1
  Te  Te107  1  0.07060221  0.91205934  0.94115209  1
  Te  Te108  1  0.40072313  0.26824193  0.26830563  1
  Te  Te109  1  0.40772176  0.24624437  0.55596830  1
  Te  Te110  1  0.39019311  0.23199112  0.92266049  1
  Te  Te111  1  0.41304088  0.56871119  0.20499083  1
  Te  Te112  1  0.40417858  0.58749950  0.58592883  1
  Te  Te113  1  0.41670328  0.61142839  0.92683804  1
  Te  Te114  1  0.42369522  0.89824626  0.25778369  1
  Te  Te115  1  0.39809942  0.90390268  0.55409870  1
  Te  Te116  1  0.41128937  0.93958495  0.92202708  1
  Te  Te117  1  0.75093034  0.27764690  0.24507169  1
  Te  Te118  1  0.79240059  0.20376468  0.55882186  1
  Te  Te119  1  0.76451131  0.25707613  0.94272381  1
  Te  Te120  1  0.74290301  0.56660888  0.26354536  1
  Te  Te121  1  0.76031081  0.59916499  0.58473615  1
  Te  Te122  1  0.76187073  0.57622914  0.91312860  1
  Te  Te123  1  0.77157123  0.92922024  0.26774641  1
  Te  Te124  1  0.76564373  0.94450803  0.57449508  1
  Te  Te125  1  0.74666664  0.94583023  0.92467311  1
  Te  Te126  1  0.21636033  0.24988811  0.07122808  1
  Te  Te127  1  0.23861494  0.23642897  0.41846872  1
  Te  Te128  1  0.25986041  0.23408228  0.74294309  1
  Te  Te129  1  0.24720947  0.56902119  0.07269461  1
  Te  Te130  1  0.28840574  0.57470049  0.40339247  1
  Te  Te131  1  0.24538975  0.57821205  0.75132508  1
  Te  Te132  1  0.21455031  0.88819760  0.12150788  1
  Te  Te133  1  0.23951835  0.93023818  0.40497371  1
  Te  Te134  1  0.23108213  0.90267325  0.74468006  1
  Te  Te135  1  0.60360362  0.21835751  0.07403228  1
  Te  Te136  1  0.58209810  0.24850216  0.42937382  1
  Te  Te137  1  0.57516697  0.25020496  0.77817641  1
  Te  Te138  1  0.59480841  0.60482983  0.06736400  1
  Te  Te139  1  0.57126937  0.55732665  0.42189836  1
  Te  Te140  1  0.58915046  0.58302332  0.75413190  1
  Te  Te141  1  0.59671179  0.91404149  0.09292151  1
  Te  Te142  1  0.57896592  0.90631880  0.42023876  1
  Te  Te143  1  0.59450517  0.91402350  0.71491126  1
  Te  Te144  1  0.92368197  0.20785081  0.07398569  1
  Te  Te145  1  0.94635480  0.27536609  0.38663659  1
  Te  Te146  1  0.92373456  0.22063857  0.76482553  1
  Te  Te147  1  0.94440185  0.60894191  0.09177085  1
  Te  Te148  1  0.90562233  0.58952923  0.42600087  1
  Te  Te149  1  0.92854799  0.60375132  0.72681654  1
  Te  Te150  1  0.93027763  0.88420358  0.08897683  1
  Te  Te151  1  0.95986774  0.89897500  0.45369029  1
  Te  Te152  1  0.90784595  0.92769414  0.76340189  1
  Te  Te153  1  0.21991930  0.08959901  0.22007019  1
  Te  Te154  1  0.25933642  0.07963913  0.57895983  1
  Te  Te155  1  0.23985425  0.06218092  0.97518346  1
  Te  Te156  1  0.20222654  0.38607629  0.26265938  1
  Te  Te157  1  0.22774087  0.42995585  0.56929894  1
  Te  Te158  1  0.25472344  0.42317562  0.89721929  1
  Te  Te159  1  0.26090709  0.74503062  0.27451742  1
  Te  Te160  1  0.24290341  0.76634705  0.54618515  1
  Te  Te161  1  0.25853988  0.75806510  0.92384584  1
  Te  Te162  1  0.61091365  0.09096867  0.25365403  1
  Te  Te163  1  0.59211700  0.09269662  0.58015958  1
  Te  Te164  1  0.60004124  0.06436049  0.90796297  1
  Te  Te165  1  0.56898253  0.41285988  0.25878099  1
  Te  Te166  1  0.59912680  0.39235789  0.59488238  1
  Te  Te167  1  0.58053733  0.43607433  0.90645401  1
  Te  Te168  1  0.58864745  0.73784662  0.26092805  1
  Te  Te169  1  0.57255560  0.72995554  0.56087127  1
  Te  Te170  1  0.58414307  0.77346842  0.89418326  1
  Te  Te171  1  0.94781512  0.09557690  0.23494726  1
  Te  Te172  1  0.91394326  0.09452518  0.57664658  1
  Te  Te173  1  0.88640985  0.07196827  0.94795430  1
  Te  Te174  1  0.93313898  0.43803148  0.22354111  1
  Te  Te175  1  0.92618236  0.41029457  0.58136412  1
  Te  Te176  1  0.93407844  0.40672737  0.93563708  1
  Te  Te177  1  0.91315478  0.76063374  0.28139418  1
  Te  Te178  1  0.92587048  0.77956996  0.54632724  1
  Te  Te179  1  0.92892326  0.73971189  0.92199235  1
