# generated using pymatgen
data_In2Te3
_symmetry_space_group_name_H-M   'P 1'
_cell_length_a   18.82030253
_cell_length_b   18.82889583
_cell_length_c   18.81606228
_cell_angle_alpha   90.00489376
_cell_angle_beta   90.00906478
_cell_angle_gamma   89.90279301
_symmetry_Int_Tables_number   1
_chemical_formula_structural   In2Te3
_chemical_formula_sum   'In72 Te108'
_cell_volume   6667.75391071
_cell_formula_units_Z   36
loop_
 _symmetry_equiv_pos_site_id
 _symmetry_equiv_pos_as_xyz
  1  'x, y, z'
loop_
 _atom_site_type_symbol
 _atom_site_label
 _atom_site_symmetry_multiplicity
 _atom_site_fract_x
 _atom_site_fract_y
 _atom_site_fract_z
 _atom_site_occupancy
  In  In0  1  0.19480582  -0.02072326  0.80624198  1
  In  In1  1  0.02667876  0.34919385  0.00224511  1
  In  In2  1  0.64905740  0.67834993  0.00751385  1
  In  In3  1  0.15583299  0.49840276  0.30731534  1
  In  In4  1  0.68247929  0.00283080  0.01104905  1
  In  In5  1  0.87442204  0.33906934  0.84260701  1
  In  In6  1  0.82310277  0.49398620  0.66395901  1
  In  In7  1  0.86230891  0.68806754  0.19917905  1
  In  In8  1  0.49916673  0.81794292  0.34188803  1
  In  In9  1  0.14323611  0.66612493  0.49992298  1
  In  In10  1  0.18294412  -0.01974966  0.54879756  1
  In  In11  1  0.33262520  0.15137801  0.81268928  1
  In  In12  1  0.67044089  0.84264700  0.20593244  1
  In  In13  1  0.16889510  -0.00472099  0.14890299  1
  In  In14  1  0.79692512  0.67576195  0.82353093  1
  In  In15  1  0.85139159  -0.01412806  0.78763427  1
  In  In16  1  0.17091744  0.49920587  0.01305906  1
  In  In17  1  0.14664843  0.15845585  0.34816964  1
  In  In18  1  0.68054850  0.33507689  0.64379620  1
  In  In19  1  0.34082628  0.53347353  0.83732326  1
  In  In20  1  0.02453305  0.16793096  0.17739837  1
  In  In21  1  0.17068329  0.32456887  0.49091538  1
  In  In22  1  0.32429472  0.67405173  0.65120224  1
  In  In23  1  0.32873773  0.33185906  0.02019069  1
  In  In24  1  0.31446807  -0.00583778  -0.02054091  1
  In  In25  1  -0.01299041  -0.01800846  0.36388269  1
  In  In26  1  0.49058077  0.17361979  0.66995478  1
  In  In27  1  -0.01673490  0.69192060  0.64225704  1
  In  In28  1  0.67515362  0.50011952  0.49926479  1
  In  In29  1  0.49121297  0.80938720  0.00763797  1
  In  In30  1  0.66662937  0.35959715  -0.02225311  1
  In  In31  1  0.33768539  0.67746138  0.33776282  1
  In  In32  1  0.17610630  0.80849239  -0.01128753  1
  In  In33  1  0.67439076  0.80960063  0.82485477  1
  In  In34  1  0.64075157  0.16871990  0.17522203  1
  In  In35  1  0.66586504  0.67698167  0.65677901  1
  In  In36  1  0.48182093  -0.04634793  0.52679171  1
  In  In37  1  0.83394322  0.14484546  0.36884297  1
  In  In38  1  0.18139592  0.67981795  0.82198381  1
  In  In39  1  0.84472535  0.32457627  0.50845145  1
  In  In40  1  -0.01195748  0.14418167  0.78349046  1
  In  In41  1  0.49656062  0.51723008  0.33287789  1
  In  In42  1  0.31224631  0.35210751  0.33905452  1
  In  In43  1  0.51525364  0.35875321  0.81994151  1
  In  In44  1  0.67257578  0.52125019  0.16131786  1
  In  In45  1  0.84996962  0.34993272  0.20003244  1
  In  In46  1  0.66896048  0.68803308  0.34150988  1
  In  In47  1  0.34529701  0.50115740  0.50331597  1
  In  In48  1  -0.01733698  0.33569410  0.34193718  1
  In  In49  1  0.33201440  0.32781346  0.68167363  1
  In  In50  1  0.16304915  0.67282202  0.17336197  1
  In  In51  1  0.16620689  0.31850411  0.82637317  1
  In  In52  1  -0.00732714  0.48430160  0.83066580  1
  In  In53  1  0.00057788  0.65838994  0.01527291  1
  In  In54  1  0.66573656  0.32104836  0.35956277  1
  In  In55  1  0.35508261  -0.02035419  0.33675161  1
  In  In56  1  0.47411737  0.18173550  0.00059467  1
  In  In57  1  0.50852933  0.14801741  0.35539202  1
  In  In58  1  0.48279135  0.00300807  0.79925982  1
  In  In59  1  0.84217967  0.83617066  0.00234404  1
  In  In60  1  0.00581513  0.84241669  0.81674352  1
  In  In61  1  0.67714324  0.13160667  0.83876449  1
  In  In62  1  0.47480197  0.35657559  0.17606020  1
  In  In63  1  0.50725970  0.00980754  0.19183650  1
  In  In64  1  0.00517744  0.32516042  0.65842569  1
  In  In65  1  0.65623028  0.52125656  0.83306153  1
  In  In66  1  0.14068450  0.83300792  0.35750924  1
  In  In67  1  0.30862146  0.18039446  0.16606096  1
  In  In68  1  0.68812795  0.83158995  0.50198662  1
  In  In69  1  0.66944256  -0.02817090  0.65169249  1
  In  In70  1  0.86219689  0.16253928  -0.01011430  1
  In  In71  1  0.83510937  -0.03190614  0.17787530  1
  Te  Te72  1  0.08694675  0.08882251  0.07038814  1
  Te  Te73  1  0.08882801  0.06121892  0.44629000  1
  Te  Te74  1  0.08593632  0.04405285  0.71578033  1
  Te  Te75  1  0.07744149  0.43776340  0.10848036  1
  Te  Te76  1  0.08045239  0.42494474  0.41977853  1
  Te  Te77  1  0.09373419  0.41972442  0.73714151  1
  Te  Te78  1  0.07085185  0.76769288  0.09216429  1
  Te  Te79  1  0.03359676  0.73768178  0.41172726  1
  Te  Te80  1  0.09628844  0.75970014  0.72526683  1
  Te  Te81  1  0.40682394  0.07575690  0.08776275  1
  Te  Te82  1  0.41413162  0.06815463  0.44499947  1
  Te  Te83  1  0.37872203  0.05970516  0.69647146  1
  Te  Te84  1  0.41061736  0.44040392  0.07328900  1
  Te  Te85  1  0.43066720  0.40604076  0.41537656  1
  Te  Te86  1  0.41831674  0.44258236  0.73990849  1
  Te  Te87  1  0.39424191  0.71233151  0.06365199  1
  Te  Te88  1  0.41691246  0.74650924  0.44141915  1
  Te  Te89  1  0.39859226  0.77638273  0.73375123  1
  Te  Te90  1  0.76230448  0.10047408  0.09397796  1
  Te  Te91  1  0.74990068  0.08581064  0.47303059  1
  Te  Te92  1  0.75546614  0.08239038  0.71919038  1
  Te  Te93  1  0.75127482  0.40981327  0.09396716  1
  Te  Te94  1  0.77412231  0.42056862  0.40915897  1
  Te  Te95  1  0.74572005  0.41391086  0.77025210  1
  Te  Te96  1  0.75327843  0.75723650  0.09763057  1
  Te  Te97  1  0.78212793  0.75101609  0.41644245  1
  Te  Te98  1  0.77357641  0.77766504  0.71379171  1
  Te  Te99  1  0.09829181  0.27206650  0.25950789  1
  Te  Te100  1  0.08588701  0.23386177  0.57447065  1
  Te  Te101  1  0.04857447  0.24836224  0.89099634  1
  Te  Te102  1  0.06657402  0.61159080  0.26831477  1
  Te  Te103  1  0.06164013  0.57909234  0.58759503  1
  Te  Te104  1  0.08618242  0.58771237  0.90664892  1
  Te  Te105  1  0.07771034  0.92653622  0.25378443  1
  Te  Te106  1  0.06041375  0.90699425  0.59516186  1
  Te  Te107  1  0.09954401  0.91623956  0.91050771  1
  Te  Te108  1  0.42876550  0.23016254  0.24716369  1
  Te  Te109  1  0.41919044  0.26503873  0.58044403  1
  Te  Te110  1  0.40658760  0.26351088  0.88955368  1
  Te  Te111  1  0.39360467  0.57527259  0.24611312  1
  Te  Te112  1  0.42822917  0.59977172  0.57371994  1
  Te  Te113  1  0.39753476  0.63843789  0.92470966  1
  Te  Te114  1  0.42032182  0.89175024  0.23065914  1
  Te  Te115  1  0.37996699  0.87815380  0.61059059  1
  Te  Te116  1  0.42725420  0.91750358  0.91361244  1
  Te  Te117  1  0.75803512  0.24264853  0.26325912  1
  Te  Te118  1  0.73917782  0.22813507  0.55755799  1
  Te  Te119  1  0.75204894  0.24253071  0.91640792  1
  Te  Te120  1  0.75899674  0.58229088  0.27201910  1
  Te  Te121  1  0.76717632  0.59958211  0.57086561  1
  Te  Te122  1  0.74905090  0.58577951  0.93628207  1
  Te  Te123  1  0.77053630  0.90699366  0.29394673  1
  Te  Te124  1  0.78006740  0.94575316  0.54854774  1
  Te  Te125  1  0.75199838  0.92299430  0.90044255  1
  Te  Te126  1  0.22011921  0.24620739  0.06805850  1
  Te  Te127  1  0.26587827  0.22992807  0.41539459  1
  Te  Te128  1  0.22579883  0.22190392  0.72418761  1
  Te  Te129  1  0.25273635  0.61003830  0.07001811  1
  Te  Te130  1  0.24232941  0.57580862  0.41491379  1
  Te  Te131  1  0.23861171  0.57230908  0.73123518  1
  Te  Te132  1  0.26284666  0.89506959  0.08281319  1
  Te  Te133  1  0.25254300  0.91228124  0.42683798  1
  Te  Te134  1  0.28141450  0.88189775  0.73335466  1
  Te  Te135  1  0.57947152  0.26705671  0.07200000  1
  Te  Te136  1  0.57173493  0.24754241  0.44474103  1
  Te  Te137  1  0.59431803  0.24167496  0.76115484  1
  Te  Te138  1  0.56416136  0.59023157  0.09059307  1
  Te  Te139  1  0.58123480  0.59922133  0.42871622  1
  Te  Te140  1  0.57345678  0.59300645  0.73554122  1
  Te  Te141  1  0.58782237  0.91105899  0.08677581  1
  Te  Te142  1  0.58385092  0.91547294  0.41936466  1
  Te  Te143  1  0.57362268  0.89543591  0.74191942  1
  Te  Te144  1  0.92371667  0.26125594  0.09047936  1
  Te  Te145  1  0.94072876  0.22536732  0.44052968  1
  Te  Te146  1  0.88494520  0.25409834  0.72032174  1
  Te  Te147  1  0.90275720  0.58771950  0.09848102  1
  Te  Te148  1  0.87464074  0.54901422  0.37418764  1
  Te  Te149  1  0.91102078  0.59040870  0.75451204  1
  Te  Te150  1  0.93256142  0.92335659  0.07848858  1
  Te  Te151  1  0.93251986  0.90891483  0.48186115  1
  Te  Te152  1  0.93635422  0.90333390  0.69575546  1
  Te  Te153  1  0.25220133  0.07112339  0.26350284  1
  Te  Te154  1  0.26028583  0.09400616  0.60200548  1
  Te  Te155  1  0.22857371  0.09613628  0.90827212  1
  Te  Te156  1  0.26027661  0.42942474  0.22606857  1
  Te  Te157  1  0.24890974  0.41552827  0.58500635  1
  Te  Te158  1  0.25039015  0.42004565  0.90314631  1
  Te  Te159  1  0.24279130  0.76925547  0.26115177  1
  Te  Te160  1  0.24035396  0.75908945  0.56024496  1
  Te  Te161  1  0.28434758  0.75889201  0.89627395  1
  Te  Te162  1  0.61730829  0.06359378  0.28281139  1
  Te  Te163  1  0.56869817  0.06713916  0.58966395  1
  Te  Te164  1  0.56583678  0.07673300  0.92901153  1
  Te  Te165  1  0.59421448  0.41179173  0.25480795  1
  Te  Te166  1  0.58425565  0.43255235  0.59498649  1
  Te  Te167  1  0.55676909  0.45404023  0.93086850  1
  Te  Te168  1  0.56932374  0.73262893  0.23444530  1
  Te  Te169  1  0.57890849  0.76119524  0.57172096  1
  Te  Te170  1  0.56357275  0.73177618  0.89246997  1
  Te  Te171  1  0.92328119  0.08429284  0.25424188  1
  Te  Te172  1  0.96819852  0.10731332  0.63747654  1
  Te  Te173  1  0.92451389  0.05809819  0.90082340  1
  Te  Te174  1  0.93386880  0.45946119  0.26376305  1
  Te  Te175  1  0.92953290  0.43311270  0.57567654  1
  Te  Te176  1  0.90898627  0.43884007  0.94962568  1
  Te  Te177  1  0.95488706  0.76821499  0.27950232  1
  Te  Te178  1  0.91037376  0.75699471  0.52712413  1
  Te  Te179  1  0.91893264  0.74724178  0.90339921  1
