# generated using pymatgen
data_In2Te3
_symmetry_space_group_name_H-M   'P 1'
_cell_length_a   19.02159279
_cell_length_b   19.05849356
_cell_length_c   19.02608423
_cell_angle_alpha   89.92346150
_cell_angle_beta   89.75313519
_cell_angle_gamma   90.29485580
_symmetry_Int_Tables_number   1
_chemical_formula_structural   In2Te3
_chemical_formula_sum   'In72 Te108'
_cell_volume   6897.22958498
_cell_formula_units_Z   36
loop_
 _symmetry_equiv_pos_site_id
 _symmetry_equiv_pos_as_xyz
  1  'x, y, z'
loop_
 _atom_site_type_symbol
 _atom_site_label
 _atom_site_symmetry_multiplicity
 _atom_site_fract_x
 _atom_site_fract_y
 _atom_site_fract_z
 _atom_site_occupancy
  In  In0  1  0.01127115  0.84401788  0.85412440  1
  In  In1  1  0.48585975  0.37277031  0.01867362  1
  In  In2  1  0.02649228  0.32938029  0.68075118  1
  In  In3  1  0.15310955  -0.01836497  0.16269519  1
  In  In4  1  0.82172541  0.67095974  0.81886844  1
  In  In5  1  -0.01385666  0.36159618  0.31941438  1
  In  In6  1  -0.00959898  0.86098507  0.48023663  1
  In  In7  1  0.83418563  0.49254265  0.66536215  1
  In  In8  1  0.83503173  0.16305126  0.30908952  1
  In  In9  1  0.00862409  0.17288901  0.17975183  1
  In  In10  1  0.65441191  0.17702263  0.82512870  1
  In  In11  1  0.48377066  0.83012357  -0.01665754  1
  In  In12  1  0.86409730  0.16257729  0.64406503  1
  In  In13  1  0.34621561  0.49751294  0.49916001  1
  In  In14  1  0.67316369  0.49840920  0.47805057  1
  In  In15  1  0.00566877  0.66033184  0.32083692  1
  In  In16  1  0.17730657  0.14444446  -0.00430704  1
  In  In17  1  0.65386875  0.81303463  0.14485768  1
  In  In18  1  0.34846180  0.82892307  0.82015838  1
  In  In19  1  0.49540212  0.46481215  0.34097713  1
  In  In20  1  0.16361688  -0.00109052  0.82963572  1
  In  In21  1  0.49517502  0.00902220  0.47539873  1
  In  In22  1  0.34716874  0.84563514  0.50844589  1
  In  In23  1  0.66303241  0.50527194  0.19109505  1
  In  In24  1  0.17315344  0.32765619  0.49600570  1
  In  In25  1  0.18265745  0.49618664  0.00606899  1
  In  In26  1  0.17974464  0.35235895  0.19085177  1
  In  In27  1  0.64444579  -0.00962754  0.64895940  1
  In  In28  1  -0.01334365  0.54609560  0.92388996  1
  In  In29  1  0.00669678  0.52065762  0.49778125  1
  In  In30  1  0.82095008  0.33805680  0.16677508  1
  In  In31  1  -0.00308642  0.68224304  0.69309062  1
  In  In32  1  0.47579838  0.31965346  0.83078509  1
  In  In33  1  0.16854294  0.82489415  0.34135763  1
  In  In34  1  0.81366651  0.16900022  -0.02624416  1
  In  In35  1  0.85085227  -0.00302175  0.16980430  1
  In  In36  1  0.82167845  0.35142938  0.48119398  1
  In  In37  1  0.31789150  0.68180273  0.00211157  1
  In  In38  1  -0.01626274  0.00047974  0.63714362  1
  In  In39  1  0.15419087  0.84082940  0.67529668  1
  In  In40  1  0.63736560  0.17542139  0.15731846  1
  In  In41  1  0.51302896  0.19382738  0.34055525  1
  In  In42  1  0.51657716  0.67234682  0.52226282  1
  In  In43  1  0.34933943  0.50252676  0.84526010  1
  In  In44  1  0.68412050  -0.00622192  0.33825704  1
  In  In45  1  0.83711134  0.78802202  0.33917875  1
  In  In46  1  0.32590299  0.00198557  0.31077408  1
  In  In47  1  0.47538385  0.15641725  0.63673473  1
  In  In48  1  0.81752699  -0.01194359  0.81615458  1
  In  In49  1  -0.00868360  0.15336874  0.83213110  1
  In  In50  1  0.18789997  0.51583123  0.71300866  1
  In  In51  1  0.51095430  0.50817715  0.66415039  1
  In  In52  1  0.47379385  0.02087118  0.15218483  1
  In  In53  1  0.18831282  0.66377100  0.51187230  1
  In  In54  1  0.67104919  0.65817178  0.00728487  1
  In  In55  1  0.50045104  0.02283837  0.80886213  1
  In  In56  1  0.84056756  0.51115502  0.03226519  1
  In  In57  1  0.16283871  0.66459943  0.16900046  1
  In  In58  1  0.31917548  0.17779960  0.17752558  1
  In  In59  1  0.67189602  0.34961255  0.65479878  1
  In  In60  1  0.33104531  0.30846678  0.63381988  1
  In  In61  1  0.49033390  0.64376434  0.19271704  1
  In  In62  1  0.49690686  0.66243069  0.82653676  1
  In  In63  1  0.82760226  0.82150367  0.01928754  1
  In  In64  1  0.50746147  0.81970506  0.34061450  1
  In  In65  1  0.20667075  0.31851522  0.82491111  1
  In  In66  1  0.16707304  0.13787847  0.48880974  1
  In  In67  1  0.83462879  0.65911128  0.50140257  1
  In  In68  1  0.68466986  -0.00647570  -0.01281685  1
  In  In69  1  0.30016124  0.82918410  0.16058358  1
  In  In70  1  0.79916992  0.82988562  0.66347844  1
  In  In71  1  0.01731019  0.32987560  0.01575345  1
  Te  Te72  1  0.06966866  0.07889767  0.07921201  1
  Te  Te73  1  0.05152339  0.06800378  0.43350875  1
  Te  Te74  1  0.07264661  0.07683769  0.73272369  1
  Te  Te75  1  0.08501201  0.43158348  0.10322830  1
  Te  Te76  1  0.08612641  0.42593772  0.41447328  1
  Te  Te77  1  0.09823032  0.41512871  0.78383470  1
  Te  Te78  1  0.08405400  0.69922250  0.05121687  1
  Te  Te79  1  0.07405366  0.74033966  0.44000505  1
  Te  Te80  1  0.10135758  0.74552839  0.77993765  1
  Te  Te81  1  0.39235494  0.10660955  0.06983428  1
  Te  Te82  1  0.40384376  0.09804718  0.39594503  1
  Te  Te83  1  0.40041563  0.11596571  0.75662718  1
  Te  Te84  1  0.39777542  0.38607220  0.14354948  1
  Te  Te85  1  0.39561986  0.38378492  0.41924285  1
  Te  Te86  1  0.40107976  0.41034965  0.72910573  1
  Te  Te87  1  0.42605069  0.75164604  0.10042728  1
  Te  Te88  1  0.41422462  0.73855700  0.42658457  1
  Te  Te89  1  0.45681216  0.76959640  0.72959889  1
  Te  Te90  1  0.74533118  0.08645278  0.09417796  1
  Te  Te91  1  0.74125000  0.10786035  0.40712792  1
  Te  Te92  1  0.75592218  0.10081606  0.73902564  1
  Te  Te93  1  0.73031351  0.41793547  0.07801838  1
  Te  Te94  1  0.74905232  0.42418902  0.37237032  1
  Te  Te95  1  0.75455951  0.41172990  0.75727468  1
  Te  Te96  1  0.76536796  0.71625522  0.11031337  1
  Te  Te97  1  0.73579507  0.74010235  0.43260072  1
  Te  Te98  1  0.71662794  0.72920382  0.73249811  1
  Te  Te99  1  0.08867045  0.25881833  0.27147674  1
  Te  Te100  1  0.07242262  0.24221466  0.57079371  1
  Te  Te101  1  0.08658072  0.24606040  0.90717175  1
  Te  Te102  1  0.10912029  0.57204658  0.27003407  1
  Te  Te103  1  0.08610585  0.58671808  0.61028621  1
  Te  Te104  1  0.12405995  0.60467869  0.92233431  1
  Te  Te105  1  0.07727208  0.88191188  0.24210489  1
  Te  Te106  1  0.09695850  0.92750596  0.56648617  1
  Te  Te107  1  0.09612716  0.92581376  0.93836713  1
  Te  Te108  1  0.43764691  0.25952011  0.22915110  1
  Te  Te109  1  0.43495031  0.26207719  0.53474545  1
  Te  Te110  1  0.42992106  0.24959056  0.95346507  1
  Te  Te111  1  0.40019894  0.55632206  0.26949939  1
  Te  Te112  1  0.40787818  0.59452143  0.59781999  1
  Te  Te113  1  0.42308742  0.59344982  0.94068802  1
  Te  Te114  1  0.42403402  0.90474969  0.24666509  1
  Te  Te115  1  0.42898111  0.93824546  0.58517430  1
  Te  Te116  1  0.41524280  0.93699907  0.90770018  1
  Te  Te117  1  0.72652099  0.25343483  0.25060784  1
  Te  Te118  1  0.75987223  0.25301948  0.57740178  1
  Te  Te119  1  0.73319296  0.26868287  0.90835326  1
  Te  Te120  1  0.76447450  0.55097154  0.28489748  1
  Te  Te121  1  0.73825789  0.57874622  0.58866695  1
  Te  Te122  1  0.75864860  0.57438355  0.91864333  1
  Te  Te123  1  0.74188178  0.90673659  0.22795522  1
  Te  Te124  1  0.75990359  0.93819829  0.57634691  1
  Te  Te125  1  0.74817231  0.88633718  0.90449920  1
  Te  Te126  1  0.22957262  0.25499327  0.08227109  1
  Te  Te127  1  0.24041760  0.23588071  0.40555839  1
  Te  Te128  1  0.22783252  0.22789705  0.70639948  1
  Te  Te129  1  0.26926962  0.57696304  0.09885151  1
  Te  Te130  1  0.24424273  0.56740227  0.42008866  1
  Te  Te131  1  0.27938498  0.60992695  0.77481651  1
  Te  Te132  1  0.26210350  0.93733396  0.07350111  1
  Te  Te133  1  0.25211804  0.92384447  0.41784665  1
  Te  Te134  1  0.26187149  0.92479511  0.73841040  1
  Te  Te135  1  0.57758991  0.25276749  0.05082543  1
  Te  Te136  1  0.56529367  0.27586165  0.44945848  1
  Te  Te137  1  0.56722731  0.25326510  0.72280956  1
  Te  Te138  1  0.57395675  0.57431301  0.08744156  1
  Te  Te139  1  0.56879506  0.58266968  0.41271753  1
  Te  Te140  1  0.58602991  0.55182834  0.78262166  1
  Te  Te141  1  0.57598047  0.92322549  0.07625075  1
  Te  Te142  1  0.59653063  0.90523575  0.42616672  1
  Te  Te143  1  0.59540439  0.92149839  0.76627074  1
  Te  Te144  1  0.90919965  0.23607992  0.08200614  1
  Te  Te145  1  0.91085576  0.25996320  0.40159813  1
  Te  Te146  1  0.91450429  0.25630532  0.75368133  1
  Te  Te147  1  0.95816918  0.60223330  0.06047514  1
  Te  Te148  1  0.90375779  0.57029182  0.40044854  1
  Te  Te149  1  0.92856629  0.56829291  0.76548762  1
  Te  Te150  1  0.92266527  0.91842279  0.07101614  1
  Te  Te151  1  0.87621847  0.91137036  0.40775693  1
  Te  Te152  1  0.92268647  0.90431295  0.74417770  1
  Te  Te153  1  0.21823054  0.08587645  0.25029914  1
  Te  Te154  1  0.27091505  0.13322257  0.59278693  1
  Te  Te155  1  0.25690229  0.10060031  0.88212651  1
  Te  Te156  1  0.29603840  0.41809320  0.25292251  1
  Te  Te157  1  0.23505729  0.42823484  0.59822746  1
  Te  Te158  1  0.27503523  0.40184591  0.93072888  1
  Te  Te159  1  0.26347890  0.73416423  0.26851242  1
  Te  Te160  1  0.25954544  0.75944996  0.60165109  1
  Te  Te161  1  0.25825163  0.79437144  0.93219157  1
  Te  Te162  1  0.57095502  0.06922414  0.25741146  1
  Te  Te163  1  0.59027564  0.09644193  0.55862881  1
  Te  Te164  1  0.58556340  0.08490379  0.92373977  1
  Te  Te165  1  0.57755083  0.39651990  0.24105145  1
  Te  Te166  1  0.57340818  0.41651433  0.56027817  1
  Te  Te167  1  0.55505079  0.42651638  0.89620933  1
  Te  Te168  1  0.59707676  0.73025569  0.25808932  1
  Te  Te169  1  0.57430795  0.75053279  0.63135483  1
  Te  Te170  1  0.59009531  0.74759513  0.91718438  1
  Te  Te171  1  0.94456866  0.06618623  0.26686079  1
  Te  Te172  1  0.93131276  0.08933973  0.52905999  1
  Te  Te173  1  0.90352901  0.06234287  0.91648538  1
  Te  Te174  1  0.91813119  0.43688795  0.21439518  1
  Te  Te175  1  0.93161075  0.41040111  0.58096383  1
  Te  Te176  1  0.91811713  0.41037149  0.93987710  1
  Te  Te177  1  0.94107318  0.76216262  0.23824471  1
  Te  Te178  1  0.91801934  0.75451975  0.58813968  1
  Te  Te179  1  0.91097636  0.74773468  0.91446537  1
