# generated using pymatgen
data_In2Te3
_symmetry_space_group_name_H-M   'P 1'
_cell_length_a   18.80675328
_cell_length_b   18.79838752
_cell_length_c   18.80527251
_cell_angle_alpha   89.88653410
_cell_angle_beta   89.98226616
_cell_angle_gamma   89.90552132
_symmetry_Int_Tables_number   1
_chemical_formula_structural   In2Te3
_chemical_formula_sum   'In72 Te108'
_cell_volume   6648.33039774
_cell_formula_units_Z   36
loop_
 _symmetry_equiv_pos_site_id
 _symmetry_equiv_pos_as_xyz
  1  'x, y, z'
loop_
 _atom_site_type_symbol
 _atom_site_label
 _atom_site_symmetry_multiplicity
 _atom_site_fract_x
 _atom_site_fract_y
 _atom_site_fract_z
 _atom_site_occupancy
  In  In0  1  0.64368782  0.82512696  0.51791834  1
  In  In1  1  0.53652221  0.35284171  0.17558103  1
  In  In2  1  0.84344233  0.66580743  0.49060757  1
  In  In3  1  0.84405768  0.51936730  -0.00009729  1
  In  In4  1  0.15694782  0.13857331  0.33290457  1
  In  In5  1  0.67786594  -0.00471013  0.32947179  1
  In  In6  1  0.65875154  0.32772820  0.31826480  1
  In  In7  1  -0.00334973  0.34451524  0.33791839  1
  In  In8  1  0.67968501  0.17352381  0.83788918  1
  In  In9  1  0.00784718  0.14999000  0.48837043  1
  In  In10  1  0.18107624  0.52664476  0.65829395  1
  In  In11  1  0.14503494  0.67525379  0.17172533  1
  In  In12  1  0.16158741  0.35155204  0.84288205  1
  In  In13  1  0.32856555  0.50186348  0.50451079  1
  In  In14  1  0.01309253  0.11722218  0.15006822  1
  In  In15  1  0.84184234  0.51242303  0.33505803  1
  In  In16  1  0.01207898  0.51555743  0.84183527  1
  In  In17  1  0.46431733  -0.02593492  0.20960952  1
  In  In18  1  0.86329233  0.80757615  0.30817065  1
  In  In19  1  0.49470372  0.35331389  0.83025408  1
  In  In20  1  0.01382069  -0.03303665  0.29910780  1
  In  In21  1  0.70344927  0.34491166  0.65566712  1
  In  In22  1  0.35443107  -0.01632084  0.65311932  1
  In  In23  1  0.83725708  -0.01216157  0.83589450  1
  In  In24  1  0.47746039  -0.01512595  0.50113652  1
  In  In25  1  0.68016957  0.83734238  0.15955427  1
  In  In26  1  0.65040437  0.66293839  0.34406430  1
  In  In27  1  0.67389693  0.00053069  0.00172831  1
  In  In28  1  0.18984424  0.70817701  0.49320217  1
  In  In29  1  0.84933840  0.84263598  0.00908380  1
  In  In30  1  0.48625612  0.83497975  -0.00771646  1
  In  In31  1  0.69160630  0.15627277  0.15588594  1
  In  In32  1  0.15118255  0.31928131  0.48682731  1
  In  In33  1  0.79712541  0.69519395  0.81647261  1
  In  In34  1  0.34103403  0.68169570  0.00951280  1
  In  In35  1  -0.00068543  0.31619597  0.01946034  1
  In  In36  1  0.00361815  0.67103672  0.66390550  1
  In  In37  1  0.53021908  0.67896852  0.82984495  1
  In  In38  1  0.00655842  0.14284933  0.85245598  1
  In  In39  1  0.67192539  0.50744687  0.15687231  1
  In  In40  1  0.48693338  0.52925005  0.66303344  1
  In  In41  1  0.48283361  0.51361977  0.02274833  1
  In  In42  1  0.36763850  0.32274176  0.66312671  1
  In  In43  1  0.50947392  -0.04278850  0.81970688  1
  In  In44  1  0.81158377  0.32581935  0.84122857  1
  In  In45  1  0.48804140  0.32160604  0.50379458  1
  In  In46  1  0.31702653  0.14146272  0.84091907  1
  In  In47  1  0.66284081  0.51743235  0.50037882  1
  In  In48  1  0.52097573  0.15914362  0.64699542  1
  In  In49  1  0.32598248  0.69742203  0.33357989  1
  In  In50  1  0.82402483  0.49334598  0.64853948  1
  In  In51  1  0.49505659  0.14259122  0.35242061  1
  In  In52  1  0.81539995  -0.01255249  0.49171336  1
  In  In53  1  0.48850144  0.69097698  0.16253575  1
  In  In54  1  0.32783310  0.51474529  0.17494265  1
  In  In55  1  0.15556550  0.66251045  0.82683802  1
  In  In56  1  0.02918562  0.84428097  0.52568408  1
  In  In57  1  0.01157644  0.51093127  0.16770969  1
  In  In58  1  0.48569765  0.15287219  0.01689567  1
  In  In59  1  -0.00818124  0.82679885  0.82257269  1
  In  In60  1  0.36030439  0.83040608  0.82100620  1
  In  In61  1  0.68598255  0.33750148  -0.02655864  1
  In  In62  1  0.83112476  0.14064357  0.67953599  1
  In  In63  1  0.16062738  0.83603438  0.01811157  1
  In  In64  1  0.30107970  0.33845678  -0.01320161  1
  In  In65  1  0.17204721  -0.01041716  0.84508142  1
  In  In66  1  0.16219505  0.34011005  0.15981578  1
  In  In67  1  0.17423991  0.14003394  0.67930895  1
  In  In68  1  0.32624638  0.14432383  0.19935746  1
  In  In69  1  -0.03533676  0.34621167  0.64851428  1
  In  In70  1  0.84128084  0.32462648  0.51823478  1
  In  In71  1  0.32680131  0.33050971  0.32719871  1
  Te  Te72  1  0.12768833  0.05679730  0.07996392  1
  Te  Te73  1  0.08711747  0.03648440  0.42416794  1
  Te  Te74  1  0.06925079  0.05306754  0.74627651  1
  Te  Te75  1  0.09024984  0.43108963  0.06157655  1
  Te  Te76  1  0.08482401  0.43043685  0.41819387  1
  Te  Te77  1  0.07985660  0.42322355  0.73273708  1
  Te  Te78  1  0.04785586  0.76181695  0.08814288  1
  Te  Te79  1  0.08927936  0.77821238  0.40831751  1
  Te  Te80  1  0.09942147  0.76770776  0.73097624  1
  Te  Te81  1  0.39828405  0.05659623  0.09455168  1
  Te  Te82  1  0.38151395  0.06003466  0.40816209  1
  Te  Te83  1  0.42572737  0.08537169  0.75014123  1
  Te  Te84  1  0.40482922  0.40308447  0.09526268  1
  Te  Te85  1  0.41885972  0.41988634  0.41030874  1
  Te  Te86  1  0.39597921  0.44099462  0.75392026  1
  Te  Te87  1  0.38764789  0.78987289  0.10441394  1
  Te  Te88  1  0.41649003  0.77462822  0.42324352  1
  Te  Te89  1  0.43830826  0.74328407  0.72669647  1
  Te  Te90  1  0.78095360  0.04913602  0.09604295  1
  Te  Te91  1  0.75218368  0.09330468  0.40912574  1
  Te  Te92  1  0.72396148  0.05879192  0.74958909  1
  Te  Te93  1  0.76436580  0.41283513  0.08019653  1
  Te  Te94  1  0.74982244  0.41592916  0.42446000  1
  Te  Te95  1  0.74050290  0.43968041  0.76776265  1
  Te  Te96  1  0.76173899  0.74546581  0.07933004  1
  Te  Te97  1  0.74857129  0.76139660  0.41247674  1
  Te  Te98  1  0.72497201  0.79355302  0.72935136  1
  Te  Te99  1  0.08299187  0.24828710  0.25223841  1
  Te  Te100  1  0.07457915  0.23688900  0.59828368  1
  Te  Te101  1  0.09654038  0.24119648  0.92750344  1
  Te  Te102  1  0.07592902  0.59184872  0.27461553  1
  Te  Te103  1  0.09029941  0.59914624  0.56291297  1
  Te  Te104  1  0.07115806  0.61126085  0.93605416  1
  Te  Te105  1  0.10200130  0.88176110  0.21424187  1
  Te  Te106  1  0.12850122  0.94504413  0.56989859  1
  Te  Te107  1  0.06695575  0.91303705  0.92428148  1
  Te  Te108  1  0.43513255  0.25053060  0.25150671  1
  Te  Te109  1  0.40136618  0.21139040  0.56557475  1
  Te  Te110  1  0.41400579  0.25159849  0.91485247  1
  Te  Te111  1  0.42203583  0.59481258  0.26091067  1
  Te  Te112  1  0.41578950  0.60847608  0.55940077  1
  Te  Te113  1  0.42059136  0.59820158  0.91291101  1
  Te  Te114  1  0.39795336  0.87397499  0.30678026  1
  Te  Te115  1  0.38819343  0.86545935  0.55767343  1
  Te  Te116  1  0.39762239  0.93903914  0.92275265  1
  Te  Te117  1  0.75931615  0.25882707  0.23642157  1
  Te  Te118  1  0.74536393  0.22075102  0.58032751  1
  Te  Te119  1  0.77961258  0.21667112  0.94413366  1
  Te  Te120  1  0.75162459  0.60075085  0.24824742  1
  Te  Te121  1  0.74168357  0.60941236  0.59242577  1
  Te  Te122  1  0.75084830  0.58695915  0.90756132  1
  Te  Te123  1  0.77795209  0.91868083  0.24410438  1
  Te  Te124  1  0.75097637  0.89827535  0.59466904  1
  Te  Te125  1  0.73787515  0.89834119  0.91093648  1
  Te  Te126  1  0.25789700  0.24007789  0.09671295  1
  Te  Te127  1  0.25176793  0.23022574  0.41464306  1
  Te  Te128  1  0.25409898  0.25540433  0.75419780  1
  Te  Te129  1  0.23998527  0.59187049  0.07898702  1
  Te  Te130  1  0.24630888  0.58954531  0.41054761  1
  Te  Te131  1  0.26427396  0.61499196  0.73927369  1
  Te  Te132  1  0.21818357  0.93286241  0.11702999  1
  Te  Te133  1  0.28463542  0.93631645  0.39006365  1
  Te  Te134  1  0.25369318  0.91003193  0.74360842  1
  Te  Te135  1  0.59176798  0.25203332  0.06690449  1
  Te  Te136  1  0.58911507  0.23916978  0.42335041  1
  Te  Te137  1  0.58872144  0.26327033  0.74877089  1
  Te  Te138  1  0.58762057  0.60899811  0.07774019  1
  Te  Te139  1  0.55812276  0.60970808  0.44834049  1
  Te  Te140  1  0.59820756  0.57562795  0.74707189  1
  Te  Te141  1  0.57060327  0.92774529  0.09019574  1
  Te  Te142  1  0.57920357  0.91250764  0.40847478  1
  Te  Te143  1  0.58764975  0.87219351  0.72382064  1
  Te  Te144  1  0.92109944  0.22562984  0.10330311  1
  Te  Te145  1  0.91180952  0.24038734  0.41144024  1
  Te  Te146  1  0.91646097  0.24098254  0.75910187  1
  Te  Te147  1  0.90688325  0.60286825  0.10768805  1
  Te  Te148  1  0.93637882  0.61684828  0.38433942  1
  Te  Te149  1  0.91175610  0.58111193  0.74602740  1
  Te  Te150  1  0.91099684  0.95842991  0.07853512  1
  Te  Te151  1  0.92040986  0.90264666  0.41506777  1
  Te  Te152  1  0.91317755  0.91398227  0.73296692  1
  Te  Te153  1  0.24782843  0.03350537  0.26911300  1
  Te  Te154  1  0.24246715  0.05548318  0.57669779  1
  Te  Te155  1  0.22975626  0.08411045  0.94672255  1
  Te  Te156  1  0.23280406  0.43074120  0.26057265  1
  Te  Te157  1  0.24949981  0.39475838  0.58488122  1
  Te  Te158  1  0.24772475  0.45097500  0.90917473  1
  Te  Te159  1  0.21999330  0.77458998  0.25726876  1
  Te  Te160  1  0.26335366  0.78310531  0.59525262  1
  Te  Te161  1  0.25005025  0.76480498  0.91587042  1
  Te  Te162  1  0.58041017  0.08543358  0.23596875  1
  Te  Te163  1  0.58879146  0.05244725  0.57286576  1
  Te  Te164  1  0.57298218  0.08281885  0.91162770  1
  Te  Te165  1  0.58609638  0.45589278  0.27480284  1
  Te  Te166  1  0.57812171  0.41197512  0.58862838  1
  Te  Te167  1  0.57772943  0.43546702  0.92755145  1
  Te  Te168  1  0.58178120  0.76728520  0.25496720  1
  Te  Te169  1  0.56283034  0.75313972  0.62183177  1
  Te  Te170  1  0.59853719  0.76521189  0.92849539  1
  Te  Te171  1  0.93009589  0.08400899  0.26748186  1
  Te  Te172  1  0.91840099  0.06628204  0.58000010  1
  Te  Te173  1  0.92112146  0.05803734  0.94038932  1
  Te  Te174  1  0.90979537  0.41728306  0.23624727  1
  Te  Te175  1  0.92796361  0.45134877  0.54443718  1
  Te  Te176  1  0.92533729  0.40697033  0.91027648  1
  Te  Te177  1  0.93439184  0.74144845  0.19642060  1
  Te  Te178  1  0.90967075  0.76247477  0.58761302  1
  Te  Te179  1  0.90993759  0.73559668  0.91094470  1
