# generated using pymatgen
data_In2Te3
_symmetry_space_group_name_H-M   'P 1'
_cell_length_a   19.02228053
_cell_length_b   19.01019175
_cell_length_c   19.02435081
_cell_angle_alpha   89.86943530
_cell_angle_beta   89.77381935
_cell_angle_gamma   90.01890446
_symmetry_Int_Tables_number   1
_chemical_formula_structural   In2Te3
_chemical_formula_sum   'In72 Te108'
_cell_volume   6879.46061497
_cell_formula_units_Z   36
loop_
 _symmetry_equiv_pos_site_id
 _symmetry_equiv_pos_as_xyz
  1  'x, y, z'
loop_
 _atom_site_type_symbol
 _atom_site_label
 _atom_site_symmetry_multiplicity
 _atom_site_fract_x
 _atom_site_fract_y
 _atom_site_fract_z
 _atom_site_occupancy
  In  In0  1  -0.01226726  0.01386762  -0.01214671  1
  In  In1  1  0.68123114  0.82067885  0.51395486  1
  In  In2  1  0.66461684  0.18335836  0.19084212  1
  In  In3  1  0.04810369  0.84833406  0.17504013  1
  In  In4  1  0.15513392  0.32521186  0.52075304  1
  In  In5  1  0.03508213  0.52962931  0.18366295  1
  In  In6  1  0.51115434  0.21006919  0.64350420  1
  In  In7  1  0.16904083  0.47144981  -0.02456896  1
  In  In8  1  0.26131227  0.87429656  0.26893010  1
  In  In9  1  0.18401152  -0.01005789  0.48649461  1
  In  In10  1  0.85472474  0.31622970  0.49705342  1
  In  In11  1  -0.00049504  0.34242746  0.34570741  1
  In  In12  1  0.67695564  0.85145847  0.83585976  1
  In  In13  1  0.02498027  0.04769312  0.68612134  1
  In  In14  1  0.83304497  0.65690248  0.49699708  1
  In  In15  1  0.46452834  0.47544456  0.69115364  1
  In  In16  1  0.02621042  0.16565544  0.17309189  1
  In  In17  1  0.85054648  0.67972214  0.18466970  1
  In  In18  1  0.33781062  0.83667236  0.82574224  1
  In  In19  1  0.28503652  0.17063146  0.19832031  1
  In  In20  1  0.64231023  0.46106522  0.09642716  1
  In  In21  1  0.02987479  0.68964354  0.65272547  1
  In  In22  1  0.32197153  0.18858222  0.81751037  1
  In  In23  1  0.19657195  0.65276930  0.50639202  1
  In  In24  1  0.67598628  0.33478606  0.66763489  1
  In  In25  1  0.83649714  0.85732572  0.67269458  1
  In  In26  1  0.88449797  0.86243907  0.31900314  1
  In  In27  1  0.28427470  0.49662423  0.17345248  1
  In  In28  1  0.33118106  0.18215791  0.51408432  1
  In  In29  1  0.16845874  0.84554042  0.00160561  1
  In  In30  1  0.50363889  0.65504572  0.51237250  1
  In  In31  1  0.82560286  0.18175952  -0.00767190  1
  In  In32  1  0.19286635  0.83650872  0.65024535  1
  In  In33  1  0.31753961  0.32134136  -0.00751731  1
  In  In34  1  -0.00627490  0.31443007  0.00340416  1
  In  In35  1  0.66262070  0.49852482  0.50560797  1
  In  In36  1  0.49583406  0.00074469  0.47751010  1
  In  In37  1  0.64583949  0.00827757  0.32489925  1
  In  In38  1  0.83308523  0.65588870  0.84668495  1
  In  In39  1  0.29560971  0.35673046  0.35448928  1
  In  In40  1  0.66232901  0.65487471  -0.00878570  1
  In  In41  1  0.32356258  0.01195040  0.64331463  1
  In  In42  1  0.01155464  0.84104766  0.81881089  1
  In  In43  1  0.65812756  -0.02235100  -0.00601365  1
  In  In44  1  0.67531090  0.66196801  0.36202136  1
  In  In45  1  0.67857505  0.19982787  0.83246087  1
  In  In46  1  0.17229354  0.14784033  -0.01723695  1
  In  In47  1  0.83324175  0.49787016  0.00123097  1
  In  In48  1  0.48203191  0.81910666  0.30264359  1
  In  In49  1  0.49648246  0.15623744  0.02214214  1
  In  In50  1  0.81691003  0.50735179  0.68311407  1
  In  In51  1  0.45938164  0.21382241  0.35079356  1
  In  In52  1  0.34546928  -0.01202150  0.02089534  1
  In  In53  1  0.31416658  0.65489826  0.33568548  1
  In  In54  1  0.45819884  0.61994287  0.81650148  1
  In  In55  1  0.48388521  0.64011297  0.17766845  1
  In  In56  1  0.49588955  0.34771770  0.13114595  1
  In  In57  1  0.34256714  0.65606434  0.00134183  1
  In  In58  1  0.85019813  0.01589550  0.14882076  1
  In  In59  1  0.66316559  0.84229276  0.15936134  1
  In  In60  1  0.01693791  0.47840321  0.79833347  1
  In  In61  1  0.85950873  0.18431983  0.68934538  1
  In  In62  1  0.65522318  0.16489114  0.47076565  1
  In  In63  1  0.81876610  0.85740728  -0.01624586  1
  In  In64  1  0.02648216  0.64096823  -0.03304636  1
  In  In65  1  0.01109709  0.52219097  0.52579129  1
  In  In66  1  0.85015283  0.49629099  0.35170910  1
  In  In67  1  0.48543837  0.00915949  0.82072654  1
  In  In68  1  0.48862776  0.83839440  0.68071829  1
  In  In69  1  0.52541623  0.81531366  0.02480929  1
  In  In70  1  0.83243991  0.16980688  0.32327953  1
  In  In71  1  0.02235689  0.84377225  0.48519693  1
  Te  Te72  1  0.09298889  0.06397591  0.08302765  1
  Te  Te73  1  0.10587937  0.05874064  0.38221685  1
  Te  Te74  1  0.10502413  0.12220511  0.78529631  1
  Te  Te75  1  0.06841993  0.42371433  0.07751736  1
  Te  Te76  1  0.08662169  0.43009931  0.43298351  1
  Te  Te77  1  0.08091002  0.38466071  0.70283394  1
  Te  Te78  1  0.07952699  0.74183753  0.06725380  1
  Te  Te79  1  0.09858678  0.73315018  0.42963904  1
  Te  Te80  1  0.11720832  0.75333548  0.75709174  1
  Te  Te81  1  0.39291930  0.09670623  0.11351239  1
  Te  Te82  1  0.39159057  0.08666704  0.41268007  1
  Te  Te83  1  0.42108255  0.10214393  0.72018849  1
  Te  Te84  1  0.38064613  0.42991564  0.07422165  1
  Te  Te85  1  0.42943204  0.35360493  0.41457780  1
  Te  Te86  1  0.36658442  0.41466425  0.79413381  1
  Te  Te87  1  0.41232109  0.75024971  0.10049984  1
  Te  Te88  1  0.42235553  0.73588785  0.40977289  1
  Te  Te89  1  0.39383742  0.72899093  0.73437728  1
  Te  Te90  1  0.73202495  0.07819391  0.08399648  1
  Te  Te91  1  0.75427625  0.06991873  0.40926693  1
  Te  Te92  1  0.74152316  0.11153825  0.73649773  1
  Te  Te93  1  0.77923828  0.40754519  0.10133682  1
  Te  Te94  1  0.75241683  0.40809068  0.42470767  1
  Te  Te95  1  0.76507406  0.39801041  0.76713896  1
  Te  Te96  1  0.75245438  0.74570908  0.07385231  1
  Te  Te97  1  0.77904310  0.76748417  0.39962665  1
  Te  Te98  1  0.75917688  0.75288862  0.75612215  1
  Te  Te99  1  0.09289118  0.26859184  0.25567432  1
  Te  Te100  1  0.04514030  0.26831182  0.60484143  1
  Te  Te101  1  0.06962433  0.22754555  0.90867242  1
  Te  Te102  1  0.14452896  0.59902835  0.25004696  1
  Te  Te103  1  0.11778693  0.57376351  0.61775279  1
  Te  Te104  1  0.11541352  0.57066261  0.86848800  1
  Te  Te105  1  0.10933548  0.92851487  0.28464611  1
  Te  Te106  1  0.08164659  0.92567841  0.59904932  1
  Te  Te107  1  0.09049049  0.93422736  0.90789381  1
  Te  Te108  1  0.39049676  0.27512381  0.22950466  1
  Te  Te109  1  0.38775999  0.28658982  0.60617087  1
  Te  Te110  1  0.42274452  0.23910880  0.91954583  1
  Te  Te111  1  0.39785256  0.54943907  0.25927871  1
  Te  Te112  1  0.41036557  0.55725646  0.57252658  1
  Te  Te113  1  0.36437910  0.54492365  0.90272556  1
  Te  Te114  1  0.39964376  0.92809944  0.25889737  1
  Te  Te115  1  0.41362312  0.91317662  0.57214127  1
  Te  Te116  1  0.43680407  0.90309085  0.92124282  1
  Te  Te117  1  0.74214139  0.27277637  0.27414479  1
  Te  Te118  1  0.74599492  0.23982866  0.57071882  1
  Te  Te119  1  0.77301736  0.28720287  0.90347482  1
  Te  Te120  1  0.76290699  0.58453718  0.26257819  1
  Te  Te121  1  0.73332445  0.59795244  0.59469008  1
  Te  Te122  1  0.73307763  0.55696671  0.90171262  1
  Te  Te123  1  0.75713329  0.92424052  0.24406760  1
  Te  Te124  1  0.74475189  0.92924091  0.58498671  1
  Te  Te125  1  0.76771345  0.96081091  0.88876822  1
  Te  Te126  1  0.22077176  0.24811833  0.08387232  1
  Te  Te127  1  0.22804726  0.23863173  0.41795655  1
  Te  Te128  1  0.21429425  0.20564258  0.71991229  1
  Te  Te129  1  0.22598888  0.58260099  0.06436215  1
  Te  Te130  1  0.27580653  0.55161476  0.43383334  1
  Te  Te131  1  0.30776853  0.50474917  0.69096212  1
  Te  Te132  1  0.25325690  0.90902632  0.10575699  1
  Te  Te133  1  0.23054014  0.86889099  0.41674945  1
  Te  Te134  1  0.25137925  0.93598738  0.75272239  1
  Te  Te135  1  0.61564054  0.24048751  0.06057624  1
  Te  Te136  1  0.56904771  0.27755939  0.43288333  1
  Te  Te137  1  0.56780294  0.27857788  0.76510804  1
  Te  Te138  1  0.54684777  0.58304259  0.05227735  1
  Te  Te139  1  0.56942169  0.56507666  0.40584866  1
  Te  Te140  1  0.57237153  0.54988091  0.76248905  1
  Te  Te141  1  0.56031308  0.93873848  0.10625140  1
  Te  Te142  1  0.58609108  0.89443984  0.40704878  1
  Te  Te143  1  0.58966298  0.93297134  0.74154020  1
  Te  Te144  1  0.90899614  0.23861294  0.10430831  1
  Te  Te145  1  0.94099973  0.22188041  0.41680347  1
  Te  Te146  1  0.95578866  0.28886053  0.73101776  1
  Te  Te147  1  0.92193688  0.59954122  0.07644781  1
  Te  Te148  1  0.94271905  0.59888443  0.41134374  1
  Te  Te149  1  0.92990146  0.60082238  0.74285395  1
  Te  Te150  1  0.92559509  0.89895241  0.08977268  1
  Te  Te151  1  0.92301289  0.93792943  0.43551724  1
  Te  Te152  1  0.92612790  0.94575154  0.75476160  1
  Te  Te153  1  0.20838983  0.06275822  0.26670426  1
  Te  Te154  1  0.21740253  0.10541150  0.58624052  1
  Te  Te155  1  0.28321762  0.07239685  0.91259943  1
  Te  Te156  1  0.20133966  0.39818141  0.24920051  1
  Te  Te157  1  0.27074027  0.38880833  0.58760190  1
  Te  Te158  1  0.22511626  0.36802510  0.88500060  1
  Te  Te159  1  0.23231100  0.72860221  0.23560180  1
  Te  Te160  1  0.28258074  0.74008715  0.58872762  1
  Te  Te161  1  0.25510634  0.75221990  0.91983693  1
  Te  Te162  1  0.55699519  0.11491010  0.27000828  1
  Te  Te163  1  0.57315095  0.08782410  0.57232185  1
  Te  Te164  1  0.58074777  0.08347731  0.91114754  1
  Te  Te165  1  0.58234389  0.41999300  0.22406551  1
  Te  Te166  1  0.57436574  0.41526793  0.59207261  1
  Te  Te167  1  0.56609058  0.37847479  0.99712945  1
  Te  Te168  1  0.60055356  0.72864737  0.23999315  1
  Te  Te169  1  0.58281656  0.74674800  0.60271145  1
  Te  Te170  1  0.58377171  0.74957095  0.90015272  1
  Te  Te171  1  0.93433699  0.07520947  0.25548342  1
  Te  Te172  1  0.92748942  0.09875088  0.59033075  1
  Te  Te173  1  0.91687625  0.10936627  0.90406602  1
  Te  Te174  1  0.93306423  0.43218879  0.24271145  1
  Te  Te175  1  0.90080262  0.43486247  0.58049634  1
  Te  Te176  1  0.93632733  0.42534498  0.91292599  1
  Te  Te177  1  0.96296757  0.74951183  0.25700892  1
  Te  Te178  1  0.91210764  0.75475585  0.58292934  1
  Te  Te179  1  0.92256812  0.75948701  0.91463985  1
