# generated using pymatgen
data_In2Te3
_symmetry_space_group_name_H-M   'P 1'
_cell_length_a   18.96349297
_cell_length_b   18.98060340
_cell_length_c   18.95898551
_cell_angle_alpha   89.87535504
_cell_angle_beta   89.89935622
_cell_angle_gamma   90.06154446
_symmetry_Int_Tables_number   1
_chemical_formula_structural   In2Te3
_chemical_formula_sum   'In72 Te108'
_cell_volume   6824.03890668
_cell_formula_units_Z   36
loop_
 _symmetry_equiv_pos_site_id
 _symmetry_equiv_pos_as_xyz
  1  'x, y, z'
loop_
 _atom_site_type_symbol
 _atom_site_label
 _atom_site_symmetry_multiplicity
 _atom_site_fract_x
 _atom_site_fract_y
 _atom_site_fract_z
 _atom_site_occupancy
  In  In0  1  0.64291978  0.82025198  0.17458041  1
  In  In1  1  0.47585891  0.01473806  0.83588893  1
  In  In2  1  0.86127300  0.63477048  0.14927883  1
  In  In3  1  0.35496473  0.65895300  0.66975099  1
  In  In4  1  -0.05458360  0.16165306  0.87202473  1
  In  In5  1  0.83117413  0.85317687  0.00922460  1
  In  In6  1  0.51111429  0.15609414  0.32969673  1
  In  In7  1  -0.00074936  0.83891955  0.83117743  1
  In  In8  1  0.16947542  0.17409174  0.00447819  1
  In  In9  1  0.33479814  0.36853050  0.00296595  1
  In  In10  1  0.80666222  0.66883375  0.53410406  1
  In  In11  1  0.69835215  0.64551862  -0.00537680  1
  In  In12  1  0.00721019  0.49626437  0.84612384  1
  In  In13  1  0.47831698  0.82091568  0.66663828  1
  In  In14  1  0.49539018  0.49773443  0.01803900  1
  In  In15  1  0.85233768  0.17787409  0.66988611  1
  In  In16  1  0.65968331  0.35629549  0.01872804  1
  In  In17  1  0.67550283  0.35100856  0.66124792  1
  In  In18  1  0.69301023  0.17022673  0.84162960  1
  In  In19  1  0.50928324  0.01311629  0.48552809  1
  In  In20  1  0.33426426  -0.01092728  0.31437438  1
  In  In21  1  0.34774399  0.50418070  0.83839111  1
  In  In22  1  -0.00167312  0.33911633  0.00154334  1
  In  In23  1  0.00599048  0.65486141  0.32736378  1
  In  In24  1  -0.02764280  0.82590814  0.47333369  1
  In  In25  1  0.34871822  0.33390824  0.64913833  1
  In  In26  1  0.52195606  0.17402299  0.00410900  1
  In  In27  1  0.33815906  0.48399145  0.46898751  1
  In  In28  1  0.52018360  0.33568961  0.86166411  1
  In  In29  1  0.30121250  -0.01318633  -0.00291787  1
  In  In30  1  0.66367184  0.01643750  0.33699736  1
  In  In31  1  0.02140506  0.69223107  0.64709557  1
  In  In32  1  -0.01347626  0.00044800  0.66447648  1
  In  In33  1  0.81906814  0.02320041  0.13915031  1
  In  In34  1  0.17704274  0.63308172  0.16927878  1
  In  In35  1  0.00996220  0.17047682  0.17121660  1
  In  In36  1  0.67474907  0.49843288  0.19550148  1
  In  In37  1  0.80635924  0.31431128  0.19021443  1
  In  In38  1  0.84353095  0.49622561  0.33758448  1
  In  In39  1  0.48119303  0.65650587  0.18401013  1
  In  In40  1  0.66108981  -0.00847680  0.67620735  1
  In  In41  1  0.51186966  0.19178434  0.63186646  1
  In  In42  1  0.83097414  0.31646073  0.47447575  1
  In  In43  1  0.34442752  0.83137352  0.47277656  1
  In  In44  1  0.18870056  0.88886882  0.63486964  1
  In  In45  1  0.34573106  0.17344941  0.80405415  1
  In  In46  1  0.83009201  0.82302739  0.32280519  1
  In  In47  1  0.00105716  0.32667704  0.67135450  1
  In  In48  1  0.49125522  0.68201801  0.48717138  1
  In  In49  1  0.49655374  -0.02121587  0.15970852  1
  In  In50  1  -0.00930652  0.01422812  0.32971593  1
  In  In51  1  0.19120701  0.40049552  0.16559434  1
  In  In52  1  0.65245628  0.85577220  0.49500007  1
  In  In53  1  0.52357492  0.79866833  0.00663305  1
  In  In54  1  0.50378602  0.50238817  0.33764745  1
  In  In55  1  0.01408393  0.49871242  0.49651749  1
  In  In56  1  0.67756315  0.83198428  0.86063450  1
  In  In57  1  0.31263032  0.81717224  0.86357644  1
  In  In58  1  0.19720431  0.34375596  0.82040240  1
  In  In59  1  0.17705954  0.19272737  0.31925375  1
  In  In60  1  0.16292364  0.34223867  0.49845446  1
  In  In61  1  0.14456972  0.80933121  0.00265719  1
  In  In62  1  0.15833057  -0.00093418  0.78476042  1
  In  In63  1  0.13710590  -0.01372806  0.15632690  1
  In  In64  1  0.35744107  0.17216234  0.17693366  1
  In  In65  1  0.17975833  0.81252057  0.32098053  1
  In  In66  1  -0.00696264  0.17949514  0.47651007  1
  In  In67  1  0.83714583  0.68794031  0.83156744  1
  In  In68  1  0.20831124  0.64500575  0.48831369  1
  In  In69  1  0.83915978  0.49579166  0.68876160  1
  In  In70  1  0.65832039  0.50624575  0.51858370  1
  In  In71  1  0.15360877  0.65536403  0.83810403  1
  Te  Te72  1  0.06502420  0.07977212  0.06073820  1
  Te  Te73  1  0.09614757  0.09426206  0.40417545  1
  Te  Te74  1  0.03794501  0.09755277  0.77391347  1
  Te  Te75  1  0.06309770  0.44131891  0.09084433  1
  Te  Te76  1  0.05634675  0.39046672  0.40617656  1
  Te  Te77  1  0.09235536  0.42373898  0.74255141  1
  Te  Te78  1  0.08203546  0.73178912  0.11069084  1
  Te  Te79  1  0.09385812  0.73684900  0.43074383  1
  Te  Te80  1  0.10741393  0.76765952  0.74743663  1
  Te  Te81  1  0.41018973  0.07749987  0.06810000  1
  Te  Te82  1  0.39817987  0.08437580  0.41157352  1
  Te  Te83  1  0.42737951  0.08749376  0.71215800  1
  Te  Te84  1  0.44643555  0.38372992  0.09866159  1
  Te  Te85  1  0.45653055  0.40119934  0.43733176  1
  Te  Te86  1  0.42797659  0.40299811  0.75894694  1
  Te  Te87  1  0.41532321  0.74813152  0.08925652  1
  Te  Te88  1  0.38167058  0.71358861  0.39087815  1
  Te  Te89  1  0.42032424  0.74273703  0.78544119  1
  Te  Te90  1  0.75262497  0.12107914  0.05100372  1
  Te  Te91  1  0.74433247  0.12571878  0.39634485  1
  Te  Te92  1  0.76640557  0.07898452  0.74653455  1
  Te  Te93  1  0.76601341  0.43114016  0.09559712  1
  Te  Te94  1  0.73839295  0.42156742  0.41785961  1
  Te  Te95  1  0.75037377  0.41077998  0.76967811  1
  Te  Te96  1  0.75547170  0.74651862  0.09318190  1
  Te  Te97  1  0.74232822  0.75315213  0.42436854  1
  Te  Te98  1  0.74080541  0.76152446  0.74995620  1
  Te  Te99  1  0.10483416  0.27748504  0.21872092  1
  Te  Te100  1  0.08419612  0.23822826  0.58254142  1
  Te  Te101  1  0.09753933  0.26513206  0.90661993  1
  Te  Te102  1  0.09534533  0.55439492  0.27167173  1
  Te  Te103  1  0.10508497  0.58219584  0.58367457  1
  Te  Te104  1  0.05754371  0.60090273  0.93932488  1
  Te  Te105  1  0.06922771  0.90341897  0.26286701  1
  Te  Te106  1  0.05918121  0.91805553  0.55813989  1
  Te  Te107  1  0.10110551  0.91924904  0.90799602  1
  Te  Te108  1  0.41074914  0.25482674  0.28375754  1
  Te  Te109  1  0.40493911  0.24362130  0.54764588  1
  Te  Te110  1  0.40608387  0.24910303  0.92055111  1
  Te  Te111  1  0.39896259  0.54047605  0.23583719  1
  Te  Te112  1  0.43167819  0.56478358  0.57005528  1
  Te  Te113  1  0.41503959  0.58825967  0.93670020  1
  Te  Te114  1  0.40554038  0.89146307  0.23360152  1
  Te  Te115  1  0.41931346  0.92068273  0.56929767  1
  Te  Te116  1  0.41916385  0.91095415  0.93419057  1
  Te  Te117  1  0.72263106  0.23963982  0.28946974  1
  Te  Te118  1  0.74951782  0.24651189  0.58214299  1
  Te  Te119  1  0.74725275  0.25322060  0.95225720  1
  Te  Te120  1  0.76475841  0.60192575  0.26229129  1
  Te  Te121  1  0.72646711  0.58316261  0.63024840  1
  Te  Te122  1  0.79597849  0.57240933  0.91414215  1
  Te  Te123  1  0.74299014  0.91845400  0.24130508  1
  Te  Te124  1  0.74792169  0.93257547  0.57365953  1
  Te  Te125  1  0.76436804  0.94111332  0.90979642  1
  Te  Te126  1  0.26256810  0.25892815  0.08750697  1
  Te  Te127  1  0.25874619  0.27662776  0.40653494  1
  Te  Te128  1  0.24240967  0.24168532  0.71887115  1
  Te  Te129  1  0.24989621  0.52193597  0.09949679  1
  Te  Te130  1  0.22322883  0.53623706  0.38263653  1
  Te  Te131  1  0.25130050  0.58040349  0.74900971  1
  Te  Te132  1  0.23865146  0.89185663  0.09506236  1
  Te  Te133  1  0.23806735  0.92015709  0.41120779  1
  Te  Te134  1  0.28672722  0.91651864  0.75344351  1
  Te  Te135  1  0.57395804  0.26813516  0.10354800  1
  Te  Te136  1  0.61997285  0.22316962  0.40737669  1
  Te  Te137  1  0.58431874  0.24172547  0.76058080  1
  Te  Te138  1  0.59687638  0.58991547  0.09708764  1
  Te  Te139  1  0.59543031  0.59723654  0.41580084  1
  Te  Te140  1  0.48950118  0.60427342  0.70501471  1
  Te  Te141  1  0.59891797  0.91648378  0.06490351  1
  Te  Te142  1  0.56231812  0.91236142  0.38672841  1
  Te  Te143  1  0.56519017  0.91054326  0.76316981  1
  Te  Te144  1  0.91173053  0.25325816  0.09195491  1
  Te  Te145  1  0.93611749  0.27524620  0.37785402  1
  Te  Te146  1  0.90418556  0.27253999  0.77597151  1
  Te  Te147  1  0.96854173  0.56491254  0.07729661  1
  Te  Te148  1  0.90936813  0.59966455  0.44346169  1
  Te  Te149  1  0.94051421  0.60000380  0.73920016  1
  Te  Te150  1  0.92176910  0.92780644  0.09780638  1
  Te  Te151  1  0.88811990  0.93416768  0.40895892  1
  Te  Te152  1  0.90499470  0.91943645  0.75495584  1
  Te  Te153  1  0.23849136  0.07785770  0.22441449  1
  Te  Te154  1  0.20934809  0.03464296  0.64791769  1
  Te  Te155  1  0.25140860  0.09440826  0.90077285  1
  Te  Te156  1  0.28666319  0.43790127  0.27535404  1
  Te  Te157  1  0.25270086  0.43059782  0.58397990  1
  Te  Te158  1  0.23190097  0.44792300  0.92529583  1
  Te  Te159  1  0.26792354  0.71169075  0.26221444  1
  Te  Te160  1  0.25978993  0.75632060  0.58331913  1
  Te  Te161  1  0.24658450  0.71097084  0.94646951  1
  Te  Te162  1  0.58820334  0.08172732  0.22110016  1
  Te  Te163  1  0.60590606  0.08993187  0.57134721  1
  Te  Te164  1  0.59043789  0.07646220  0.91274434  1
  Te  Te165  1  0.59013383  0.40455175  0.26716248  1
  Te  Te166  1  0.56791687  0.40351261  0.57661218  1
  Te  Te167  1  0.59858530  0.45193591  0.91358849  1
  Te  Te168  1  0.57144890  0.73614004  0.26939485  1
  Te  Te169  1  0.58518090  0.75260048  0.58521955  1
  Te  Te170  1  0.59470414  0.71117183  0.90595877  1
  Te  Te171  1  0.89829347  0.09977883  0.24653403  1
  Te  Te172  1  0.90899273  0.08831463  0.56226888  1
  Te  Te173  1  0.86299036  0.07126852  0.95605912  1
  Te  Te174  1  0.90843679  0.40932938  0.23993993  1
  Te  Te175  1  0.90798881  0.41215121  0.57785132  1
  Te  Te176  1  0.90544140  0.41941850  0.91902567  1
  Te  Te177  1  0.92726187  0.74602398  0.23689716  1
  Te  Te178  1  0.90143672  0.76981885  0.59650680  1
  Te  Te179  1  0.92321098  0.75792347  0.93461529  1
