# generated using pymatgen
data_In2Te3
_symmetry_space_group_name_H-M   'P 1'
_cell_length_a   18.96982596
_cell_length_b   18.97007794
_cell_length_c   18.96219386
_cell_angle_alpha   90.00855313
_cell_angle_beta   90.27493244
_cell_angle_gamma   90.11715185
_symmetry_Int_Tables_number   1
_chemical_formula_structural   In2Te3
_chemical_formula_sum   'In72 Te108'
_cell_volume   6823.62467051
_cell_formula_units_Z   36
loop_
 _symmetry_equiv_pos_site_id
 _symmetry_equiv_pos_as_xyz
  1  'x, y, z'
loop_
 _atom_site_type_symbol
 _atom_site_label
 _atom_site_symmetry_multiplicity
 _atom_site_fract_x
 _atom_site_fract_y
 _atom_site_fract_z
 _atom_site_occupancy
  In  In0  1  0.82942917  0.80166198  0.36360115  1
  In  In1  1  0.14302318  -0.01214149  0.50417323  1
  In  In2  1  0.65568321  0.16925256  0.83632115  1
  In  In3  1  0.33170427  0.47735996  0.85219377  1
  In  In4  1  0.69113036  0.67187103  0.01466438  1
  In  In5  1  0.13343560  0.84078780  0.33698467  1
  In  In6  1  0.36138755  0.47591740  0.45626053  1
  In  In7  1  0.02471087  0.49129749  0.84453220  1
  In  In8  1  0.51127094  0.00294218  0.48980305  1
  In  In9  1  0.34175545  0.64264258  0.31846903  1
  In  In10  1  0.00447700  0.35454142  0.65816871  1
  In  In11  1  0.80884619  0.19534177  0.61176097  1
  In  In12  1  0.53501057  0.70853813  0.50160318  1
  In  In13  1  0.81260352  0.50405653  0.02970056  1
  In  In14  1  0.68341408  -0.04958447  0.32193504  1
  In  In15  1  0.64888097  0.33218175  0.34690953  1
  In  In16  1  0.82021724  0.17374568  0.35169034  1
  In  In17  1  0.18810256  0.66341537  0.49849482  1
  In  In18  1  0.49219979  0.63406420  0.82419038  1
  In  In19  1  0.46632913  0.18315892  0.00184434  1
  In  In20  1  0.01706440  0.65914128  0.34495431  1
  In  In21  1  0.34368308  0.01760070  0.64807198  1
  In  In22  1  0.35131434  -0.00540651  0.32020216  1
  In  In23  1  0.16227491  0.18102225  0.34630805  1
  In  In24  1  0.32664947  0.00283090  0.01426522  1
  In  In25  1  0.83504845  -0.00603207  0.84891122  1
  In  In26  1  -0.01463976  0.49232340  0.47197335  1
  In  In27  1  0.82904736  0.82964268  0.66729850  1
  In  In28  1  0.62807456  0.15474620  0.16222858  1
  In  In29  1  0.33913601  0.81712594  0.83942040  1
  In  In30  1  0.19210793  0.35484469  0.17771076  1
  In  In31  1  0.48949080  0.51899457  0.06009887  1
  In  In32  1  0.65261215  0.48636986  0.83076203  1
  In  In33  1  0.00907179  -0.01371325  -0.01059936  1
  In  In34  1  -0.01044095  0.68952678  0.65902234  1
  In  In35  1  0.82410500  -0.01762339  0.19294481  1
  In  In36  1  -0.01450333  0.86058469  0.17289696  1
  In  In37  1  0.69101656  -0.01218205  0.67674366  1
  In  In38  1  0.15722218  0.86035538  0.68347993  1
  In  In39  1  0.19276910  0.48839805  0.01147103  1
  In  In40  1  0.68584040  0.51573780  0.21958619  1
  In  In41  1  0.33367642  0.18104763  0.16820518  1
  In  In42  1  0.17086750  0.34587623  0.48649879  1
  In  In43  1  -0.00067822  0.17498457  0.15804251  1
  In  In44  1  0.49300902  -0.00153527  0.82623336  1
  In  In45  1  0.67856526  0.51427309  0.47160484  1
  In  In46  1  -0.01254096  0.64111147  0.01198338  1
  In  In47  1  0.15434138  0.15608120  -0.02519266  1
  In  In48  1  0.51315196  -0.04575933  0.17530403  1
  In  In49  1  0.67961328  -0.02164416  -0.01150608  1
  In  In50  1  0.18665157  0.52208975  0.65903751  1
  In  In51  1  0.16149989  0.67509384  0.15691351  1
  In  In52  1  -0.01765375  0.18474335  0.49782068  1
  In  In53  1  0.50235161  0.34098572  0.84733626  1
  In  In54  1  0.00961406  0.14962811  0.80371664  1
  In  In55  1  0.00738516  0.31974859  0.02175842  1
  In  In56  1  0.81709369  0.18692761  0.00111361  1
  In  In57  1  0.83769821  0.33243657  0.84125412  1
  In  In58  1  0.32663752  0.31442940  0.68630275  1
  In  In59  1  0.00915379  0.82379137  0.85032936  1
  In  In60  1  -0.03438007  0.48063833  0.20885275  1
  In  In61  1  0.81781431  0.50282864  0.65226372  1
  In  In62  1  0.18380780  0.84171104  0.00406049  1
  In  In63  1  0.48812419  0.76583555  0.02088814  1
  In  In64  1  0.32015940  0.20917513  0.50257197  1
  In  In65  1  0.35170564  0.84532165  0.51449507  1
  In  In66  1  0.83261868  0.66859073  0.80091712  1
  In  In67  1  0.83740679  -0.01217586  0.50194332  1
  In  In68  1  0.35709374  0.66292511  0.67928225  1
  In  In69  1  0.50495497  0.17421063  0.65303967  1
  In  In70  1  0.49499705  0.18690442  0.33154387  1
  In  In71  1  0.51343355  0.48789139  0.62264851  1
  Te  Te72  1  0.08691232  0.07453970  0.08483519  1
  Te  Te73  1  0.06560479  0.08734740  0.41637516  1
  Te  Te74  1  0.12242553  0.10216034  0.72953600  1
  Te  Te75  1  0.07342815  0.43287266  0.09857082  1
  Te  Te76  1  0.08291865  0.41709917  0.39336562  1
  Te  Te77  1  0.11209162  0.41910635  0.74451507  1
  Te  Te78  1  0.06262479  0.76098223  0.07520547  1
  Te  Te79  1  0.07688522  0.75371619  0.44858633  1
  Te  Te80  1  0.09236119  0.73804514  0.75706833  1
  Te  Te81  1  0.43037878  0.07091718  0.10743736  1
  Te  Te82  1  0.40777812  0.09764106  0.42583806  1
  Te  Te83  1  0.41448176  0.10556332  0.75273017  1
  Te  Te84  1  0.38240874  0.42287617  0.09661159  1
  Te  Te85  1  0.47390876  0.41958275  0.38605457  1
  Te  Te86  1  0.42480619  0.42882135  0.74062158  1
  Te  Te87  1  0.38314813  0.70478754  0.10428135  1
  Te  Te88  1  0.40681918  0.74238833  0.42068735  1
  Te  Te89  1  0.44918970  0.75982861  0.74928415  1
  Te  Te90  1  0.74454694  0.08038918  0.08348262  1
  Te  Te91  1  0.73907471  0.06286888  0.41419565  1
  Te  Te92  1  0.76543227  0.09770986  0.76064166  1
  Te  Te93  1  0.73155283  0.42117925  0.11648805  1
  Te  Te94  1  0.76581969  0.41688184  0.39190923  1
  Te  Te95  1  0.74605813  0.40412230  0.74287692  1
  Te  Te96  1  0.77467500  0.75152385  0.10064303  1
  Te  Te97  1  0.69793355  0.72723316  0.36868192  1
  Te  Te98  1  0.72464428  0.74103881  0.72995635  1
  Te  Te99  1  0.08430725  0.26467216  0.24635530  1
  Te  Te100  1  0.08928948  0.25775738  0.57832064  1
  Te  Te101  1  0.06806666  0.25797238  0.90029519  1
  Te  Te102  1  0.08684882  0.57422481  0.24261082  1
  Te  Te103  1  0.07401818  0.58086625  0.57564063  1
  Te  Te104  1  0.10248647  0.58755222  0.93036760  1
  Te  Te105  1  0.08497819  0.94093997  0.24323180  1
  Te  Te106  1  0.05537877  0.91260669  0.59353485  1
  Te  Te107  1  0.11108086  0.92690199  0.89756404  1
  Te  Te108  1  0.43892389  0.26908969  0.22331382  1
  Te  Te109  1  0.43096113  0.28054544  0.57460886  1
  Te  Te110  1  0.39042472  0.27068475  0.91130064  1
  Te  Te111  1  0.44140092  0.61303343  0.21334100  1
  Te  Te112  1  0.40765379  0.58038261  0.56460478  1
  Te  Te113  1  0.41218034  0.57402383  0.93559237  1
  Te  Te114  1  0.40614500  0.88218111  0.24625793  1
  Te  Te115  1  0.45095722  0.91922564  0.60257654  1
  Te  Te116  1  0.42028677  0.91123383  0.92720966  1
  Te  Te117  1  0.72116205  0.23392833  0.25207484  1
  Te  Te118  1  0.71296489  0.26856836  0.53116636  1
  Te  Te119  1  0.72286138  0.27702119  0.92462486  1
  Te  Te120  1  0.77235649  0.61084691  0.29783672  1
  Te  Te121  1  0.76279341  0.60361550  0.56037329  1
  Te  Te122  1  0.76259304  0.56955163  0.89911062  1
  Te  Te123  1  0.72246247  0.86505694  0.19163769  1
  Te  Te124  1  0.73099348  0.89497143  0.56074130  1
  Te  Te125  1  0.74930150  0.88510525  0.89898371  1
  Te  Te126  1  0.22782116  0.24468155  0.08144127  1
  Te  Te127  1  0.26917727  0.28564463  0.38304076  1
  Te  Te128  1  0.22695424  0.21608760  0.72261951  1
  Te  Te129  1  0.26906557  0.59123201  0.09224813  1
  Te  Te130  1  0.24387941  0.56041429  0.40456203  1
  Te  Te131  1  0.26185669  0.59033993  0.77090570  1
  Te  Te132  1  0.26180906  0.90973705  0.10725330  1
  Te  Te133  1  0.25279139  0.91344329  0.41968991  1
  Te  Te134  1  0.27569437  0.92543262  0.74919474  1
  Te  Te135  1  0.56254103  0.25997995  0.08360178  1
  Te  Te136  1  0.58786744  0.23077213  0.44105468  1
  Te  Te137  1  0.58704155  0.26593136  0.74236100  1
  Te  Te138  1  0.60565321  0.60223219  0.11779943  1
  Te  Te139  1  0.57454828  0.60207410  0.40892000  1
  Te  Te140  1  0.58902748  0.57398750  0.72444823  1
  Te  Te141  1  0.57412769  0.88680087  0.05457930  1
  Te  Te142  1  0.56999469  0.89602888  0.40448662  1
  Te  Te143  1  0.61378978  0.92345239  0.78557364  1
  Te  Te144  1  0.89079532  0.26942229  0.10508107  1
  Te  Te145  1  0.92343258  0.27488324  0.39477454  1
  Te  Te146  1  0.91455163  0.25718653  0.73443151  1
  Te  Te147  1  0.89859668  0.58737937  0.12244972  1
  Te  Te148  1  0.89637531  0.58735664  0.39772119  1
  Te  Te149  1  0.93366037  0.56291006  0.74368783  1
  Te  Te150  1  0.89705525  0.92492194  0.06772756  1
  Te  Te151  1  0.91400274  0.91361489  0.40193303  1
  Te  Te152  1  0.92314926  0.90989884  0.75879815  1
  Te  Te153  1  0.25141843  0.09104278  0.25884341  1
  Te  Te154  1  0.24512539  0.08888458  0.55806800  1
  Te  Te155  1  0.26460853  0.08558299  0.91142264  1
  Te  Te156  1  0.29606494  0.45387274  0.21241002  1
  Te  Te157  1  0.26681646  0.41995652  0.58140973  1
  Te  Te158  1  0.23631946  0.38611332  0.91551546  1
  Te  Te159  1  0.22900897  0.74160077  0.27542325  1
  Te  Te160  1  0.25408385  0.75680409  0.60081320  1
  Te  Te161  1  0.25410076  0.73916444  0.92791358  1
  Te  Te162  1  0.57498811  0.06238686  0.27113649  1
  Te  Te163  1  0.60046773  0.07659631  0.59001305  1
  Te  Te164  1  0.57293475  0.08757105  0.93341733  1
  Te  Te165  1  0.56779093  0.42740325  0.26220017  1
  Te  Te166  1  0.62614775  0.40982314  0.56767174  1
  Te  Te167  1  0.56653745  0.43910867  0.94376036  1
  Te  Te168  1  0.60307621  0.80408413  0.26824715  1
  Te  Te169  1  0.62825293  0.76398827  0.59817642  1
  Te  Te170  1  0.58575776  0.71780516  0.91574778  1
  Te  Te171  1  0.90780778  0.09401215  0.25050271  1
  Te  Te172  1  0.91232683  0.08681974  0.59010067  1
  Te  Te173  1  0.92042160  0.10319730  0.92803854  1
  Te  Te174  1  0.88226477  0.39154668  0.29084252  1
  Te  Te175  1  0.89817564  0.40815571  0.56452272  1
  Te  Te176  1  0.92071976  0.42264317  0.93320823  1
  Te  Te177  1  0.92802107  0.75150313  0.25977545  1
  Te  Te178  1  0.87943400  0.72830702  0.56908316  1
  Te  Te179  1  0.90921961  0.73222573  0.91728097  1
