# generated using pymatgen
data_In2Te3
_symmetry_space_group_name_H-M   'P 1'
_cell_length_a   18.90458063
_cell_length_b   18.92595829
_cell_length_c   18.91459010
_cell_angle_alpha   89.97028833
_cell_angle_beta   90.19082619
_cell_angle_gamma   89.96532573
_symmetry_Int_Tables_number   1
_chemical_formula_structural   In2Te3
_chemical_formula_sum   'In72 Te108'
_cell_volume   6767.36051716
_cell_formula_units_Z   36
loop_
 _symmetry_equiv_pos_site_id
 _symmetry_equiv_pos_as_xyz
  1  'x, y, z'
loop_
 _atom_site_type_symbol
 _atom_site_label
 _atom_site_symmetry_multiplicity
 _atom_site_fract_x
 _atom_site_fract_y
 _atom_site_fract_z
 _atom_site_occupancy
  In  In0  1  0.49732762  0.51862819  0.67762341  1
  In  In1  1  0.66763257  -0.01283220  0.65740042  1
  In  In2  1  0.37242174  0.15582129  0.19235597  1
  In  In3  1  0.65098403  0.02498387  0.31216196  1
  In  In4  1  0.15906573  -0.03321258  0.16217180  1
  In  In5  1  0.83948644  -0.01450602  0.81866730  1
  In  In6  1  0.50835702  0.34092795  0.48514191  1
  In  In7  1  -0.00689621  0.35208363  0.31290727  1
  In  In8  1  0.66356171  0.64706209  0.65341456  1
  In  In9  1  0.17568819  0.34415803  0.85096058  1
  In  In10  1  0.50140741  0.16726699  0.00072892  1
  In  In11  1  0.50553041  0.33299663  0.84573164  1
  In  In12  1  0.70322550  0.32632533  0.66582501  1
  In  In13  1  0.65742525  0.81675354  0.83939133  1
  In  In14  1  0.18707123  0.17776813  0.33569963  1
  In  In15  1  0.33647347  0.51773840  0.85612711  1
  In  In16  1  0.14980298  0.33660743  0.48976049  1
  In  In17  1  0.81252952  0.17401086  0.34077365  1
  In  In18  1  0.51101609  0.51016192  0.31543274  1
  In  In19  1  0.82783283  0.34961668  0.17318776  1
  In  In20  1  0.15237371  0.51561930  0.33272043  1
  In  In21  1  0.02934458  0.14760782  0.16025968  1
  In  In22  1  -0.00458990  0.68137960  0.66623314  1
  In  In23  1  0.30588458  0.33354057  0.66621692  1
  In  In24  1  -0.01006186  0.66070660  0.34162836  1
  In  In25  1  0.34279794  0.13297023  0.83567046  1
  In  In26  1  0.49678695  0.14895140  0.68556405  1
  In  In27  1  0.82963658  0.65225534  0.83846546  1
  In  In28  1  0.69836217  0.48501930  0.50540409  1
  In  In29  1  0.65583906  0.35466670  0.32828134  1
  In  In30  1  0.17519393  0.83082300  0.65858711  1
  In  In31  1  0.66779234  0.15843892  0.87148005  1
  In  In32  1  0.63913993  0.49605482  0.84896388  1
  In  In33  1  0.65642470  0.82321483  0.18111152  1
  In  In34  1  0.16138062  -0.02120204  0.50187182  1
  In  In35  1  0.32799595  0.67245526  -0.00046180  1
  In  In36  1  -0.00229688  0.16297089  0.84101763  1
  In  In37  1  0.34015120  0.15691944  0.50258113  1
  In  In38  1  0.50569825  0.66599589  0.50449514  1
  In  In39  1  0.32541964  -0.02193629  -0.01862234  1
  In  In40  1  0.83460002  0.65457010  0.15869896  1
  In  In41  1  0.74922188  0.64682792  0.34071522  1
  In  In42  1  0.82484257  0.17858755  0.01838327  1
  In  In43  1  0.01044324  0.66130774  0.00669290  1
  In  In44  1  0.64155583  -0.01414918  0.01243378  1
  In  In45  1  0.47816116  0.67484856  0.15157209  1
  In  In46  1  0.16045401  0.68055635  0.50872910  1
  In  In47  1  0.64209598  0.68033254  0.00307462  1
  In  In48  1  -0.01305091  0.35302920  -0.01987280  1
  In  In49  1  0.18062294  0.35967862  0.12842004  1
  In  In50  1  -0.00561119  0.15750104  0.51909138  1
  In  In51  1  0.20747072  0.15736414  0.00651600  1
  In  In52  1  0.84345613  0.51129048  0.67137292  1
  In  In53  1  0.36946910  0.34373885  0.29746605  1
  In  In54  1  0.85402932  0.17077511  0.67531390  1
  In  In55  1  0.14230177  0.13985419  0.67332380  1
  In  In56  1  0.49237818  0.84194925  0.32375116  1
  In  In57  1  0.83722570  0.34355477  0.50810198  1
  In  In58  1  0.32455322  0.82470201  0.82548110  1
  In  In59  1  0.48073937  0.82771410  0.66653001  1
  In  In60  1  0.85495873  0.84151572  0.65910577  1
  In  In61  1  0.15927950  0.50851268  0.67703946  1
  In  In62  1  0.87168868  0.84013386  0.00107951  1
  In  In63  1  0.00587042  -0.01133407  0.31487767  1
  In  In64  1  0.33991190  -0.00788293  0.34002312  1
  In  In65  1  0.16711720  0.64416323  0.84534723  1
  In  In66  1  0.84749053  0.83430753  0.34157062  1
  In  In67  1  0.83594154  0.00277943  0.13444443  1
  In  In68  1  0.17245709  0.67876677  0.16616741  1
  In  In69  1  0.50222468  -0.01761713  0.50492651  1
  In  In70  1  0.34367682  0.66832101  0.32996765  1
  In  In71  1  0.66740495  0.34180225  -0.00473238  1
  Te  Te72  1  0.09691632  0.06219527  0.05737797  1
  Te  Te73  1  0.09054164  0.09249122  0.41389999  1
  Te  Te74  1  0.05063427  0.05614177  0.75263867  1
  Te  Te75  1  0.07793578  0.44151319  0.05902266  1
  Te  Te76  1  0.05734440  0.43656698  0.42224062  1
  Te  Te77  1  0.08385421  0.41546551  0.76243695  1
  Te  Te78  1  0.09088377  0.76366870  0.07656988  1
  Te  Te79  1  0.06926106  0.75788927  0.42079116  1
  Te  Te80  1  0.09418477  0.74647740  0.75958824  1
  Te  Te81  1  0.40849489  0.07219734  0.07290782  1
  Te  Te82  1  0.43517270  0.08834112  0.41015271  1
  Te  Te83  1  0.40384519  0.04771041  0.73328431  1
  Te  Te84  1  0.34894757  0.46085302  0.07131125  1
  Te  Te85  1  0.41593026  0.43348746  0.41178445  1
  Te  Te86  1  0.40743179  0.40979533  0.75277674  1
  Te  Te87  1  0.37802624  0.77218478  0.09981916  1
  Te  Te88  1  0.41569874  0.76157198  0.42706534  1
  Te  Te89  1  0.41446197  0.73100827  0.75400494  1
  Te  Te90  1  0.72050751  0.09287621  0.08885607  1
  Te  Te91  1  0.75181253  0.06338776  0.41372045  1
  Te  Te92  1  0.74069153  0.09186703  0.75562152  1
  Te  Te93  1  0.76751250  0.42643723  0.06325843  1
  Te  Te94  1  0.77829092  0.42140993  0.39222590  1
  Te  Te95  1  0.74800753  0.43371516  0.76252570  1
  Te  Te96  1  0.75234785  0.76679155  0.07462661  1
  Te  Te97  1  0.73780302  0.77068616  0.41707887  1
  Te  Te98  1  0.75412711  0.74483914  0.74243180  1
  Te  Te99  1  0.09689235  0.25928225  0.24331951  1
  Te  Te100  1  0.07828776  0.25705322  0.59840416  1
  Te  Te101  1  0.09775755  0.24244372  0.93715726  1
  Te  Te102  1  0.06761612  0.58745703  0.23138373  1
  Te  Te103  1  0.06841799  0.58063236  0.57880023  1
  Te  Te104  1  0.09114073  0.55503964  0.93549636  1
  Te  Te105  1  0.11086826  0.89036751  0.28055757  1
  Te  Te106  1  0.06640494  0.89272109  0.57488595  1
  Te  Te107  1  -0.01314172  0.93245133  0.96961697  1
  Te  Te108  1  0.47289019  0.23931008  0.26680497  1
  Te  Te109  1  0.42113538  0.25514063  0.59233309  1
  Te  Te110  1  0.40224447  0.24783411  0.91647166  1
  Te  Te111  1  0.39856812  0.56876294  0.22964730  1
  Te  Te112  1  0.41236559  0.57735842  0.57520487  1
  Te  Te113  1  0.43380749  0.60581552  0.92109039  1
  Te  Te114  1  0.41922728  0.93018394  0.23119420  1
  Te  Te115  1  0.39761806  0.91052323  0.57658368  1
  Te  Te116  1  0.42610794  0.89354700  0.91301086  1
  Te  Te117  1  0.73401441  0.25092863  0.23842659  1
  Te  Te118  1  0.75796479  0.22860654  0.56610825  1
  Te  Te119  1  0.76719580  0.26513669  0.90723437  1
  Te  Te120  1  0.72085676  0.57615879  0.21473213  1
  Te  Te121  1  0.77885639  0.60140261  0.56681379  1
  Te  Te122  1  0.73591686  0.58073106  0.93187232  1
  Te  Te123  1  0.75855481  0.92374929  0.23905177  1
  Te  Te124  1  0.76376232  0.91883333  0.57228669  1
  Te  Te125  1  0.74590265  0.91709297  0.91830524  1
  Te  Te126  1  0.27987429  0.24786350  0.10414232  1
  Te  Te127  1  0.27493515  0.26845583  0.41962347  1
  Te  Te128  1  0.24144011  0.23059205  0.75734543  1
  Te  Te129  1  0.24987350  0.57135038  0.08246362  1
  Te  Te130  1  0.24993084  0.58885638  0.41980425  1
  Te  Te131  1  0.26684276  0.59275563  0.74293950  1
  Te  Te132  1  0.25804266  0.89003798  0.08181133  1
  Te  Te133  1  0.24714173  0.90205282  0.40956490  1
  Te  Te134  1  0.24024329  0.92365661  0.75396268  1
  Te  Te135  1  0.58486721  0.25631672  0.08129033  1
  Te  Te136  1  0.61005734  0.25527629  0.42747666  1
  Te  Te137  1  0.59605547  0.25249479  0.75436181  1
  Te  Te138  1  0.58844308  0.58565230  0.10381568  1
  Te  Te139  1  0.59659941  0.56972031  0.42718600  1
  Te  Te140  1  0.57544729  0.61050109  0.77075910  1
  Te  Te141  1  0.56119261  0.91574095  0.11367862  1
  Te  Te142  1  0.59583214  0.91528973  0.40686397  1
  Te  Te143  1  0.57763842  0.91276297  0.75228748  1
  Te  Te144  1  0.93689179  0.25138847  0.09180351  1
  Te  Te145  1  0.93153396  0.24879305  0.41079715  1
  Te  Te146  1  0.92182222  0.27036479  0.76542986  1
  Te  Te147  1  0.89966417  0.57464085  0.05400762  1
  Te  Te148  1  0.87321841  0.58929021  0.39839028  1
  Te  Te149  1  0.94041725  0.57882322  0.76647709  1
  Te  Te150  1  0.95277348  0.90816914  0.11491949  1
  Te  Te151  1  0.91456576  0.94146351  0.41800773  1
  Te  Te152  1  0.94637647  0.90690648  0.75640625  1
  Te  Te153  1  0.24257444  0.07765651  0.23742139  1
  Te  Te154  1  0.24895568  0.07268333  0.58695325  1
  Te  Te155  1  0.22548706  0.05505196  0.89356489  1
  Te  Te156  1  0.24047975  0.41523020  0.25734001  1
  Te  Te157  1  0.24104932  0.42908492  0.57011268  1
  Te  Te158  1  0.27573121  0.41111227  0.94397794  1
  Te  Te159  1  0.24932410  0.76014908  0.26278334  1
  Te  Te160  1  0.26847898  0.74487551  0.58428871  1
  Te  Te161  1  0.22652407  0.75852014  0.92406651  1
  Te  Te162  1  0.54142541  0.09873511  0.24755583  1
  Te  Te163  1  0.58458480  0.08868018  0.57827122  1
  Te  Te164  1  0.55841560  0.06246169  0.90516576  1
  Te  Te165  1  0.57075545  0.41368882  0.22236208  1
  Te  Te166  1  0.59360335  0.42041786  0.60022594  1
  Te  Te167  1  0.54585674  0.43312361  0.95006158  1
  Te  Te168  1  0.57112703  0.72794666  0.26207123  1
  Te  Te169  1  0.59502212  0.76061526  0.58258223  1
  Te  Te170  1  0.55388384  0.78370302  0.94120565  1
  Te  Te171  1  0.91103162  0.09572942  0.24063766  1
  Te  Te172  1  0.91239745  0.06336484  0.59439509  1
  Te  Te173  1  0.90043770  0.08107593  0.92846495  1
  Te  Te174  1  0.92751051  0.44603126  0.22273040  1
  Te  Te175  1  0.92536420  0.41180763  0.60161094  1
  Te  Te176  1  0.91112059  0.39273467  0.86278596  1
  Te  Te177  1  0.92133346  0.75109398  0.23728811  1
  Te  Te178  1  0.94204795  0.77092842  0.55998033  1
  Te  Te179  1  0.93232600  0.74450184  0.89912407  1
