# generated using pymatgen
data_In2Te3
_symmetry_space_group_name_H-M   'P 1'
_cell_length_a   18.80026670
_cell_length_b   18.79866915
_cell_length_c   18.79535326
_cell_angle_alpha   89.93178580
_cell_angle_beta   89.96089993
_cell_angle_gamma   90.06266496
_symmetry_Int_Tables_number   1
_chemical_formula_structural   In2Te3
_chemical_formula_sum   'In72 Te108'
_cell_volume   6642.64339547
_cell_formula_units_Z   36
loop_
 _symmetry_equiv_pos_site_id
 _symmetry_equiv_pos_as_xyz
  1  'x, y, z'
loop_
 _atom_site_type_symbol
 _atom_site_label
 _atom_site_symmetry_multiplicity
 _atom_site_fract_x
 _atom_site_fract_y
 _atom_site_fract_z
 _atom_site_occupancy
  In  In0  1  0.68608115  0.16492064  0.17861355  1
  In  In1  1  0.34742585  0.50698919  0.17838775  1
  In  In2  1  0.67968780  0.34632241  0.01231446  1
  In  In3  1  0.51391768  0.34816285  0.20996277  1
  In  In4  1  -0.01299123  0.01405761  0.31965107  1
  In  In5  1  0.65052884  0.69098854  0.65592110  1
  In  In6  1  0.38176350  0.34625482  0.33981686  1
  In  In7  1  0.36108146  0.16142287  0.49539232  1
  In  In8  1  0.85049052  0.31802481  0.49097766  1
  In  In9  1  0.33180303  -0.01325326  -0.00796018  1
  In  In10  1  0.65713708  0.84739917  0.17285490  1
  In  In11  1  0.66144862  0.81590811  0.82859707  1
  In  In12  1  0.66587575  0.16055302  0.82839059  1
  In  In13  1  0.50398687  0.16807217  0.32895459  1
  In  In14  1  0.31296420  0.34758320  0.65201703  1
  In  In15  1  0.16861640  0.82477324  -0.01249703  1
  In  In16  1  0.81793909  0.68187310  0.49610785  1
  In  In17  1  0.81309257  0.84298201  0.65031236  1
  In  In18  1  0.49067751  0.51235956  0.64903668  1
  In  In19  1  0.00139521  0.83043455  0.15268753  1
  In  In20  1  0.63945345  0.64323098  0.04044482  1
  In  In21  1  0.34571125  0.52071700  0.84912818  1
  In  In22  1  0.50924661  -0.02226211  0.82967462  1
  In  In23  1  0.35561100  0.69522690  0.03992249  1
  In  In24  1  0.17272128  -0.02393172  0.47424118  1
  In  In25  1  0.14288063  0.65813936  0.17608559  1
  In  In26  1  0.14061982  0.50117374  -0.00073557  1
  In  In27  1  0.01382629  0.17063958  0.85772083  1
  In  In28  1  0.00620404  -0.02988298  0.62757621  1
  In  In29  1  0.34877177  0.66491202  0.34151766  1
  In  In30  1  0.11935041  0.35804576  0.84035548  1
  In  In31  1  0.17051453  0.15756537  0.32450201  1
  In  In32  1  0.15989674  0.00373890  0.17187542  1
  In  In33  1  -0.03815505  0.34777451  0.33833063  1
  In  In34  1  0.83568112  0.49362925  -0.00510520  1
  In  In35  1  0.01253133  0.50755403  0.50835901  1
  In  In36  1  0.81784703  0.17215359  0.01390094  1
  In  In37  1  0.33064317  0.70247506  0.65253914  1
  In  In38  1  0.32523791  0.14841666  0.84300382  1
  In  In39  1  0.68577431  0.49174766  0.84082946  1
  In  In40  1  0.34433059  -0.03229917  0.64889635  1
  In  In41  1  0.17566529  -0.01522838  0.82425167  1
  In  In42  1  -0.03276377  0.19917475  0.48112500  1
  In  In43  1  -0.02312270  0.16459377  0.16722122  1
  In  In44  1  0.31344145  0.33326754  0.03028897  1
  In  In45  1  0.01819231  0.66856120  0.32365960  1
  In  In46  1  0.52112340  0.16671237  0.66414307  1
  In  In47  1  0.19851319  0.82636793  0.34453739  1
  In  In48  1  0.84995019  0.83357877  -0.00772528  1
  In  In49  1  0.51202606  -0.00985919  0.49774531  1
  In  In50  1  0.82621858  0.64236852  0.16021919  1
  In  In51  1  0.48353920  0.66578093  0.83642354  1
  In  In52  1  0.16466068  0.16292952  0.67105892  1
  In  In53  1  0.82800622  0.01512847  0.83243854  1
  In  In54  1  0.82197324  0.17058291  0.66945986  1
  In  In55  1  0.50014878  0.15733866  0.00654709  1
  In  In56  1  0.80259174  0.01375553  0.47861515  1
  In  In57  1  0.02584299  0.83992959  0.49304048  1
  In  In58  1  0.65753019  0.53064691  0.48850307  1
  In  In59  1  0.81563655  0.50517560  0.32033424  1
  In  In60  1  0.00322925  0.82332619  0.84268813  1
  In  In61  1  0.15435739  0.33862336  0.15466547  1
  In  In62  1  0.18832943  0.34500853  0.51463717  1
  In  In63  1  0.51691433  0.83359766  0.32933294  1
  In  In64  1  -0.02397008  0.64172641  0.69116586  1
  In  In65  1  0.49569643  -0.01071450  0.16491185  1
  In  In66  1  0.16631707  0.65305261  0.84223840  1
  In  In67  1  0.52379382  0.33660534  0.83965495  1
  In  In68  1  0.80095098  0.82606682  0.34006332  1
  In  In69  1  0.52174612  0.35925620  0.47647437  1
  In  In70  1  0.17452507  0.52203119  0.32379802  1
  In  In71  1  -0.01040369  0.35768791  0.67585548  1
  Te  Te72  1  0.06989895  0.08209355  0.08713454  1
  Te  Te73  1  0.07325150  0.08813119  0.43048865  1
  Te  Te74  1  0.06953984  0.06901757  0.74528733  1
  Te  Te75  1  0.05292554  0.40087031  0.06649303  1
  Te  Te76  1  0.08317810  0.40901449  0.41422632  1
  Te  Te77  1  0.10625355  0.43844719  0.71894578  1
  Te  Te78  1  0.07196173  0.73111043  0.06124924  1
  Te  Te79  1  0.11023538  0.72903407  0.42672184  1
  Te  Te80  1  0.08753455  0.74336085  0.74636488  1
  Te  Te81  1  0.39839244  0.08302089  0.09097266  1
  Te  Te82  1  0.41664540  0.06142824  0.39746111  1
  Te  Te83  1  0.41580395  0.08213042  0.73935266  1
  Te  Te84  1  0.42754547  0.40952333  0.09269705  1
  Te  Te85  1  0.41704721  0.45907713  0.43065569  1
  Te  Te86  1  0.42182421  0.41688376  0.75551200  1
  Te  Te87  1  0.45181705  0.78765340  0.10499342  1
  Te  Te88  1  0.44475432  0.74270077  0.42918674  1
  Te  Te89  1  0.42530738  0.76851822  0.74739707  1
  Te  Te90  1  0.72128657  0.07357327  0.06835403  1
  Te  Te91  1  0.75277111  0.12179229  0.39059993  1
  Te  Te92  1  0.72831520  0.06384607  0.72746234  1
  Te  Te93  1  0.75671106  0.43043217  0.10819086  1
  Te  Te94  1  0.75099850  0.42355885  0.42979104  1
  Te  Te95  1  0.79126199  0.41709199  0.76886721  1
  Te  Te96  1  0.74984373  0.75443304  0.08359158  1
  Te  Te97  1  0.70659522  0.74726170  0.42403060  1
  Te  Te98  1  0.76522790  0.73610145  0.74907748  1
  Te  Te99  1  0.07056815  0.25629341  0.26521082  1
  Te  Te100  1  0.07768897  0.25399648  0.58486513  1
  Te  Te101  1  0.08560418  0.26381947  0.94831470  1
  Te  Te102  1  0.05242989  0.54904034  0.23531465  1
  Te  Te103  1  0.08345575  0.60074777  0.59809908  1
  Te  Te104  1  0.05709231  0.57013094  0.89833184  1
  Te  Te105  1  0.08028100  0.89976512  0.27038523  1
  Te  Te106  1  0.13293240  0.88594651  0.59979980  1
  Te  Te107  1  0.07468094  0.92810700  0.92668543  1
  Te  Te108  1  0.40465224  0.23801273  0.23707785  1
  Te  Te109  1  0.42667954  0.27037030  0.58099424  1
  Te  Te110  1  0.41782250  0.25170891  0.91511579  1
  Te  Te111  1  0.44123116  0.60720591  0.23523136  1
  Te  Te112  1  0.43995256  0.62912493  0.57013279  1
  Te  Te113  1  0.42826186  0.58652743  0.95869538  1
  Te  Te114  1  0.41117893  0.88260951  0.23126924  1
  Te  Te115  1  0.46026356  0.88909729  0.59690352  1
  Te  Te116  1  0.41390957  0.89688852  0.90832370  1
  Te  Te117  1  0.73278126  0.25625962  0.28673321  1
  Te  Te118  1  0.74615124  0.25054751  0.57226382  1
  Te  Te119  1  0.75036238  0.25999078  0.90748425  1
  Te  Te120  1  0.73130704  0.61985711  0.27343452  1
  Te  Te121  1  0.74990328  0.58936935  0.59704338  1
  Te  Te122  1  0.74063349  0.59982258  0.93281178  1
  Te  Te123  1  0.76095869  0.93014951  0.24273513  1
  Te  Te124  1  0.72349386  0.91212643  0.55452375  1
  Te  Te125  1  0.74640219  0.91359212  0.91191031  1
  Te  Te126  1  0.23848585  0.22905194  0.10114496  1
  Te  Te127  1  0.26301627  0.25044860  0.41707113  1
  Te  Te128  1  0.24797311  0.25387625  0.76105756  1
  Te  Te129  1  0.24406198  0.57962019  0.08222712  1
  Te  Te130  1  0.25643858  0.58401359  0.42884798  1
  Te  Te131  1  0.26520237  0.59113095  0.74205208  1
  Te  Te132  1  0.24675699  0.90377361  0.09066379  1
  Te  Te133  1  0.29429689  0.89191612  0.44093248  1
  Te  Te134  1  0.27627220  0.89752515  0.76078827  1
  Te  Te135  1  0.58151714  0.25406833  0.09279147  1
  Te  Te136  1  0.60091871  0.26337323  0.39359019  1
  Te  Te137  1  0.61066483  0.26991835  0.73503113  1
  Te  Te138  1  0.58171764  0.55165746  0.14203284  1
  Te  Te139  1  0.54637306  0.54394541  0.38983421  1
  Te  Te140  1  0.58497230  0.58246729  0.75389620  1
  Te  Te141  1  0.56008758  0.89597809  0.06430939  1
  Te  Te142  1  0.60954513  0.92329328  0.40590122  1
  Te  Te143  1  0.59905578  0.91151545  0.73302345  1
  Te  Te144  1  0.89947376  0.26726123  0.09320959  1
  Te  Te145  1  0.87449910  0.21317387  0.35401272  1
  Te  Te146  1  0.92462913  0.24324441  0.75579658  1
  Te  Te147  1  0.92740523  0.58454748  0.07100498  1
  Te  Te148  1  0.91570088  0.59162066  0.41529858  1
  Te  Te149  1  0.90493071  0.53998438  0.77582697  1
  Te  Te150  1  0.91584215  0.92990235  0.08544592  1
  Te  Te151  1  0.91231715  0.91394073  0.41951599  1
  Te  Te152  1  0.91396825  0.91672757  0.74770589  1
  Te  Te153  1  0.25810242  0.05282302  0.27145519  1
  Te  Te154  1  0.25453221  0.08084647  0.57873877  1
  Te  Te155  1  0.22415846  0.08316717  0.93262613  1
  Te  Te156  1  0.25481369  0.40958481  0.25812046  1
  Te  Te157  1  0.26515224  0.46043281  0.56874709  1
  Te  Te158  1  0.25223412  0.41728102  0.91475276  1
  Te  Te159  1  0.25779803  0.73737266  0.23677277  1
  Te  Te160  1  0.25588392  0.78814109  0.55545335  1
  Te  Te161  1  0.27170083  0.73751885  0.91882245  1
  Te  Te162  1  0.59063760  0.06792902  0.25367653  1
  Te  Te163  1  0.59480699  0.10026497  0.55660804  1
  Te  Te164  1  0.59142249  0.06743632  0.92433763  1
  Te  Te165  1  0.59942297  0.45648460  0.26586789  1
  Te  Te166  1  0.60022830  0.42496722  0.59089276  1
  Te  Te167  1  0.57956782  0.43704265  0.93843057  1
  Te  Te168  1  0.59641502  0.73359365  0.24827500  1
  Te  Te169  1  0.55285022  0.74222835  0.55597470  1
  Te  Te170  1  0.58034096  0.73712602  0.93119196  1
  Te  Te171  1  0.88687057  0.05177795  0.21542355  1
  Te  Te172  1  0.91156741  0.08084241  0.57668563  1
  Te  Te173  1  0.91657486  0.08285124  0.93540846  1
  Te  Te174  1  0.88461551  0.41045416  0.22669305  1
  Te  Te175  1  0.89955628  0.43401895  0.58009664  1
  Te  Te176  1  0.90488409  0.42179401  0.88077914  1
  Te  Te177  1  0.91228111  0.75328606  0.25357949  1
  Te  Te178  1  0.92675104  0.75452148  0.58189373  1
  Te  Te179  1  0.91415475  0.72869007  0.91091281  1
