# generated using pymatgen
data_In2Te3
_symmetry_space_group_name_H-M   'P 1'
_cell_length_a   18.93816825
_cell_length_b   18.98089659
_cell_length_c   18.95502892
_cell_angle_alpha   89.99075921
_cell_angle_beta   89.95601647
_cell_angle_gamma   90.03165190
_symmetry_Int_Tables_number   1
_chemical_formula_structural   In2Te3
_chemical_formula_sum   'In72 Te108'
_cell_volume   6813.63625945
_cell_formula_units_Z   36
loop_
 _symmetry_equiv_pos_site_id
 _symmetry_equiv_pos_as_xyz
  1  'x, y, z'
loop_
 _atom_site_type_symbol
 _atom_site_label
 _atom_site_symmetry_multiplicity
 _atom_site_fract_x
 _atom_site_fract_y
 _atom_site_fract_z
 _atom_site_occupancy
  In  In0  1  0.77981101  -0.02590476  0.52230592  1
  In  In1  1  0.49167957  0.68981007  0.47446980  1
  In  In2  1  -0.02803530  0.51112690  0.79633519  1
  In  In3  1  0.35261754  0.29349392  0.64155740  1
  In  In4  1  0.32788218  0.50250443  0.51625454  1
  In  In5  1  -0.00941941  0.83485663  0.82626273  1
  In  In6  1  0.84533536  0.15515881  0.30260141  1
  In  In7  1  -0.04268078  0.02833597  0.00282725  1
  In  In8  1  0.34901209  -0.00322604  0.31893885  1
  In  In9  1  0.49905670  0.69514931  0.80614390  1
  In  In10  1  -0.00948333  0.31523079  -0.01964359  1
  In  In11  1  -0.01470726  0.34322665  0.30854416  1
  In  In12  1  0.51618780  -0.00202167  0.51411014  1
  In  In13  1  0.35521571  0.48131277  0.83480207  1
  In  In14  1  0.19388952  0.68130647  0.86228761  1
  In  In15  1  0.80978154  0.67669095  0.50457250  1
  In  In16  1  0.33804200  0.84555419  0.17545378  1
  In  In17  1  -0.00276351  0.67347629  -0.03532317  1
  In  In18  1  0.81497965  -0.01901118  0.83022242  1
  In  In19  1  0.66689206  0.82463325  0.82359269  1
  In  In20  1  -0.00788236  0.65643692  0.35415939  1
  In  In21  1  0.19784237  0.34041642  0.82520685  1
  In  In22  1  0.82082961  0.50652407  -0.00584799  1
  In  In23  1  0.18087261  0.15879118  0.64351997  1
  In  In24  1  -0.04358919  0.48408381  0.18233706  1
  In  In25  1  0.16170117  0.49507401  0.33364054  1
  In  In26  1  -0.04311010  0.15773716  0.15259444  1
  In  In27  1  0.16172341  0.32016332  0.49625127  1
  In  In28  1  0.16524876  0.69578144  0.19334118  1
  In  In29  1  0.52680134  0.17236494  0.32505833  1
  In  In30  1  -0.00043235  -0.00941434  0.66760702  1
  In  In31  1  -0.00245534  0.83524887  0.14743168  1
  In  In32  1  0.65574185  -0.01187239  0.32469966  1
  In  In33  1  0.50089030  -0.01040088  0.83515688  1
  In  In34  1  0.84002984  0.82993320  0.33327665  1
  In  In35  1  0.53852003  0.33467028  0.79018491  1
  In  In36  1  0.84579517  0.36298225  0.51624887  1
  In  In37  1  0.20017774  0.84005478  0.34378055  1
  In  In38  1  0.20926563  0.01987559  0.86450747  1
  In  In39  1  0.68344850  0.33749398  0.37621945  1
  In  In40  1  0.01040088  0.18086596  0.80764763  1
  In  In41  1  -0.02187988  0.69050655  0.65497939  1
  In  In42  1  0.34167528  0.69065372  0.66934511  1
  In  In43  1  0.16810713  0.84294684  0.66976897  1
  In  In44  1  0.14952298  0.50952718  0.03129592  1
  In  In45  1  0.50545150  0.65797668  0.21691399  1
  In  In46  1  0.78690242  0.31985140  0.82279477  1
  In  In47  1  0.65441824  0.32610033  -0.01099387  1
  In  In48  1  0.17818794  0.83998838  -0.03998696  1
  In  In49  1  0.36893107  0.16128606  0.16399086  1
  In  In50  1  0.48353475  0.50891878  0.02090310  1
  In  In51  1  0.67655640  0.49750774  0.81782976  1
  In  In52  1  0.35312696  0.01937034  0.65596163  1
  In  In53  1  0.34394152  0.71324439  0.01077190  1
  In  In54  1  0.51104594  0.00245789  0.14335981  1
  In  In55  1  0.14035538  -0.00048134  0.15647688  1
  In  In56  1  0.15104060  0.66668238  0.52102868  1
  In  In57  1  0.83227200  0.34231977  0.17665657  1
  In  In58  1  0.50826984  0.16794703  -0.01732064  1
  In  In59  1  0.66189164  0.83521011  0.16123940  1
  In  In60  1  0.35584188  0.31731438  -0.00034834  1
  In  In61  1  0.63887195  0.67751725  0.00400707  1
  In  In62  1  0.51590458  0.47933529  0.37485068  1
  In  In63  1  0.14733571  0.51947217  0.67545433  1
  In  In64  1  0.81510633  0.15392904  0.68591987  1
  In  In65  1  0.77973779  0.66094500  0.21746861  1
  In  In66  1  0.64516868  0.67266997  0.66167323  1
  In  In67  1  -0.00232578  0.15974698  0.49624161  1
  In  In68  1  0.18417184  0.33135124  0.16672054  1
  In  In69  1  0.66103205  0.15044681  0.51061501  1
  In  In70  1  0.17561486  0.15935259  0.35096442  1
  In  In71  1  0.31869358  0.49915056  0.17736884  1
  Te  Te72  1  0.07456335  0.10132431  0.06744383  1
  Te  Te73  1  0.07313805  0.07015319  0.40801903  1
  Te  Te74  1  0.10049999  0.07355196  0.74882382  1
  Te  Te75  1  0.06198166  0.39353501  0.09180046  1
  Te  Te76  1  0.06807198  0.41242414  0.41736698  1
  Te  Te77  1  0.08066046  0.40860542  0.75631553  1
  Te  Te78  1  0.09585205  0.74980999  0.06149571  1
  Te  Te79  1  0.08841473  0.75466343  0.41371130  1
  Te  Te80  1  0.09537606  0.73576353  0.75519786  1
  Te  Te81  1  0.40459362  0.06193372  0.05044064  1
  Te  Te82  1  0.44042015  0.07935196  0.40734940  1
  Te  Te83  1  0.41830393  0.09073118  0.76605747  1
  Te  Te84  1  0.41748297  0.40486507  0.10832639  1
  Te  Te85  1  0.42284499  0.40495711  0.46279809  1
  Te  Te86  1  0.41707049  0.40816357  0.71973238  1
  Te  Te87  1  0.44530839  0.75620193  0.11152714  1
  Te  Te88  1  0.40362523  0.76053104  0.38297952  1
  Te  Te89  1  0.44340754  0.79196039  0.70873280  1
  Te  Te90  1  0.84661020  0.06614063  0.09981570  1
  Te  Te91  1  0.75267194  0.08119064  0.40690791  1
  Te  Te92  1  0.72156556  0.04894249  0.73464291  1
  Te  Te93  1  0.73838941  0.41728686  0.08152031  1
  Te  Te94  1  0.72309871  0.43849714  0.47900046  1
  Te  Te95  1  0.76757904  0.42857050  0.72256829  1
  Te  Te96  1  0.75349028  0.73373800  0.08830647  1
  Te  Te97  1  0.73449025  0.74325835  0.39160585  1
  Te  Te98  1  0.75296696  0.73251140  0.74490861  1
  Te  Te99  1  0.09271188  0.24897211  0.25599254  1
  Te  Te100  1  0.06914219  0.24935929  0.59528077  1
  Te  Te101  1  0.10418190  0.24795905  0.90655278  1
  Te  Te102  1  0.07844577  0.57464940  0.23577606  1
  Te  Te103  1  0.04251784  0.56870819  0.57290611  1
  Te  Te104  1  0.08544712  0.56715725  0.90043499  1
  Te  Te105  1  0.08613797  0.89623734  0.25397276  1
  Te  Te106  1  0.08153842  0.91241654  0.57561437  1
  Te  Te107  1  0.07313331  0.93370291  0.90682609  1
  Te  Te108  1  0.42206021  0.25460282  0.26173292  1
  Te  Te109  1  0.45918699  0.22293510  0.57091184  1
  Te  Te110  1  0.43814150  0.26415521  0.88773254  1
  Te  Te111  1  0.41479184  0.55428127  0.27937437  1
  Te  Te112  1  0.42363432  0.59834671  0.58341441  1
  Te  Te113  1  0.40311155  0.59508541  0.92574875  1
  Te  Te114  1  0.45336995  0.91133966  0.25044231  1
  Te  Te115  1  0.42393761  0.90680344  0.58779183  1
  Te  Te116  1  0.41269815  0.90498369  0.91716374  1
  Te  Te117  1  0.74000078  0.25292935  0.25667798  1
  Te  Te118  1  0.76893872  0.23925073  0.57014502  1
  Te  Te119  1  0.71574314  0.21999382  0.90431136  1
  Te  Te120  1  0.73762625  0.52820660  0.25970303  1
  Te  Te121  1  0.72520301  0.57753587  0.57909446  1
  Te  Te122  1  0.73514912  0.60049090  0.91266136  1
  Te  Te123  1  0.76192417  0.92053687  0.24090604  1
  Te  Te124  1  0.69105616  0.88509141  0.60178409  1
  Te  Te125  1  0.73048064  0.90934933  0.92837955  1
  Te  Te126  1  0.25535728  0.23359771  0.07681977  1
  Te  Te127  1  0.26605694  0.24109302  0.43134819  1
  Te  Te128  1  0.26722887  0.22946482  0.74869461  1
  Te  Te129  1  0.25834808  0.60936456  0.09122718  1
  Te  Te130  1  0.23924666  0.58639200  0.42548480  1
  Te  Te131  1  0.26443815  0.58211055  0.75437935  1
  Te  Te132  1  0.23980400  0.91173281  0.08129150  1
  Te  Te133  1  0.25997310  0.94523266  0.42562966  1
  Te  Te134  1  0.25748235  0.93563759  0.74860523  1
  Te  Te135  1  0.56929291  0.25418619  0.08438261  1
  Te  Te136  1  0.57215305  0.25939604  0.44994490  1
  Te  Te137  1  0.61212785  0.22364584  0.71983289  1
  Te  Te138  1  0.58338513  0.58113107  0.10740041  1
  Te  Te139  1  0.59186262  0.59389463  0.42592235  1
  Te  Te140  1  0.56204551  0.57309193  0.74852537  1
  Te  Te141  1  0.61552324  0.93512687  0.06200083  1
  Te  Te142  1  0.59318280  0.90499280  0.42791271  1
  Te  Te143  1  0.60701782  0.92713652  0.72952422  1
  Te  Te144  1  0.87857573  0.25415786  0.06002448  1
  Te  Te145  1  0.91161463  0.25125386  0.40710514  1
  Te  Te146  1  0.90581824  0.26512815  0.73898742  1
  Te  Te147  1  0.92903305  0.58216076  0.06714516  1
  Te  Te148  1  0.89225147  0.57872289  0.42515690  1
  Te  Te149  1  0.88789236  0.62318843  0.75234285  1
  Te  Te150  1  0.89539596  0.91039531  0.07336791  1
  Te  Te151  1  0.89192806  0.90913256  0.44798659  1
  Te  Te152  1  0.89479082  0.89901533  0.72829429  1
  Te  Te153  1  0.25110681  0.07783138  0.23035732  1
  Te  Te154  1  0.26065081  0.07593539  0.55327081  1
  Te  Te155  1  0.28497847  0.10341733  0.95479960  1
  Te  Te156  1  0.26257477  0.39715907  0.27820607  1
  Te  Te157  1  0.22975327  0.41640558  0.59834169  1
  Te  Te158  1  0.25463725  0.42546373  0.94398720  1
  Te  Te159  1  0.29211172  0.73200345  0.27707421  1
  Te  Te160  1  0.25523357  0.76472769  0.56994285  1
  Te  Te161  1  0.30786053  0.79425895  0.88356437  1
  Te  Te162  1  0.60550236  0.09037314  0.22353159  1
  Te  Te163  1  0.55647720  0.10961998  0.61666187  1
  Te  Te164  1  0.59714233  0.08895509  0.89535952  1
  Te  Te165  1  0.60922227  0.41715098  0.27429620  1
  Te  Te166  1  0.62484968  0.36124893  0.66734016  1
  Te  Te167  1  0.57153740  0.43799091  0.91852557  1
  Te  Te168  1  0.61939603  0.73980295  0.27000621  1
  Te  Te169  1  0.59133343  0.77114655  0.56130491  1
  Te  Te170  1  0.55388627  0.77244537  0.92184826  1
  Te  Te171  1  0.95392405  0.06267445  0.26661449  1
  Te  Te172  1  0.90257094  0.07441873  0.58306452  1
  Te  Te173  1  0.90453351  0.09846905  0.87856545  1
  Te  Te174  1  0.86340844  0.44450646  0.29879143  1
  Te  Te175  1  0.93438330  0.45603976  0.58365577  1
  Te  Te176  1  0.90419667  0.41594026  0.90336825  1
  Te  Te177  1  0.92116436  0.73045187  0.23555828  1
  Te  Te178  1  0.91178348  0.77504183  0.55458231  1
  Te  Te179  1  0.89754777  0.76730201  0.91669497  1
