# generated using pymatgen
data_In2Te3
_symmetry_space_group_name_H-M   'P 1'
_cell_length_a   18.76729995
_cell_length_b   18.75097281
_cell_length_c   18.76277238
_cell_angle_alpha   90.08422101
_cell_angle_beta   89.98275024
_cell_angle_gamma   89.94603715
_symmetry_Int_Tables_number   1
_chemical_formula_structural   In2Te3
_chemical_formula_sum   'In72 Te108'
_cell_volume   6602.70550955
_cell_formula_units_Z   36
loop_
 _symmetry_equiv_pos_site_id
 _symmetry_equiv_pos_as_xyz
  1  'x, y, z'
loop_
 _atom_site_type_symbol
 _atom_site_label
 _atom_site_symmetry_multiplicity
 _atom_site_fract_x
 _atom_site_fract_y
 _atom_site_fract_z
 _atom_site_occupancy
  In  In0  1  -0.02090879  0.68662347  0.64041530  1
  In  In1  1  0.32486709  0.64187151  0.29674152  1
  In  In2  1  0.18682003  0.33008161  0.84529603  1
  In  In3  1  -0.00673880  -0.01432585  0.68044310  1
  In  In4  1  0.52550907  0.00516534  0.49656371  1
  In  In5  1  0.49461050  0.35797205  0.17352978  1
  In  In6  1  0.35918600  -0.04277371  0.29723049  1
  In  In7  1  0.49241965  0.17019703  0.00835628  1
  In  In8  1  0.49650574  0.66946463  0.49097441  1
  In  In9  1  0.32699510  0.53114414  0.13720351  1
  In  In10  1  0.35263614  0.52794397  0.86764853  1
  In  In11  1  0.84100557  0.16882881  0.69906043  1
  In  In12  1  0.68297456  0.16311606  0.52725247  1
  In  In13  1  0.66603116  -0.01702473  0.33300579  1
  In  In14  1  0.63584532  0.35494251  0.33642198  1
  In  In15  1  0.66228410  -0.01571402  -0.00032957  1
  In  In16  1  0.52397623  0.16219898  0.68591959  1
  In  In17  1  0.32712007  0.81716057  0.49647254  1
  In  In18  1  0.16802713  0.81705119  0.32326964  1
  In  In19  1  0.82606469  0.32712420  0.51884847  1
  In  In20  1  0.01347275  0.33287247  0.29457128  1
  In  In21  1  0.66966236  0.64579642  -0.02162500  1
  In  In22  1  0.67053371  0.52942903  0.51571164  1
  In  In23  1  0.02126481  0.65031444  0.30521961  1
  In  In24  1  0.17430326  0.67713091  0.85044450  1
  In  In25  1  0.15189514  0.51648909  0.68339005  1
  In  In26  1  0.32136346  0.17706771  0.49393068  1
  In  In27  1  0.14030872  0.00421323  0.49354178  1
  In  In28  1  0.83297762  0.66022870  0.14956759  1
  In  In29  1  -0.01244058  0.50262473  0.48884628  1
  In  In30  1  0.50385727  0.36582775  0.52958178  1
  In  In31  1  0.82479027  0.52768416  0.32088613  1
  In  In32  1  0.01455046  0.14689541  0.49306535  1
  In  In33  1  0.67407147  0.14774909  0.15881712  1
  In  In34  1  -0.02366755  -0.01349976  0.35746510  1
  In  In35  1  -0.01173699  0.49102908  0.84050172  1
  In  In36  1  0.00468004  0.82819107  0.13703819  1
  In  In37  1  0.34171966  0.81511186  0.84021330  1
  In  In38  1  0.53168709  0.53262650  0.69387844  1
  In  In39  1  0.50729650  0.81829618  0.69405626  1
  In  In40  1  0.17187536  -0.00356381  0.15445232  1
  In  In41  1  0.67813358  0.17098185  0.84193129  1
  In  In42  1  0.02156943  0.14829240  0.13666421  1
  In  In43  1  0.16386460  0.35393770  0.47630837  1
  In  In44  1  0.48670858  0.50562053  0.30596248  1
  In  In45  1  0.32781216  -0.01845914  -0.00191947  1
  In  In46  1  0.33145274  0.53060251  0.47682092  1
  In  In47  1  0.34933756  0.36101691  0.67653135  1
  In  In48  1  0.02120916  0.35577849  0.01634138  1
  In  In49  1  0.82079878  0.83675847  0.34403880  1
  In  In50  1  -0.02225815  0.29596335  0.67326671  1
  In  In51  1  0.33082782  -0.02380829  0.67792792  1
  In  In52  1  0.81970883  -0.01365182  0.14900088  1
  In  In53  1  0.13836633  0.15115410  0.69006016  1
  In  In54  1  0.66743550  0.36841364  -0.02226136  1
  In  In55  1  0.50653146  0.16032962  0.33026737  1
  In  In56  1  0.82177808  -0.03079676  0.50705728  1
  In  In57  1  0.18980715  0.82001815  0.67595413  1
  In  In58  1  0.67490478  0.81398436  0.82683951  1
  In  In59  1  0.48472640  0.81956312  0.01401684  1
  In  In60  1  0.32591254  0.32786342  0.01497885  1
  In  In61  1  -0.00057578  0.66161507  0.00144226  1
  In  In62  1  0.82851582  0.82094147  0.00725878  1
  In  In63  1  0.85321808  0.18358575  0.32483831  1
  In  In64  1  0.31846585  0.16013803  0.13505012  1
  In  In65  1  -0.03257713  0.15484297  0.85641880  1
  In  In66  1  0.79908956  0.49962437  0.70178032  1
  In  In67  1  0.81900083  0.34784364  0.14666112  1
  In  In68  1  0.31003522  0.35981286  0.29933655  1
  In  In69  1  0.00527136  0.84993413  0.86228425  1
  In  In70  1  0.68300168  0.83825720  0.50477798  1
  In  In71  1  0.33901316  0.16210470  0.85290512  1
  Te  Te72  1  0.09517583  0.05882454  0.03709743  1
  Te  Te73  1  0.09180163  0.09042190  0.37630552  1
  Te  Te74  1  0.07401528  0.05969355  0.78885092  1
  Te  Te75  1  0.08475799  0.44994678  0.11422901  1
  Te  Te76  1  0.08223622  0.44128893  0.38267207  1
  Te  Te77  1  0.08145176  0.39680913  0.74677034  1
  Te  Te78  1  0.10820838  0.73322587  0.08125611  1
  Te  Te79  1  0.08685741  0.73182794  0.41185865  1
  Te  Te80  1  0.07588059  0.74568190  0.75470693  1
  Te  Te81  1  0.42462633  0.06133575  0.09047671  1
  Te  Te82  1  0.41128900  0.07279804  0.41582770  1
  Te  Te83  1  0.41913012  0.07375450  0.75662285  1
  Te  Te84  1  0.42559266  0.43528946  0.06373777  1
  Te  Te85  1  0.41515317  0.40594754  0.40928806  1
  Te  Te86  1  0.43673042  0.43570252  0.77343452  1
  Te  Te87  1  0.40173026  0.74413925  0.11461344  1
  Te  Te88  1  0.40602753  0.73967741  0.39147209  1
  Te  Te89  1  0.41299744  0.72060862  0.75052781  1
  Te  Te90  1  0.77018922  0.09626347  0.05125682  1
  Te  Te91  1  0.75891352  0.08411948  0.41372046  1
  Te  Te92  1  0.75437306  0.06978001  0.76292115  1
  Te  Te93  1  0.74318012  0.45303567  0.07514393  1
  Te  Te94  1  0.75174732  0.41916704  0.42139313  1
  Te  Te95  1  0.71778943  0.42692415  0.81104228  1
  Te  Te96  1  0.72105248  0.74604472  0.08331967  1
  Te  Te97  1  0.73679552  0.73630398  0.41097273  1
  Te  Te98  1  0.73777445  0.71438047  0.73269136  1
  Te  Te99  1  0.10409148  0.23924600  0.22326578  1
  Te  Te100  1  0.09883547  0.25391176  0.57556098  1
  Te  Te101  1  0.07712960  0.25216622  0.91333606  1
  Te  Te102  1  0.09208312  0.58841964  0.18995592  1
  Te  Te103  1  0.08250462  0.59274864  0.57234669  1
  Te  Te104  1  0.09277465  0.56800201  0.92049048  1
  Te  Te105  1  0.07152698  0.91677514  0.24994173  1
  Te  Te106  1  0.08729443  0.90181025  0.59268150  1
  Te  Te107  1  0.09113488  0.91943106  0.95899698  1
  Te  Te108  1  0.41307053  0.24809407  0.24460067  1
  Te  Te109  1  0.42643602  0.23935819  0.58677080  1
  Te  Te110  1  0.42729382  0.27063590  0.91258192  1
  Te  Te111  1  0.45287281  0.61473134  0.20325359  1
  Te  Te112  1  0.42385651  0.57542496  0.58845812  1
  Te  Te113  1  0.44794463  0.60330356  0.95843781  1
  Te  Te114  1  0.44948988  0.86410121  0.21135167  1
  Te  Te115  1  0.42476784  0.91034768  0.57570761  1
  Te  Te116  1  0.43263395  0.91863525  0.90650545  1
  Te  Te117  1  0.73512868  0.25841813  0.25493763  1
  Te  Te118  1  0.74051757  0.26370616  0.62659226  1
  Te  Te119  1  0.75107855  0.25066742  0.94531656  1
  Te  Te120  1  0.72997587  0.61248226  0.24634910  1
  Te  Te121  1  0.76636903  0.60598840  0.59966949  1
  Te  Te122  1  0.74927907  0.56883469  0.87323787  1
  Te  Te123  1  0.73424877  0.89079232  0.22956947  1
  Te  Te124  1  0.76440758  0.89085340  0.62121484  1
  Te  Te125  1  0.76077583  0.91477033  0.90654600  1
  Te  Te126  1  0.21616709  0.25420221  0.08361941  1
  Te  Te127  1  0.23938756  0.25186014  0.39010422  1
  Te  Te128  1  0.25910039  0.24408110  0.73831813  1
  Te  Te129  1  0.22866911  0.62562701  0.07351648  1
  Te  Te130  1  0.22532215  0.58514757  0.39181128  1
  Te  Te131  1  0.26175686  0.58906504  0.75629833  1
  Te  Te132  1  0.25327638  0.89081183  0.08973656  1
  Te  Te133  1  0.24864154  0.92330876  0.41472400  1
  Te  Te134  1  0.23802452  0.91792559  0.78303143  1
  Te  Te135  1  0.58583848  0.25606742  0.09435195  1
  Te  Te136  1  0.58495624  0.24234686  0.43521123  1
  Te  Te137  1  0.58911260  0.26488907  0.76704549  1
  Te  Te138  1  0.55805120  0.58642822  0.05924326  1
  Te  Te139  1  0.58395665  0.58122550  0.40160990  1
  Te  Te140  1  0.62820805  0.61736028  0.77651338  1
  Te  Te141  1  0.58043105  0.90510120  0.09394962  1
  Te  Te142  1  0.56288415  0.88696425  0.40033965  1
  Te  Te143  1  0.58691093  0.91848279  0.76518099  1
  Te  Te144  1  0.92289607  0.25379372  0.08406290  1
  Te  Te145  1  0.93650007  0.27164534  0.42654131  1
  Te  Te146  1  0.88978254  0.27762335  0.79487652  1
  Te  Te147  1  0.89937940  0.56357949  0.05644337  1
  Te  Te148  1  0.91053677  0.61160137  0.41477632  1
  Te  Te149  1  0.92114600  0.58707778  0.74436620  1
  Te  Te150  1  0.93026842  0.93452008  0.05290631  1
  Te  Te151  1  0.93455747  0.87171365  0.45104478  1
  Te  Te152  1  0.90828487  0.89574865  0.76032391  1
  Te  Te153  1  0.26639700  0.07258906  0.24887839  1
  Te  Te154  1  0.24431030  0.07637631  0.58859554  1
  Te  Te155  1  0.24305529  0.09233598  0.93949281  1
  Te  Te156  1  0.22684763  0.43425538  0.20259342  1
  Te  Te157  1  0.25056287  0.43026125  0.57877316  1
  Te  Te158  1  0.24804763  0.43573578  0.93486340  1
  Te  Te159  1  0.26261139  0.75971496  0.22262123  1
  Te  Te160  1  0.25638937  0.72393325  0.58584434  1
  Te  Te161  1  0.27291806  0.73386756  0.94765916  1
  Te  Te162  1  0.57428328  0.06074449  0.23623977  1
  Te  Te163  1  0.61085083  0.05669629  0.61075897  1
  Te  Te164  1  0.57480712  0.07963593  0.91833429  1
  Te  Te165  1  0.60680937  0.44974014  0.22224927  1
  Te  Te166  1  0.61248403  0.42658399  0.61424777  1
  Te  Te167  1  0.58893733  0.45925638  0.89006850  1
  Te  Te168  1  0.55919812  0.78839176  0.28125243  1
  Te  Te169  1  0.58750757  0.74531476  0.58572138  1
  Te  Te170  1  0.56528923  0.74081589  0.90976071  1
  Te  Te171  1  0.91616356  0.07320356  0.23523139  1
  Te  Te172  1  0.90922230  0.08193424  0.58137262  1
  Te  Te173  1  0.89621717  0.06187110  0.94373861  1
  Te  Te174  1  0.91088344  0.43168671  0.23712694  1
  Te  Te175  1  0.91269166  0.42601820  0.60064645  1
  Te  Te176  1  0.90746239  0.42698286  0.94719865  1
  Te  Te177  1  0.91750259  0.75791449  0.24205360  1
  Te  Te178  1  0.88695406  0.78685486  0.58074201  1
  Te  Te179  1  0.90576912  0.73661315  0.90701581  1
