# generated using pymatgen
data_In2Te3
_symmetry_space_group_name_H-M   'P 1'
_cell_length_a   18.78629165
_cell_length_b   18.78576367
_cell_length_c   18.78419412
_cell_angle_alpha   90.01140353
_cell_angle_beta   90.04835231
_cell_angle_gamma   90.05059843
_symmetry_Int_Tables_number   1
_chemical_formula_structural   In2Te3
_chemical_formula_sum   'In72 Te108'
_cell_volume   6629.21569155
_cell_formula_units_Z   36
loop_
 _symmetry_equiv_pos_site_id
 _symmetry_equiv_pos_as_xyz
  1  'x, y, z'
loop_
 _atom_site_type_symbol
 _atom_site_label
 _atom_site_symmetry_multiplicity
 _atom_site_fract_x
 _atom_site_fract_y
 _atom_site_fract_z
 _atom_site_occupancy
  In  In0  1  0.50570954  0.00668795  0.82363926  1
  In  In1  1  0.66792368  0.33164900  0.31715050  1
  In  In2  1  0.65073204  0.31676751  0.66959871  1
  In  In3  1  0.33956449  0.83612118  0.49878484  1
  In  In4  1  0.68018352  0.14466530  0.51467609  1
  In  In5  1  0.15620462  0.33453676  0.83218134  1
  In  In6  1  0.32339857  0.01671689  -0.00137821  1
  In  In7  1  0.51267176  0.65870441  0.83078519  1
  In  In8  1  0.51190470  -0.02171298  0.15937201  1
  In  In9  1  0.35278674  0.66695945  0.35474073  1
  In  In10  1  0.33617366  0.82906477  0.83110714  1
  In  In11  1  -0.00452656  0.85652706  0.82706007  1
  In  In12  1  0.34186867  0.02181272  0.67260597  1
  In  In13  1  0.00362053  0.32501889  0.34511270  1
  In  In14  1  0.18361065  0.01981824  0.18159142  1
  In  In15  1  0.16832591  0.16767748  -0.02033874  1
  In  In16  1  0.67543636  0.49037579  0.16207841  1
  In  In17  1  0.17491200  0.47660743  0.01058462  1
  In  In18  1  0.00019919  0.65351247  0.66380089  1
  In  In19  1  0.62613124  0.65336689  0.35349510  1
  In  In20  1  0.64688172  0.00441805  0.35417458  1
  In  In21  1  0.35675192  0.66077535  0.00317244  1
  In  In22  1  0.49644751  0.33201764  0.51198254  1
  In  In23  1  0.48242786  0.16633549  0.34206998  1
  In  In24  1  0.33915921  0.17350423  0.16981064  1
  In  In25  1  -0.01651122  -0.01075599  -0.01678012  1
  In  In26  1  0.80871593  0.02503030  0.17858746  1
  In  In27  1  0.13003971  0.84123786  -0.01065239  1
  In  In28  1  0.50356779  0.01179367  0.51251649  1
  In  In29  1  0.83357619  0.84884007  0.34981688  1
  In  In30  1  0.01480523  0.00221312  0.35827709  1
  In  In31  1  0.81992839  0.66542438  0.79263614  1
  In  In32  1  0.83434767  -0.00431092  0.82297762  1
  In  In33  1  0.15048134  0.16454185  0.69080844  1
  In  In34  1  0.64999823  0.49493914  0.83685797  1
  In  In35  1  0.01986851  0.66849048  0.32847883  1
  In  In36  1  0.00810276  0.18743873  0.16097781  1
  In  In37  1  0.85951858  0.31299960  0.82237029  1
  In  In38  1  -0.00721327  0.83488082  0.15617504  1
  In  In39  1  0.19740577  0.64547778  0.81349528  1
  In  In40  1  0.83528030  0.18906605  0.34062459  1
  In  In41  1  0.35204294  0.64147032  0.66339112  1
  In  In42  1  0.83571139  0.16049726  0.00171001  1
  In  In43  1  0.84113141  0.46617570  -0.00477751  1
  In  In44  1  0.02330003  0.48325901  0.50815491  1
  In  In45  1  0.00938764  0.32732275  0.67310424  1
  In  In46  1  0.34275175  0.84976394  0.19212931  1
  In  In47  1  0.17814954  0.00029898  0.50235867  1
  In  In48  1  0.16320034  0.65848230  0.48915024  1
  In  In49  1  0.63710444  0.18224840  0.83867533  1
  In  In50  1  0.01638537  0.48169170  0.18111928  1
  In  In51  1  0.31916878  0.31965250  0.33739914  1
  In  In52  1  0.67073324  0.82646040  0.82901138  1
  In  In53  1  0.82298563  0.32874815  0.47383079  1
  In  In54  1  0.34513195  0.30131385  -0.00346646  1
  In  In55  1  0.33242871  0.48118910  0.51685517  1
  In  In56  1  0.17171956  0.81290123  0.34763618  1
  In  In57  1  0.63772913  0.20123052  0.13688312  1
  In  In58  1  0.32070628  0.49425158  0.18675069  1
  In  In59  1  0.49390999  0.49251688  -0.00669468  1
  In  In60  1  0.83711196  0.68385868  0.51486386  1
  In  In61  1  0.49606889  0.67905468  0.17696162  1
  In  In62  1  0.82656748  0.52017544  0.66856663  1
  In  In63  1  0.64989641  0.70212097  0.64541536  1
  In  In64  1  0.79862786  0.81994031  -0.01192032  1
  In  In65  1  0.67574049  0.68426426  -0.01096082  1
  In  In66  1  0.34228695  0.33893007  0.66688049  1
  In  In67  1  0.81336868  0.67673784  0.13454491  1
  In  In68  1  0.83194725  0.49606083  0.34091201  1
  In  In69  1  0.15219682  0.84690825  0.65702421  1
  In  In70  1  0.01093953  0.66279343  -0.00827662  1
  In  In71  1  0.68399209  -0.00449616  0.65615132  1
  Te  Te72  1  0.07900071  0.06767011  0.08089919  1
  Te  Te73  1  0.10328765  0.10487502  0.42022456  1
  Te  Te74  1  0.07975485  0.05810849  0.76503922  1
  Te  Te75  1  0.07134750  0.39384895  0.07615978  1
  Te  Te76  1  0.10533606  0.41397644  0.40826606  1
  Te  Te77  1  0.08997147  0.43083294  0.74037214  1
  Te  Te78  1  0.09338362  0.73627636  0.09842609  1
  Te  Te79  1  0.06286654  0.76376901  0.44230289  1
  Te  Te80  1  0.09085000  0.74707293  0.76572263  1
  Te  Te81  1  0.42915664  0.08584070  0.08408399  1
  Te  Te82  1  0.40160866  0.09136139  0.43967618  1
  Te  Te83  1  0.40633574  0.10842904  0.77548123  1
  Te  Te84  1  0.40465853  0.41378763  0.08713926  1
  Te  Te85  1  0.41819926  0.41251985  0.40854992  1
  Te  Te86  1  0.40312943  0.45369480  0.73868179  1
  Te  Te87  1  0.42156781  0.77322455  0.08210651  1
  Te  Te88  1  0.44690658  0.75986701  0.42576190  1
  Te  Te89  1  0.42923552  0.75042346  0.73908949  1
  Te  Te90  1  0.72032321  0.08681904  0.07248878  1
  Te  Te91  1  0.77209932  0.07241258  0.41485604  1
  Te  Te92  1  0.74252510  0.10228479  0.75950224  1
  Te  Te93  1  0.73721384  0.39365746  0.06932612  1
  Te  Te94  1  0.72166355  0.43095046  0.42280532  1
  Te  Te95  1  0.75252997  0.41450025  0.75431939  1
  Te  Te96  1  0.70072301  0.78311575  0.10934716  1
  Te  Te97  1  0.74408963  0.74079309  0.40945422  1
  Te  Te98  1  0.76540512  0.78220828  0.71596682  1
  Te  Te99  1  0.10051663  0.24681355  0.25955631  1
  Te  Te100  1  0.10916460  0.26191009  0.58271255  1
  Te  Te101  1  0.06499565  0.25053795  0.91517600  1
  Te  Te102  1  0.10495922  0.57393613  0.25549889  1
  Te  Te103  1  0.11057492  0.56897987  0.60143995  1
  Te  Te104  1  0.10270694  0.57237972  0.91100641  1
  Te  Te105  1  0.08825958  0.90935300  0.25042837  1
  Te  Te106  1  0.07009637  0.95438301  0.59475772  1
  Te  Te107  1  0.10455796  0.95791417  0.88486351  1
  Te  Te108  1  0.43356893  0.26918740  0.24197561  1
  Te  Te109  1  0.40072170  0.23806075  0.57195949  1
  Te  Te110  1  0.45531448  0.24073998  0.91620215  1
  Te  Te111  1  0.42966677  0.57162167  0.26234263  1
  Te  Te112  1  0.44172394  0.58237256  0.55835652  1
  Te  Te113  1  0.40581638  0.56817612  0.89218521  1
  Te  Te114  1  0.43225617  0.93266035  0.27454975  1
  Te  Te115  1  0.42147642  0.91417192  0.60092260  1
  Te  Te116  1  0.41563959  0.92105425  0.92157201  1
  Te  Te117  1  0.75807733  0.24963038  0.22541814  1
  Te  Te118  1  0.76389172  0.24854185  0.58998727  1
  Te  Te119  1  0.75176147  0.25458223  0.91406069  1
  Te  Te120  1  0.75022846  0.59064435  0.25109305  1
  Te  Te121  1  0.73193832  0.59019419  0.57255001  1
  Te  Te122  1  0.76172508  0.58260305  0.91255107  1
  Te  Te123  1  0.73351764  0.91950424  0.25862338  1
  Te  Te124  1  0.75886153  0.92123827  0.54429992  1
  Te  Te125  1  0.72983366  0.93683266  0.91804708  1
  Te  Te126  1  0.23467267  0.25051477  0.09008510  1
  Te  Te127  1  0.22895750  0.20957318  0.38506121  1
  Te  Te128  1  0.25986270  0.24851604  0.76102838  1
  Te  Te129  1  0.25248607  0.58826968  0.08529767  1
  Te  Te130  1  0.25311841  0.56636775  0.41210478  1
  Te  Te131  1  0.27065361  0.53527212  0.73456181  1
  Te  Te132  1  0.24063471  0.91275893  0.08224635  1
  Te  Te133  1  0.26261691  0.92289907  0.39952065  1
  Te  Te134  1  0.24995667  0.92279673  0.74748305  1
  Te  Te135  1  0.54723906  0.26677914  0.03859802  1
  Te  Te136  1  0.60050458  0.23826734  0.42131342  1
  Te  Te137  1  0.54224801  0.26680135  0.75853080  1
  Te  Te138  1  0.58225145  0.59006865  0.07451237  1
  Te  Te139  1  0.55402599  0.56945223  0.44819487  1
  Te  Te140  1  0.59028072  0.58066213  0.72719422  1
  Te  Te141  1  0.60397563  0.90352267  0.07564991  1
  Te  Te142  1  0.60255198  0.90556332  0.46215715  1
  Te  Te143  1  0.58312120  0.90881308  0.73554236  1
  Te  Te144  1  0.91835058  0.26197673  0.07229333  1
  Te  Te145  1  0.93641330  0.22950935  0.44819694  1
  Te  Te146  1  0.92253168  0.22015042  0.72558907  1
  Te  Te147  1  0.92110304  0.57842222  0.08430379  1
  Te  Te148  1  0.92717972  0.58272005  0.42448271  1
  Te  Te149  1  0.93321177  0.56589647  0.76931974  1
  Te  Te150  1  0.88649054  0.91865792  0.08468303  1
  Te  Te151  1  0.92467825  0.92002797  0.44228538  1
  Te  Te152  1  0.93026390  0.94041875  0.72078471  1
  Te  Te153  1  0.26613589  0.09730241  0.27943946  1
  Te  Te154  1  0.25171704  0.10541870  0.58531709  1
  Te  Te155  1  0.27523140  0.10972307  0.89255074  1
  Te  Te156  1  0.22670862  0.39966453  0.25125483  1
  Te  Te157  1  0.23638514  0.37517224  0.56469911  1
  Te  Te158  1  0.26804569  0.40436942  0.91443761  1
  Te  Te159  1  0.26035101  0.73532659  0.25162729  1
  Te  Te160  1  0.25287366  0.74339996  0.58768757  1
  Te  Te161  1  0.24450945  0.74806866  0.92552972  1
  Te  Te162  1  0.59035229  0.10110540  0.25044687  1
  Te  Te163  1  0.57299030  0.10251110  0.61200124  1
  Te  Te164  1  0.58008664  0.07943467  0.92963135  1
  Te  Te165  1  0.57519042  0.41945570  0.24399729  1
  Te  Te166  1  0.58568001  0.42179885  0.58885880  1
  Te  Te167  1  0.57963374  0.39323847  0.92060319  1
  Te  Te168  1  0.56942673  0.76411534  0.27341396  1
  Te  Te169  1  0.57000525  0.77390504  0.54446579  1
  Te  Te170  1  0.56490679  0.76718524  0.92312843  1
  Te  Te171  1  0.92789564  0.08353930  0.25404335  1
  Te  Te172  1  0.82696568  0.03488749  0.61361054  1
  Te  Te173  1  0.92554665  0.09749802  0.89471884  1
  Te  Te174  1  0.90609643  0.40011086  0.25022857  1
  Te  Te175  1  0.90101430  0.42112196  0.57619127  1
  Te  Te176  1  0.94120990  0.40589227  0.90620621  1
  Te  Te177  1  0.90881045  0.74662913  0.24941863  1
  Te  Te178  1  0.92523752  0.76382584  0.60222360  1
  Te  Te179  1  0.91309132  0.75188614  0.90998668  1
