# generated using pymatgen
data_In2Te3
_symmetry_space_group_name_H-M   'P 1'
_cell_length_a   18.77933357
_cell_length_b   18.78444351
_cell_length_c   18.78354138
_cell_angle_alpha   89.96723093
_cell_angle_beta   90.09635607
_cell_angle_gamma   89.97622841
_symmetry_Int_Tables_number   1
_chemical_formula_structural   In2Te3
_chemical_formula_sum   'In72 Te108'
_cell_volume   6626.05845647
_cell_formula_units_Z   36
loop_
 _symmetry_equiv_pos_site_id
 _symmetry_equiv_pos_as_xyz
  1  'x, y, z'
loop_
 _atom_site_type_symbol
 _atom_site_label
 _atom_site_symmetry_multiplicity
 _atom_site_fract_x
 _atom_site_fract_y
 _atom_site_fract_z
 _atom_site_occupancy
  In  In0  1  0.49512381  0.66444201  0.15060494  1
  In  In1  1  0.83937842  0.68673755  0.16034154  1
  In  In2  1  0.19778572  0.69217962  0.85763698  1
  In  In3  1  0.34849591  -0.00348226  0.67805000  1
  In  In4  1  0.36396269  0.33023380  0.67476290  1
  In  In5  1  0.68158597  0.01440199  -0.01912835  1
  In  In6  1  -0.00660411  0.16003031  0.84990033  1
  In  In7  1  0.50122331  0.15209811  0.33635503  1
  In  In8  1  0.50449319  0.31321971  0.52448814  1
  In  In9  1  0.18015083  0.00361903  0.16912305  1
  In  In10  1  -0.01840796  -0.00595050  -0.00303891  1
  In  In11  1  0.83252505  0.31111141  0.51572290  1
  In  In12  1  0.36910596  0.15146913  0.82438431  1
  In  In13  1  0.18322452  0.83691816  0.65157289  1
  In  In14  1  0.68363874  0.84293906  0.16841726  1
  In  In15  1  0.52012234  0.85510893  0.68743843  1
  In  In16  1  0.15087301  0.66355139  0.16618118  1
  In  In17  1  0.16825983  0.84863936  0.32839645  1
  In  In18  1  0.83565568  0.16995722  0.33205903  1
  In  In19  1  0.02144354  0.82317652  0.51384099  1
  In  In20  1  0.33763403  0.31652698  -0.00656593  1
  In  In21  1  0.32591673  0.50723991  0.17042430  1
  In  In22  1  0.33688633  0.84188751  0.15821748  1
  In  In23  1  0.82493922  0.50239172  0.67694948  1
  In  In24  1  0.50248264  0.16052415  0.01035738  1
  In  In25  1  0.01240761  0.67066637  0.00074942  1
  In  In26  1  0.78848914  0.14820160  0.67777068  1
  In  In27  1  0.66533452  0.49294120  0.13845446  1
  In  In28  1  0.15552169  0.33981752  0.83858663  1
  In  In29  1  0.66532159  0.65875818  0.32463862  1
  In  In30  1  0.00209128  0.01296789  0.33183632  1
  In  In31  1  0.51172228  0.49557202  -0.02320797  1
  In  In32  1  0.13707125  0.32255002  0.19776212  1
  In  In33  1  0.68216226  0.32685787  0.32996743  1
  In  In34  1  0.64307105  0.83026983  0.51196777  1
  In  In35  1  0.82672531  0.32533582  0.85515547  1
  In  In36  1  0.16719840  0.18065512  0.00348740  1
  In  In37  1  0.50335288  0.66395115  0.83856094  1
  In  In38  1  -0.01988069  0.65985522  0.66954927  1
  In  In39  1  0.33073375  0.33075652  0.33474903  1
  In  In40  1  0.48677698  0.81797232  0.37646133  1
  In  In41  1  -0.00867005  0.15344175  0.48263261  1
  In  In42  1  0.17393824  0.66222823  0.51115481  1
  In  In43  1  0.65996184  0.50705047  0.51888848  1
  In  In44  1  0.80386396  0.82022169  0.70670816  1
  In  In45  1  0.35898747  -0.02057624  -0.00084512  1
  In  In46  1  0.33660778  0.02480060  0.33156785  1
  In  In47  1  0.47767838  0.49824966  0.67484828  1
  In  In48  1  0.17123871  0.50803965  0.67063952  1
  In  In49  1  0.84836761  0.18003005  0.01435045  1
  In  In50  1  -0.01027212  0.33695352  0.65945830  1
  In  In51  1  0.00144383  0.48743149  0.18090444  1
  In  In52  1  0.32839644  0.67648738  0.67122657  1
  In  In53  1  0.51728218  0.31144835  0.15077708  1
  In  In54  1  0.50229432  0.51938917  0.34227470  1
  In  In55  1  0.86725346  0.47805035  0.32418612  1
  In  In56  1  0.16552939  0.51283858  0.00414494  1
  In  In57  1  0.14194844  0.35521139  0.44879973  1
  In  In58  1  0.31386737  0.49819228  0.51216509  1
  In  In59  1  0.81625905  0.49207916  -0.01351848  1
  In  In60  1  0.84930730  0.82987348  0.31391440  1
  In  In61  1  0.66523183  0.49470964  0.82834046  1
  In  In62  1  0.66375719  -0.00989315  0.33395267  1
  In  In63  1  0.16398131  -0.00742913  0.84171291  1
  In  In64  1  0.16444963  0.16366114  0.66962283  1
  In  In65  1  0.83120793  0.84199358  -0.01442668  1
  In  In66  1  0.51229750  0.83624725  -0.03229887  1
  In  In67  1  0.83536153  0.64872324  0.48334929  1
  In  In68  1  0.15650534  -0.00872100  0.49344936  1
  In  In69  1  0.49987497  0.02081648  0.16496222  1
  In  In70  1  0.81651481  -0.00624467  0.51093499  1
  In  In71  1  -0.01204282  0.83529525  0.80756371  1
  Te  Te72  1  0.08128513  0.08020549  0.07777450  1
  Te  Te73  1  0.10802722  0.10071635  0.39829116  1
  Te  Te74  1  0.07127492  0.07364154  0.75100486  1
  Te  Te75  1  0.08541153  0.40932969  0.07884959  1
  Te  Te76  1  0.04359999  0.44308895  0.38494975  1
  Te  Te77  1  0.06697207  0.42955011  0.75291598  1
  Te  Te78  1  0.07662272  0.76698321  0.09120331  1
  Te  Te79  1  0.08829806  0.74398605  0.40639317  1
  Te  Te80  1  0.09901596  0.73976252  0.73571030  1
  Te  Te81  1  0.38925851  0.09587368  0.09205939  1
  Te  Te82  1  0.41873087  0.08631385  0.43912670  1
  Te  Te83  1  0.45808262  0.09762189  0.71535879  1
  Te  Te84  1  0.42161372  0.41870636  0.08937678  1
  Te  Te85  1  0.42580495  0.41667599  0.42755058  1
  Te  Te86  1  0.42755079  0.40914453  0.78138007  1
  Te  Te87  1  0.41372974  0.75432990  0.05448025  1
  Te  Te88  1  0.38958916  0.73092977  0.43920503  1
  Te  Te89  1  0.41410916  0.76215023  0.76067374  1
  Te  Te90  1  0.76447636  0.07712633  0.08420963  1
  Te  Te91  1  0.73982251  0.09025924  0.42302245  1
  Te  Te92  1  0.68692822  0.07744856  0.76240461  1
  Te  Te93  1  0.75250766  0.39244327  0.07667706  1
  Te  Te94  1  0.75096933  0.42939756  0.42299483  1
  Te  Te95  1  0.74469432  0.39211848  0.74380295  1
  Te  Te96  1  0.73555692  0.74450601  0.06612088  1
  Te  Te97  1  0.74860620  0.76380595  0.41035972  1
  Te  Te98  1  0.73574516  0.72136327  0.79207117  1
  Te  Te99  1  0.03201004  0.22465942  0.23569282  1
  Te  Te100  1  0.08077180  0.24958843  0.57260073  1
  Te  Te101  1  0.06096721  0.26677835  0.93377457  1
  Te  Te102  1  0.09767380  0.56528782  0.26541087  1
  Te  Te103  1  0.06860505  0.57368813  0.57830816  1
  Te  Te104  1  0.08968327  0.59018648  0.89662450  1
  Te  Te105  1  0.07068749  0.91704466  0.23424370  1
  Te  Te106  1  0.07156805  0.93272807  0.60656519  1
  Te  Te107  1  0.07345978  0.89819853  0.91815390  1
  Te  Te108  1  0.41827656  0.24316866  0.24478275  1
  Te  Te109  1  0.40209171  0.22254501  0.58087571  1
  Te  Te110  1  0.44588191  0.25778036  0.90376374  1
  Te  Te111  1  0.40624108  0.60397933  0.25965033  1
  Te  Te112  1  0.41506927  0.59394077  0.57468757  1
  Te  Te113  1  0.40877270  0.58167915  0.91676931  1
  Te  Te114  1  0.42965038  0.91734777  0.25458694  1
  Te  Te115  1  0.43240697  0.91858343  0.58475785  1
  Te  Te116  1  0.44491425  0.94210631  0.88266324  1
  Te  Te117  1  0.75222825  0.24376018  0.23224790  1
  Te  Te118  1  0.71830502  0.24608681  0.58547763  1
  Te  Te119  1  0.73813252  0.22802804  0.92280230  1
  Te  Te120  1  0.75788270  0.57290674  0.24240945  1
  Te  Te121  1  0.74498080  0.60815780  0.59744325  1
  Te  Te122  1  0.75157170  0.59631721  0.89895871  1
  Te  Te123  1  0.77530126  0.94136766  0.24056138  1
  Te  Te124  1  0.72727948  0.91735647  0.60664334  1
  Te  Te125  1  0.73718485  0.90946242  0.88814191  1
  Te  Te126  1  0.24803965  0.26266533  0.10314733  1
  Te  Te127  1  0.24510979  0.25284332  0.42665752  1
  Te  Te128  1  0.25214674  0.24439915  0.76694139  1
  Te  Te129  1  0.26140935  0.60704781  0.07485382  1
  Te  Te130  1  0.24590096  0.58028468  0.41079000  1
  Te  Te131  1  0.26407176  0.57796772  0.76740344  1
  Te  Te132  1  0.23786862  0.90710835  0.05885060  1
  Te  Te133  1  0.26781894  0.91876125  0.41880568  1
  Te  Te134  1  0.26067969  0.90352683  0.76482401  1
  Te  Te135  1  0.61467130  0.24311015  0.06388715  1
  Te  Te136  1  0.59162116  0.24348403  0.42025808  1
  Te  Te137  1  0.58248765  0.20443912  0.71753504  1
  Te  Te138  1  0.59476978  0.60021046  0.05569421  1
  Te  Te139  1  0.57761682  0.60979301  0.43929312  1
  Te  Te140  1  0.58579612  0.58717598  0.73500191  1
  Te  Te141  1  0.58176654  0.92046419  0.08242435  1
  Te  Te142  1  0.56396407  0.93816187  0.43642078  1
  Te  Te143  1  0.63220860  0.92902483  0.75610400  1
  Te  Te144  1  0.94083083  0.24956802  0.11103124  1
  Te  Te145  1  0.92779686  0.26975148  0.40623042  1
  Te  Te146  1  0.90958362  0.23784613  0.74349915  1
  Te  Te147  1  0.91724398  0.57849316  0.08129923  1
  Te  Te148  1  0.94105960  0.58176677  0.40405721  1
  Te  Te149  1  0.91169225  0.57766703  0.77027846  1
  Te  Te150  1  0.91380009  0.90276093  0.09192910  1
  Te  Te151  1  0.92407498  0.91880044  0.42657938  1
  Te  Te152  1  0.89368668  0.93048192  0.74621680  1
  Te  Te153  1  0.24374021  0.10749447  0.25201627  1
  Te  Te154  1  0.25057950  0.07270761  0.58493504  1
  Te  Te155  1  0.25745778  0.08922277  0.91712264  1
  Te  Te156  1  0.23590361  0.42519280  0.26123608  1
  Te  Te157  1  0.23897315  0.39406844  0.59430796  1
  Te  Te158  1  0.25659641  0.42185249  0.91822099  1
  Te  Te159  1  0.25466503  0.75228078  0.24807612  1
  Te  Te160  1  0.28082421  0.77098081  0.55181765  1
  Te  Te161  1  0.27175884  0.77630644  0.95069738  1
  Te  Te162  1  0.60694559  0.09803993  0.23944381  1
  Te  Te163  1  0.62167786  0.11222456  0.60959494  1
  Te  Te164  1  0.55313198  0.05705603  0.91406534  1
  Te  Te165  1  0.57727437  0.42278423  0.25092170  1
  Te  Te166  1  0.58613742  0.40964813  0.60956415  1
  Te  Te167  1  0.60270741  0.39570124  0.91912167  1
  Te  Te168  1  0.57822838  0.75988225  0.24750296  1
  Te  Te169  1  0.57480068  0.74185537  0.60677473  1
  Te  Te170  1  0.61261839  0.75885247  0.88652892  1
  Te  Te171  1  0.92301612  0.09444811  0.23427302  1
  Te  Te172  1  0.90639136  0.08874061  0.59001970  1
  Te  Te173  1  0.88659081  0.06982406  0.90492954  1
  Te  Te174  1  0.89491519  0.38444681  0.21028489  1
  Te  Te175  1  0.90958551  0.43077901  0.56977274  1
  Te  Te176  1  0.92323026  0.41981244  0.91402046  1
  Te  Te177  1  0.94187045  0.73194954  0.25612744  1
  Te  Te178  1  0.89982799  0.76022343  0.58231956  1
  Te  Te179  1  0.91586921  0.74244259  0.90530437  1
