# generated using pymatgen
data_In2Te3
_symmetry_space_group_name_H-M   'P 1'
_cell_length_a   18.87858918
_cell_length_b   18.87017848
_cell_length_c   18.88238911
_cell_angle_alpha   90.03165042
_cell_angle_beta   89.96205946
_cell_angle_gamma   90.01717630
_symmetry_Int_Tables_number   1
_chemical_formula_structural   In2Te3
_chemical_formula_sum   'In72 Te108'
_cell_volume   6726.70381826
_cell_formula_units_Z   36
loop_
 _symmetry_equiv_pos_site_id
 _symmetry_equiv_pos_as_xyz
  1  'x, y, z'
loop_
 _atom_site_type_symbol
 _atom_site_label
 _atom_site_symmetry_multiplicity
 _atom_site_fract_x
 _atom_site_fract_y
 _atom_site_fract_z
 _atom_site_occupancy
  In  In0  1  -0.01078430  0.65121787  0.64336983  1
  In  In1  1  0.01310622  0.67378497  0.33862357  1
  In  In2  1  0.80668905  0.66520984  0.81107488  1
  In  In3  1  0.51008313  0.16403771  0.34599583  1
  In  In4  1  0.83280672  0.47731636  0.01863432  1
  In  In5  1  0.67602806  0.01601115  0.35683665  1
  In  In6  1  0.34309042  0.51318114  0.16043146  1
  In  In7  1  0.83376916  0.67559172  0.49689922  1
  In  In8  1  -0.00722090  0.00749262  0.33415093  1
  In  In9  1  -0.00138376  0.33975307  0.00000024  1
  In  In10  1  0.65456585  0.83855074  0.16596238  1
  In  In11  1  0.86409061  0.83349037  0.35027515  1
  In  In12  1  0.13324408  0.85100848  0.34659290  1
  In  In13  1  0.15109501  0.03240383  0.83426557  1
  In  In14  1  0.45673363  0.02493514  0.14840986  1
  In  In15  1  0.34249411  0.83053033  0.83132486  1
  In  In16  1  0.52566507  0.83294551  0.32267012  1
  In  In17  1  0.66157322  0.18100274  0.50353237  1
  In  In18  1  0.33380407  0.32501761  -0.01558868  1
  In  In19  1  -0.01492060  0.84172268  0.83975049  1
  In  In20  1  0.63673030  0.66616502  0.00303256  1
  In  In21  1  0.33222929  0.65578551  0.67069186  1
  In  In22  1  0.32295466  0.18028969  0.83876329  1
  In  In23  1  0.34342955  0.33085256  0.33565321  1
  In  In24  1  0.82896822  0.21075314  0.32640803  1
  In  In25  1  0.48331647  0.62826155  0.14314153  1
  In  In26  1  0.86005273  0.19132530  0.00696262  1
  In  In27  1  0.67261417  0.48420537  0.83780450  1
  In  In28  1  0.83930443  0.00162052  0.16745090  1
  In  In29  1  0.15440076  0.63731743  0.82528945  1
  In  In30  1  0.34611566  0.47722913  0.49282304  1
  In  In31  1  0.85510641  0.47209492  0.31654614  1
  In  In32  1  0.83461296  0.48621254  0.68343740  1
  In  In33  1  0.00125798  0.32428172  0.66585295  1
  In  In34  1  0.32024088  0.04968575  0.31030127  1
  In  In35  1  0.19309768  0.16753703  0.01350555  1
  In  In36  1  0.19091476  0.47267278  0.00562996  1
  In  In37  1  0.51682161  0.33841297  0.17920778  1
  In  In38  1  0.32695367  0.82897906  0.16030435  1
  In  In39  1  0.65449755  -0.00185012  0.00303215  1
  In  In40  1  0.49620443  -0.01690347  0.82997921  1
  In  In41  1  0.82536284  0.84426555  -0.00389697  1
  In  In42  1  0.02465935  0.01933199  0.00289659  1
  In  In43  1  0.83212602  0.02462397  0.78085998  1
  In  In44  1  0.50354919  0.17466598  0.65358980  1
  In  In45  1  0.65021955  0.32467031  -0.01151057  1
  In  In46  1  0.34176311  0.33005138  0.65773356  1
  In  In47  1  0.16209887  0.64770630  0.17216642  1
  In  In48  1  0.33797805  0.83488341  0.48722160  1
  In  In49  1  0.82836429  0.65554131  0.19927744  1
  In  In50  1  0.68788187  0.85908447  0.52283194  1
  In  In51  1  0.36189035  0.66821680  0.29826695  1
  In  In52  1  0.14624446  0.30823692  0.50394155  1
  In  In53  1  0.30371206  0.01458650  0.65506915  1
  In  In54  1  0.13673384  0.85608774  0.65737762  1
  In  In55  1  0.17264216  0.65930016  0.49438765  1
  In  In56  1  -0.00582727  0.16687322  0.80915074  1
  In  In57  1  0.16271195  0.47300863  0.36607249  1
  In  In58  1  0.50363306  0.49522176  0.67012565  1
  In  In59  1  0.50151472  0.83408015  0.67215588  1
  In  In60  1  0.21177484  0.83520745  0.01196454  1
  In  In61  1  0.83287553  0.33251654  0.50893324  1
  In  In62  1  0.64394780  0.17388382  0.82562029  1
  In  In63  1  0.66571698  0.81708107  0.82240568  1
  In  In64  1  0.66938568  0.68018375  0.68393373  1
  In  In65  1  0.66798630  0.17575651  0.18563506  1
  In  In66  1  0.17513119  0.02890887  0.49201741  1
  In  In67  1  0.65366128  0.48117588  0.51870410  1
  In  In68  1  0.14878886  0.31589580  0.18042564  1
  In  In69  1  0.01085938  0.65179306  0.01292273  1
  In  In70  1  0.67582254  0.62806340  0.34302207  1
  In  In71  1  0.16717046  0.34156225  0.83180893  1
  Te  Te72  1  0.08647614  0.11047594  0.10214360  1
  Te  Te73  1  0.07851528  0.10590173  0.40717144  1
  Te  Te74  1  0.09320151  0.10243734  0.71737269  1
  Te  Te75  1  0.08123427  0.42565750  0.09806187  1
  Te  Te76  1  0.05443039  0.38134800  0.40889440  1
  Te  Te77  1  0.07422852  0.42074684  0.75222824  1
  Te  Te78  1  0.09751038  0.75319847  0.08308359  1
  Te  Te79  1  0.06752647  0.76215558  0.44971434  1
  Te  Te80  1  0.07488576  0.74632154  0.74756221  1
  Te  Te81  1  0.36520268  0.09117557  0.05613047  1
  Te  Te82  1  0.42058008  0.07024234  0.41509438  1
  Te  Te83  1  0.40708662  0.08051344  0.74948040  1
  Te  Te84  1  0.41839587  0.40711516  0.08301487  1
  Te  Te85  1  0.44244036  0.37722428  0.43812450  1
  Te  Te86  1  0.40520342  0.42279396  0.75369341  1
  Te  Te87  1  0.41664029  0.74574404  0.07197350  1
  Te  Te88  1  0.43331599  0.74508856  0.41058833  1
  Te  Te89  1  0.43166942  0.73039585  0.75884395  1
  Te  Te90  1  0.75245428  0.09136032  0.07706050  1
  Te  Te91  1  0.77606075  0.10457583  0.42277130  1
  Te  Te92  1  0.72325641  0.10613206  0.71643367  1
  Te  Te93  1  0.74686427  0.37861174  0.08990366  1
  Te  Te94  1  0.74987199  0.42089974  0.41651198  1
  Te  Te95  1  0.73429850  0.39444360  0.73898267  1
  Te  Te96  1  0.75612066  0.74698600  0.09159543  1
  Te  Te97  1  0.73830318  0.75638606  0.40461402  1
  Te  Te98  1  0.77838795  0.78468794  0.72302614  1
  Te  Te99  1  0.14577195  0.21821405  0.29573095  1
  Te  Te100  1  0.06514591  0.21430029  0.58715390  1
  Te  Te101  1  0.08757575  0.23771727  0.91936042  1
  Te  Te102  1  0.08018013  0.55991186  0.26435723  1
  Te  Te103  1  0.08647022  0.56838349  0.57022274  1
  Te  Te104  1  0.08115555  0.55026587  0.92594998  1
  Te  Te105  1  0.06173687  0.91731791  0.23865112  1
  Te  Te106  1  0.07300015  0.94786686  0.56336579  1
  Te  Te107  1  0.09696994  0.90758920  0.92148951  1
  Te  Te108  1  0.42191243  0.23663264  0.24522334  1
  Te  Te109  1  0.42563121  0.25857438  0.55651074  1
  Te  Te110  1  0.43262909  0.25218888  0.90354705  1
  Te  Te111  1  0.44580420  0.54033123  0.27501142  1
  Te  Te112  1  0.42285437  0.58326902  0.57278081  1
  Te  Te113  1  0.41475167  0.60320183  1.00753356  1
  Te  Te114  1  0.41546542  0.91413940  0.25472295  1
  Te  Te115  1  0.40899846  0.92203533  0.58945635  1
  Te  Te116  1  0.41676583  0.90921965  0.93043328  1
  Te  Te117  1  0.74750480  0.29475896  0.23113073  1
  Te  Te118  1  0.75503976  0.24560734  0.60015818  1
  Te  Te119  1  0.75429407  0.24254492  0.91070370  1
  Te  Te120  1  0.73519173  0.54065111  0.23265882  1
  Te  Te121  1  0.75075719  0.58658920  0.59174490  1
  Te  Te122  1  0.75329478  0.58796493  0.93112117  1
  Te  Te123  1  0.75396342  0.91291462  0.25905412  1
  Te  Te124  1  0.79141131  0.95744259  0.55753930  1
  Te  Te125  1  0.74684159  0.93125620  0.90034297  1
  Te  Te126  1  0.27050082  0.25887208  0.10656854  1
  Te  Te127  1  0.25168747  0.24129478  0.41483527  1
  Te  Te128  1  0.23694131  0.24680012  0.73493344  1
  Te  Te129  1  0.25774466  0.60121846  0.06186109  1
  Te  Te130  1  0.26923805  0.58585056  0.40173629  1
  Te  Te131  1  0.23594392  0.56228247  0.72859874  1
  Te  Te132  1  0.23706850  0.93788990  0.11525554  1
  Te  Te133  1  0.25671509  0.92667667  0.39635644  1
  Te  Te134  1  0.23792676  0.91725314  0.75781617  1
  Te  Te135  1  0.57132066  0.23099079  0.08335513  1
  Te  Te136  1  0.60862853  0.26200923  0.39142384  1
  Te  Te137  1  0.56442797  0.27275366  0.74763667  1
  Te  Te138  1  0.58743134  0.54412744  0.07144841  1
  Te  Te139  1  0.57702079  0.57856777  0.43847678  1
  Te  Te140  1  0.58350360  0.58715148  0.76663316  1
  Te  Te141  1  0.55515542  0.91804807  0.08503813  1
  Te  Te142  1  0.58136930  0.92404608  0.43292377  1
  Te  Te143  1  0.60264276  0.92752001  0.73595467  1
  Te  Te144  1  0.93700809  0.26157278  0.11534972  1
  Te  Te145  1  0.93284955  0.26563911  0.41834487  1
  Te  Te146  1  0.89956328  0.26472168  0.75660012  1
  Te  Te147  1  0.91740554  0.57354868  0.10410719  1
  Te  Te148  1  0.91479227  0.58173472  0.40951640  1
  Te  Te149  1  0.92263831  0.58087599  0.76434632  1
  Te  Te150  1  0.92909612  0.91882113  0.07681778  1
  Te  Te151  1  0.91124076  0.93878265  0.44217174  1
  Te  Te152  1  0.94707728  0.93932224  0.73520047  1
  Te  Te153  1  0.20531348  0.09050852  0.22901085  1
  Te  Te154  1  0.27480879  0.11881974  0.55563265  1
  Te  Te155  1  0.26947271  0.06063665  0.93180800  1
  Te  Te156  1  0.24788183  0.42349466  0.24773628  1
  Te  Te157  1  0.23824289  0.41011628  0.57428630  1
  Te  Te158  1  0.27980289  0.43213317  0.88956941  1
  Te  Te159  1  0.23425733  0.74703562  0.26487597  1
  Te  Te160  1  0.24769544  0.76425566  0.59010331  1
  Te  Te161  1  0.24712408  0.73470010  0.90158362  1
  Te  Te162  1  0.58628079  0.05856957  0.23929449  1
  Te  Te163  1  0.57926952  0.07857840  0.57207987  1
  Te  Te164  1  0.56235494  0.08680401  0.92188828  1
  Te  Te165  1  0.58226512  0.45610279  0.23809895  1
  Te  Te166  1  0.58693605  0.38629825  0.61083435  1
  Te  Te167  1  0.56774830  0.43310863  0.92916353  1
  Te  Te168  1  0.58789004  0.72108439  0.23782446  1
  Te  Te169  1  0.58946856  0.75394139  0.57683492  1
  Te  Te170  1  0.56972518  0.76738918  0.92153905  1
  Te  Te171  1  0.91212038  0.10583434  0.24674454  1
  Te  Te172  1  0.86715153  0.06928724  0.63841103  1
  Te  Te173  1  0.91395159  0.07469144  0.91374085  1
  Te  Te174  1  0.91209017  0.36849406  0.22902993  1
  Te  Te175  1  0.92609945  0.43169485  0.57783752  1
  Te  Te176  1  0.90202578  0.40501415  0.91106764  1
  Te  Te177  1  0.93422733  0.75770210  0.23814702  1
  Te  Te178  1  0.91070772  0.76232808  0.58704278  1
  Te  Te179  1  0.91147182  0.73689935  0.92500312  1
