# generated using pymatgen
data_In2Te3
_symmetry_space_group_name_H-M   'P 1'
_cell_length_a   18.77897296
_cell_length_b   18.77763751
_cell_length_c   18.77520588
_cell_angle_alpha   90.03525660
_cell_angle_beta   89.98097597
_cell_angle_gamma   89.96153139
_symmetry_Int_Tables_number   1
_chemical_formula_structural   In2Te3
_chemical_formula_sum   'In72 Te108'
_cell_volume   6620.59910927
_cell_formula_units_Z   36
loop_
 _symmetry_equiv_pos_site_id
 _symmetry_equiv_pos_as_xyz
  1  'x, y, z'
loop_
 _atom_site_type_symbol
 _atom_site_label
 _atom_site_symmetry_multiplicity
 _atom_site_fract_x
 _atom_site_fract_y
 _atom_site_fract_z
 _atom_site_occupancy
  In  In0  1  0.81033789  0.17095205  0.66913899  1
  In  In1  1  0.34904239  0.51559333  0.48286266  1
  In  In2  1  0.83708707  0.64222382  0.49126843  1
  In  In3  1  0.15497601  0.18002273  0.01032277  1
  In  In4  1  0.82363685  0.81185941  0.67971968  1
  In  In5  1  0.35718315  0.65066173  0.64822538  1
  In  In6  1  0.16209456  0.01026261  0.84416057  1
  In  In7  1  0.33750285  0.33529676  0.65898472  1
  In  In8  1  0.53634976  -0.00712612  0.18996395  1
  In  In9  1  0.50895264  0.16558046  -0.00019967  1
  In  In10  1  0.33933551  0.48972098  0.84990243  1
  In  In11  1  0.52400517  0.81463665  0.65227787  1
  In  In12  1  -0.01289295  0.85970672  0.47927977  1
  In  In13  1  0.15468077  0.18517643  0.33961790  1
  In  In14  1  0.34873430  0.16293897  0.18087967  1
  In  In15  1  0.48734600  -0.00981948  0.48990146  1
  In  In16  1  -0.02070400  0.67100233  0.34294614  1
  In  In17  1  0.85817528  0.34516749  0.17508432  1
  In  In18  1  0.82513007  -0.00191586  0.46634685  1
  In  In19  1  0.83686737  0.16187779  0.33997785  1
  In  In20  1  -0.02001175  0.81686843  0.84075630  1
  In  In21  1  0.16175700  0.48108119  0.32626554  1
  In  In22  1  0.15514784  0.02406054  0.49558928  1
  In  In23  1  0.32545898  0.16866165  0.46426547  1
  In  In24  1  0.34870199  0.18550642  0.81112252  1
  In  In25  1  0.00360883  0.50273035  0.17514715  1
  In  In26  1  0.16900013  0.82924630  0.01998325  1
  In  In27  1  0.52518246  0.38216563  0.50117345  1
  In  In28  1  0.67896524  0.54007848  0.18047702  1
  In  In29  1  0.82705977  0.51050406  -0.00531976  1
  In  In30  1  0.17604028  0.65714739  0.49075095  1
  In  In31  1  -0.00345582  0.51128069  0.83767005  1
  In  In32  1  0.18848259  0.81473935  0.29211983  1
  In  In33  1  0.34553152  -0.00116339  0.33103414  1
  In  In34  1  0.49111402  -0.00667033  0.86895432  1
  In  In35  1  0.64944059  0.33641402  -0.00059007  1
  In  In36  1  0.53078333  0.21276007  0.66814206  1
  In  In37  1  0.81654105  0.49150692  0.68077990  1
  In  In38  1  0.31582439  -0.02052700  0.01174888  1
  In  In39  1  0.14552328  0.66568222  0.84692385  1
  In  In40  1  0.00297713  0.36294009  0.00924566  1
  In  In41  1  0.51177038  0.79586980  0.30679095  1
  In  In42  1  0.32480477  0.64801844  0.02692111  1
  In  In43  1  0.66936088  0.00174429  0.66981070  1
  In  In44  1  0.00528876  0.31497919  0.65490551  1
  In  In45  1  0.67121494  0.66305354  0.01781315  1
  In  In46  1  0.01547331  0.16282492  0.17871956  1
  In  In47  1  0.33427558  -0.01180318  0.68568235  1
  In  In48  1  -0.01364172  -0.01877276  0.65473820  1
  In  In49  1  0.49671674  0.53183249  0.31207611  1
  In  In50  1  0.68125201  0.33821803  0.33834147  1
  In  In51  1  0.80936543  0.16156535  0.00642648  1
  In  In52  1  -0.01256264  0.17911081  0.84273841  1
  In  In53  1  0.15888353  0.19194478  0.66153323  1
  In  In54  1  0.33084819  0.79717168  0.46805440  1
  In  In55  1  0.66346450  0.81053402  0.48330940  1
  In  In56  1  0.67810886  0.81893645  0.84672173  1
  In  In57  1  0.16131237  0.51308058  0.65877273  1
  In  In58  1  -0.01641453  0.67489481  -0.00090555  1
  In  In59  1  0.34801611  0.85459947  0.83849839  1
  In  In60  1  0.82822846  0.35247788  0.48598689  1
  In  In61  1  0.00154594  0.82084935  0.17406756  1
  In  In62  1  0.48593740  0.33783672  0.15817463  1
  In  In63  1  0.68862637  0.16213445  0.48354592  1
  In  In64  1  0.51290905  0.36067583  0.83352232  1
  In  In65  1  0.32385134  0.36348834  0.02437617  1
  In  In66  1  0.53303715  0.64045572  0.81851696  1
  In  In67  1  -0.01563390  0.01432650  0.02528692  1
  In  In68  1  0.66025243  -0.01067516  0.00311495  1
  In  In69  1  0.00473583  0.18209713  0.49349985  1
  In  In70  1  0.81550791  -0.03546430  0.17122176  1
  In  In71  1  -0.00656740  0.64045179  0.66103663  1
  Te  Te72  1  0.10669227  0.06509713  0.09773340  1
  Te  Te73  1  0.05370115  0.07427785  0.39705839  1
  Te  Te74  1  0.07127229  0.08645198  0.73938381  1
  Te  Te75  1  0.10055238  0.40652214  0.11298534  1
  Te  Te76  1  0.10266187  0.39415941  0.42919228  1
  Te  Te77  1  0.07713772  0.42015865  0.74509669  1
  Te  Te78  1  0.09315661  0.72320350  0.09624422  1
  Te  Te79  1  0.09341048  0.76140839  0.41245256  1
  Te  Te80  1  0.07207548  0.74646443  0.73971506  1
  Te  Te81  1  0.42597569  0.07009650  0.08546589  1
  Te  Te82  1  0.44337101  0.09938213  0.39180450  1
  Te  Te83  1  0.44042067  0.08358587  0.74441107  1
  Te  Te84  1  0.43293565  0.45032204  0.07723230  1
  Te  Te85  1  0.42514668  0.41848625  0.39242357  1
  Te  Te86  1  0.42304723  0.43561551  0.73409471  1
  Te  Te87  1  0.40657892  0.73698923  0.11632572  1
  Te  Te88  1  0.44702464  0.71457500  0.42080562  1
  Te  Te89  1  0.42309649  0.74819201  0.75553726  1
  Te  Te90  1  0.73266532  0.07759074  0.10721474  1
  Te  Te91  1  0.71650612  0.05826411  0.36854159  1
  Te  Te92  1  0.75079972  0.07763729  0.76562712  1
  Te  Te93  1  0.75067317  0.41978879  0.09507021  1
  Te  Te94  1  0.73379607  0.44811972  0.42297128  1
  Te  Te95  1  0.70607698  0.42163877  0.75519561  1
  Te  Te96  1  0.73775586  0.75760873  0.11505905  1
  Te  Te97  1  0.76035272  0.73466102  0.39665908  1
  Te  Te98  1  0.71514181  0.72938303  0.73450091  1
  Te  Te99  1  0.07237860  0.27555305  0.25448729  1
  Te  Te100  1  0.11393119  0.28254387  0.54201585  1
  Te  Te101  1  0.08754107  0.27038884  0.90985281  1
  Te  Te102  1  0.08738090  0.59879279  0.26010528  1
  Te  Te103  1  0.06810050  0.56661247  0.54968355  1
  Te  Te104  1  0.08596022  0.56879259  0.94746420  1
  Te  Te105  1  0.08409465  0.91152171  0.25783189  1
  Te  Te106  1  0.09690947  0.90998037  0.58080578  1
  Te  Te107  1  0.07489681  0.91373519  0.92525959  1
  Te  Te108  1  0.41833321  0.26170933  0.26540857  1
  Te  Te109  1  0.41896941  0.24441433  0.56828553  1
  Te  Te110  1  0.41860410  0.26343676  0.92337056  1
  Te  Te111  1  0.41151212  0.61942483  0.22089526  1
  Te  Te112  1  0.45663285  0.57401768  0.56919875  1
  Te  Te113  1  0.42041848  0.59898813  0.91663377  1
  Te  Te114  1  0.42131396  0.90381576  0.24038008  1
  Te  Te115  1  0.40785822  0.89632627  0.58323347  1
  Te  Te116  1  0.42986125  0.88896901  0.96300079  1
  Te  Te117  1  0.75897556  0.24876017  0.24123849  1
  Te  Te118  1  0.73783448  0.27028394  0.58030860  1
  Te  Te119  1  0.75387332  0.26653778  0.91943750  1
  Te  Te120  1  0.74686017  0.62655078  0.28078211  1
  Te  Te121  1  0.74144742  0.57161889  0.57910437  1
  Te  Te122  1  0.73145769  0.58209054  0.90838937  1
  Te  Te123  1  0.70531110  0.87123742  0.21912665  1
  Te  Te124  1  0.75198031  0.91186479  0.57440742  1
  Te  Te125  1  0.76012675  0.91164328  0.92557846  1
  Te  Te126  1  0.24990719  0.25359324  0.10338189  1
  Te  Te127  1  0.25893401  0.27885674  0.39203945  1
  Te  Te128  1  0.23889543  0.27877867  0.76141870  1
  Te  Te129  1  0.26103381  0.55508232  0.12669827  1
  Te  Te130  1  0.26166070  0.59125432  0.38520046  1
  Te  Te131  1  0.25064860  0.59338092  0.75445870  1
  Te  Te132  1  0.24573478  0.90734924  0.11989800  1
  Te  Te133  1  0.25085172  0.92089204  0.42250885  1
  Te  Te134  1  0.22732084  0.90347807  0.75514612  1
  Te  Te135  1  0.59119967  0.23919045  0.10349626  1
  Te  Te136  1  0.58386243  0.26028181  0.42726591  1
  Te  Te137  1  0.61349900  0.26174349  0.78055131  1
  Te  Te138  1  0.56944127  0.57555903  0.08697716  1
  Te  Te139  1  0.56213151  0.60698769  0.42210373  1
  Te  Te140  1  0.59991112  0.53785158  0.73073945  1
  Te  Te141  1  0.58855974  0.89230047  0.09202438  1
  Te  Te142  1  0.57581082  0.90359431  0.40093932  1
  Te  Te143  1  0.57336733  0.91596553  0.75683724  1
  Te  Te144  1  0.92790656  0.24237128  0.07326132  1
  Te  Te145  1  0.92529662  0.27185554  0.39871438  1
  Te  Te146  1  0.89844851  0.26467335  0.75269886  1
  Te  Te147  1  0.90246415  0.59137213  0.09885764  1
  Te  Te148  1  0.92046831  0.54894221  0.40767044  1
  Te  Te149  1  0.89345804  0.59767788  0.76609488  1
  Te  Te150  1  0.90862536  0.89231259  0.07179036  1
  Te  Te151  1  0.89140432  0.90282024  0.37558665  1
  Te  Te152  1  0.89661971  0.91993019  0.76016764  1
  Te  Te153  1  0.24272313  0.08523993  0.25914989  1
  Te  Te154  1  0.26168993  0.09079058  0.59317473  1
  Te  Te155  1  0.26615313  0.09682952  0.91620292  1
  Te  Te156  1  0.25209531  0.43477642  0.21651236  1
  Te  Te157  1  0.25705091  0.43088254  0.57192322  1
  Te  Te158  1  0.23202793  0.42650243  0.92738127  1
  Te  Te159  1  0.29442820  0.72682649  0.23898608  1
  Te  Te160  1  0.25155399  0.74547315  0.59072561  1
  Te  Te161  1  0.25355492  0.75103885  0.91642621  1
  Te  Te162  1  0.59522080  0.09408719  0.27612144  1
  Te  Te163  1  0.58234101  0.08230772  0.57241999  1
  Te  Te164  1  0.60053481  0.09349984  0.90276198  1
  Te  Te165  1  0.59195949  0.42332893  0.24658719  1
  Te  Te166  1  0.60632120  0.42290663  0.61977221  1
  Te  Te167  1  0.57317662  0.44741694  0.93826805  1
  Te  Te168  1  0.62534413  0.72719518  0.22870650  1
  Te  Te169  1  0.59943685  0.71191857  0.57568650  1
  Te  Te170  1  0.57178111  0.74386172  0.92420511  1
  Te  Te171  1  0.90816442  0.07234101  0.23779415  1
  Te  Te172  1  0.90506036  0.08808322  0.57197668  1
  Te  Te173  1  0.90170776  0.07603555  0.91404215  1
  Te  Te174  1  0.90288212  0.44773689  0.27362974  1
  Te  Te175  1  0.91908388  0.42204733  0.58788003  1
  Te  Te176  1  0.90186163  0.41131873  0.90491124  1
  Te  Te177  1  0.89588900  0.73622144  0.23778936  1
  Te  Te178  1  0.92132100  0.75433940  0.57406933  1
  Te  Te179  1  0.87977105  0.73765222  0.91441362  1
