# generated using pymatgen
data_In2Te3
_symmetry_space_group_name_H-M   'P 1'
_cell_length_a   18.79640956
_cell_length_b   18.79711087
_cell_length_c   18.80352081
_cell_angle_alpha   90.02544853
_cell_angle_beta   89.95804839
_cell_angle_gamma   90.03854496
_symmetry_Int_Tables_number   1
_chemical_formula_structural   In2Te3
_chemical_formula_sum   'In72 Te108'
_cell_volume   6643.62208307
_cell_formula_units_Z   36
loop_
 _symmetry_equiv_pos_site_id
 _symmetry_equiv_pos_as_xyz
  1  'x, y, z'
loop_
 _atom_site_type_symbol
 _atom_site_label
 _atom_site_symmetry_multiplicity
 _atom_site_fract_x
 _atom_site_fract_y
 _atom_site_fract_z
 _atom_site_occupancy
  In  In0  1  0.66272959  0.35615568  0.66781634  1
  In  In1  1  0.66287481  0.16337808  0.48274503  1
  In  In2  1  0.83247340  0.67141520  0.83874889  1
  In  In3  1  0.34492984  -0.01266437  0.66334170  1
  In  In4  1  0.19488936  0.32594936  0.16068815  1
  In  In5  1  0.01529235  0.17015786  0.16947719  1
  In  In6  1  0.82085381  0.33325579  0.47895119  1
  In  In7  1  0.82653806  0.33627640  0.19538633  1
  In  In8  1  0.49022710  0.14616324  0.02493473  1
  In  In9  1  0.15185541  0.18710523  0.67136783  1
  In  In10  1  0.83104583  0.69173405  0.15737421  1
  In  In11  1  0.18051584  0.16076339  0.01199465  1
  In  In12  1  0.16225323  0.82801835  0.33050080  1
  In  In13  1  0.64148152  0.49926262  0.16638442  1
  In  In14  1  0.16998551  -0.00800963  0.49127722  1
  In  In15  1  -0.00589757  0.67597853  0.67025222  1
  In  In16  1  0.31866428  -0.00626135  0.30595132  1
  In  In17  1  0.49641285  -0.00881028  0.84857871  1
  In  In18  1  -0.00809192  0.50615805  0.50297661  1
  In  In19  1  0.83983421  -0.00537456  0.17067592  1
  In  In20  1  0.01420436  0.84772042  0.17805348  1
  In  In21  1  0.34245192  0.18798932  0.50835299  1
  In  In22  1  0.18835791  0.82326574  0.67397560  1
  In  In23  1  0.33854705  0.32020254  0.32447423  1
  In  In24  1  -0.01615404  0.32757299  0.63961144  1
  In  In25  1  0.49219462  -0.00428313  0.50319769  1
  In  In26  1  0.83938216  0.15302673  0.67145440  1
  In  In27  1  0.83032868  0.34300393  0.80156650  1
  In  In28  1  0.50182373  0.18865833  0.64776734  1
  In  In29  1  0.31796033  0.65454269  0.67088461  1
  In  In30  1  0.64967389  0.32837287  -0.01784604  1
  In  In31  1  0.67071862  0.83323837  0.14837842  1
  In  In32  1  0.68972546  0.63868207  0.63675680  1
  In  In33  1  -0.00935756  -0.00853108  0.01096207  1
  In  In34  1  0.49870770  0.49424225  0.66321481  1
  In  In35  1  0.18035027  0.50227710  -0.01747775  1
  In  In36  1  0.49154698  0.35455005  0.82449650  1
  In  In37  1  0.15716635  0.48606815  0.34371363  1
  In  In38  1  0.82483950  0.00246144  0.83067330  1
  In  In39  1  0.50889867  0.50818595  0.33565935  1
  In  In40  1  0.01024385  0.02710295  0.66059634  1
  In  In41  1  0.67245300  0.84339680  0.50207602  1
  In  In42  1  -0.02518332  0.50414408  0.17992340  1
  In  In43  1  0.19261399  0.84254321  0.01649019  1
  In  In44  1  0.81877580  0.51736529  0.00025957  1
  In  In45  1  0.16857617  0.66645421  0.17381476  1
  In  In46  1  0.83532463  0.83910902  0.33244985  1
  In  In47  1  0.17370647  0.15220104  0.33445838  1
  In  In48  1  0.50275176  0.66471482  0.84625449  1
  In  In49  1  0.01225554  0.82258812  0.83949048  1
  In  In50  1  0.32572000  0.49642896  0.50199381  1
  In  In51  1  0.83132021  0.16847086  0.33702798  1
  In  In52  1  0.33434738  0.84563299  0.85292357  1
  In  In53  1  0.82830442  0.84630381  0.64886478  1
  In  In54  1  0.65311482  0.17436584  0.16726695  1
  In  In55  1  0.18255787  0.33636389  0.84296843  1
  In  In56  1  0.33883834  0.66908616  0.32417808  1
  In  In57  1  -0.00479554  0.82615829  0.48288675  1
  In  In58  1  0.64865590  0.82368130  0.84485861  1
  In  In59  1  0.82827315  0.49840235  0.35901315  1
  In  In60  1  0.00467867  0.50821689  0.83836854  1
  In  In61  1  0.34727414  0.66164909  -0.00550770  1
  In  In62  1  0.17548907  0.49933389  0.66736547  1
  In  In63  1  0.65767787  -0.01443516  -0.00241910  1
  In  In64  1  0.51852917  0.83676641  0.66797010  1
  In  In65  1  0.48062496  0.83395276  0.33528526  1
  In  In66  1  0.84189400  0.17365204  -0.01540604  1
  In  In67  1  0.50486409  0.17162406  0.32737062  1
  In  In68  1  0.66947520  0.64452209  0.33938304  1
  In  In69  1  0.32380683  0.16885283  0.84637605  1
  In  In70  1  0.03156221  0.34039013  -0.00755541  1
  In  In71  1  0.49939108  0.66866102  0.15101015  1
  Te  Te72  1  0.09569399  0.06438888  0.09560946  1
  Te  Te73  1  0.07646680  0.07604386  0.41593843  1
  Te  Te74  1  0.10353366  0.08061191  0.76080432  1
  Te  Te75  1  0.09016586  0.42924208  0.10086853  1
  Te  Te76  1  0.08157626  0.40566919  0.44188476  1
  Te  Te77  1  0.07357834  0.40383013  0.74998422  1
  Te  Te78  1  0.08574045  0.75360076  0.08065388  1
  Te  Te79  1  0.09142359  0.73424545  0.41963548  1
  Te  Te80  1  0.10423428  0.72882275  0.76125809  1
  Te  Te81  1  0.37315816  0.06757114  0.07533758  1
  Te  Te82  1  0.39802095  0.07863979  0.41611227  1
  Te  Te83  1  0.42339592  0.08837837  0.74730027  1
  Te  Te84  1  0.34309311  0.40048114  0.08210197  1
  Te  Te85  1  0.41950828  0.41112314  0.41623620  1
  Te  Te86  1  0.39194913  0.43348610  0.74704942  1
  Te  Te87  1  0.40635048  0.76283044  0.08554572  1
  Te  Te88  1  0.43539457  0.72454935  0.42167593  1
  Te  Te89  1  0.41578675  0.75957381  0.75200306  1
  Te  Te90  1  0.75623715  0.08965966  0.08067968  1
  Te  Te91  1  0.74958528  0.06873994  0.41095065  1
  Te  Te92  1  0.73502789  0.09150445  0.75734143  1
  Te  Te93  1  0.75055581  0.40231619  0.08085860  1
  Te  Te94  1  0.71722484  0.41680552  0.41283359  1
  Te  Te95  1  0.73129643  0.44481700  0.76586524  1
  Te  Te96  1  0.72810146  0.73070842  0.05917808  1
  Te  Te97  1  0.75445822  0.74224333  0.41959926  1
  Te  Te98  1  0.73930961  0.75561266  0.73687734  1
  Te  Te99  1  0.09258435  0.26426594  0.25739957  1
  Te  Te100  1  0.07066638  0.23872247  0.55954336  1
  Te  Te101  1  0.09160927  0.22988338  0.90831718  1
  Te  Te102  1  0.07331823  0.58703413  0.26258533  1
  Te  Te103  1  0.08925679  0.59327721  0.58400961  1
  Te  Te104  1  0.07858895  0.59507162  0.93044768  1
  Te  Te105  1  0.09714265  0.93950213  0.25789919  1
  Te  Te106  1  0.08378440  0.90300400  0.59324931  1
  Te  Te107  1  0.09342338  0.92022096  0.92353672  1
  Te  Te108  1  0.40356481  0.22432361  0.22999579  1
  Te  Te109  1  0.41383316  0.28999056  0.58808643  1
  Te  Te110  1  0.43444162  0.24368013  0.91720955  1
  Te  Te111  1  0.41471002  0.57228999  0.23410073  1
  Te  Te112  1  0.41922552  0.59282521  0.57526375  1
  Te  Te113  1  0.42395023  0.56004372  0.91657935  1
  Te  Te114  1  0.42521270  0.92257843  0.23071495  1
  Te  Te115  1  0.40976035  0.88596631  0.57083449  1
  Te  Te116  1  0.41812098  0.91898345  0.95128387  1
  Te  Te117  1  0.72323316  0.25885575  0.27374603  1
  Te  Te118  1  0.74761771  0.24988750  0.59128748  1
  Te  Te119  1  0.74733993  0.24982341  0.89455996  1
  Te  Te120  1  0.76188891  0.57316771  0.23158007  1
  Te  Te121  1  0.78939469  0.55870887  0.56546039  1
  Te  Te122  1  0.72972590  0.58976508  0.90925731  1
  Te  Te123  1  0.73514815  0.92414771  0.25445769  1
  Te  Te124  1  0.75451972  0.94632180  0.57060050  1
  Te  Te125  1  0.75857073  0.90018536  0.92211772  1
  Te  Te126  1  0.29095249  0.26114174  0.06192324  1
  Te  Te127  1  0.23889325  0.25948485  0.42315054  1
  Te  Te128  1  0.26692938  0.26210448  0.73924153  1
  Te  Te129  1  0.25925552  0.57760230  0.09042918  1
  Te  Te130  1  0.24297394  0.59155568  0.41533527  1
  Te  Te131  1  0.25928125  0.56292289  0.77179499  1
  Te  Te132  1  0.27768801  0.94351863  0.08274911  1
  Te  Te133  1  0.26641883  0.90145153  0.41783278  1
  Te  Te134  1  0.24482028  0.93320429  0.76461334  1
  Te  Te135  1  0.56032271  0.26795213  0.09069785  1
  Te  Te136  1  0.55811228  0.25552769  0.43603514  1
  Te  Te137  1  0.58646241  0.25566478  0.75436981  1
  Te  Te138  1  0.56757906  0.57073086  0.06111536  1
  Te  Te139  1  0.59967331  0.56222453  0.44266016  1
  Te  Te140  1  0.58831290  0.59008502  0.74266938  1
  Te  Te141  1  0.56843652  0.93054798  0.10094766  1
  Te  Te142  1  0.58397451  0.92349645  0.40620982  1
  Te  Te143  1  0.60025299  0.93433490  0.75022796  1
  Te  Te144  1  0.92011595  0.25849872  0.08757224  1
  Te  Te145  1  0.92483771  0.24575223  0.42316275  1
  Te  Te146  1  0.93362817  0.24144994  0.75545248  1
  Te  Te147  1  0.92443867  0.59971819  0.07322295  1
  Te  Te148  1  0.91757146  0.60068428  0.41575466  1
  Te  Te149  1  0.90605750  0.57549984  0.74468217  1
  Te  Te150  1  0.90093711  0.88962560  0.08030229  1
  Te  Te151  1  0.91503051  0.93037789  0.41678278  1
  Te  Te152  1  0.92665272  0.91343265  0.74706108  1
  Te  Te153  1  0.27221308  0.11431429  0.22786913  1
  Te  Te154  1  0.25230425  0.08281129  0.58610406  1
  Te  Te155  1  0.26889567  0.06313871  0.93765080  1
  Te  Te156  1  0.26394516  0.43169057  0.24894009  1
  Te  Te157  1  0.23879191  0.40215039  0.57668263  1
  Te  Te158  1  0.28318009  0.40121992  0.93522010  1
  Te  Te159  1  0.26523746  0.76750253  0.23339189  1
  Te  Te160  1  0.25008722  0.73934799  0.57068940  1
  Te  Te161  1  0.24286616  0.74086181  0.91320786  1
  Te  Te162  1  0.57550831  0.07366526  0.24181562  1
  Te  Te163  1  0.58702041  0.07754039  0.58820347  1
  Te  Te164  1  0.58734727  0.09419198  0.91821297  1
  Te  Te165  1  0.56335662  0.40336580  0.24467518  1
  Te  Te166  1  0.59200690  0.43398673  0.56220369  1
  Te  Te167  1  0.56665284  0.43727843  0.92487464  1
  Te  Te168  1  0.59071625  0.74238743  0.25373102  1
  Te  Te169  1  0.58760864  0.73882158  0.57442523  1
  Te  Te170  1  0.55845546  0.76208420  0.94321038  1
  Te  Te171  1  0.93018469  0.07913180  0.25724321  1
  Te  Te172  1  0.91475376  0.08255397  0.56475125  1
  Te  Te173  1  0.93341819  0.08385737  0.90334573  1
  Te  Te174  1  0.92853057  0.40269057  0.28385985  1
  Te  Te175  1  0.87992125  0.43222867  0.59155742  1
  Te  Te176  1  0.91307589  0.40969687  0.92542822  1
  Te  Te177  1  0.93141782  0.74650330  0.25811839  1
  Te  Te178  1  0.90018679  0.73904913  0.56895571  1
  Te  Te179  1  0.91785219  0.75171864  0.92733205  1
