# generated using pymatgen
data_In2Te3
_symmetry_space_group_name_H-M   'P 1'
_cell_length_a   18.97313436
_cell_length_b   18.99769312
_cell_length_c   18.96371920
_cell_angle_alpha   90.11190827
_cell_angle_beta   89.97520481
_cell_angle_gamma   90.12621137
_symmetry_Int_Tables_number   1
_chemical_formula_structural   In2Te3
_chemical_formula_sum   'In72 Te108'
_cell_volume   6835.36238633
_cell_formula_units_Z   36
loop_
 _symmetry_equiv_pos_site_id
 _symmetry_equiv_pos_as_xyz
  1  'x, y, z'
loop_
 _atom_site_type_symbol
 _atom_site_label
 _atom_site_symmetry_multiplicity
 _atom_site_fract_x
 _atom_site_fract_y
 _atom_site_fract_z
 _atom_site_occupancy
  In  In0  1  0.32430536  0.00403096  0.30524196  1
  In  In1  1  0.00220702  0.14518449  0.51528832  1
  In  In2  1  0.00943489  0.49387700  0.17735929  1
  In  In3  1  0.32191268  0.82503357  0.17142959  1
  In  In4  1  0.32234543  0.65698602  0.00444465  1
  In  In5  1  0.02719267  0.93926294  0.80260093  1
  In  In6  1  0.59106657  0.28867921  0.01669814  1
  In  In7  1  0.65366166  0.00504600  0.67144432  1
  In  In8  1  -0.00098947  0.32932278  0.67738381  1
  In  In9  1  0.68732831  0.50841842  0.50106744  1
  In  In10  1  0.00818402  0.50416879  0.86100937  1
  In  In11  1  0.16468991  0.84039308  -0.01507121  1
  In  In12  1  0.19988969  0.64726000  0.17215163  1
  In  In13  1  0.01182890  0.31433886  0.31771361  1
  In  In14  1  0.83479968  0.15821972  -0.02353066  1
  In  In15  1  0.49174952  0.16000139  0.30246647  1
  In  In16  1  0.68126925  0.82105084  0.82646648  1
  In  In17  1  0.85154777  0.00613547  0.50984441  1
  In  In18  1  0.18338742  0.49386274  0.65006866  1
  In  In19  1  0.64192012  0.48621717  0.84987490  1
  In  In20  1  -0.01581987  0.70273677  0.66210645  1
  In  In21  1  0.48352240  0.35073138  0.50178712  1
  In  In22  1  0.66945912  0.67845273  -0.00631738  1
  In  In23  1  0.00204378  0.85321218  0.17124612  1
  In  In24  1  0.46892922  0.64085517  0.18767073  1
  In  In25  1  0.36676849  0.84198595  0.83190920  1
  In  In26  1  0.63976865  0.19927319  0.83465145  1
  In  In27  1  0.63879533  0.51139359  0.17764764  1
  In  In28  1  0.67086828  0.67534152  0.31773018  1
  In  In29  1  0.49771444  0.64269753  0.48615258  1
  In  In30  1  0.14073104  0.33417448  0.49749355  1
  In  In31  1  0.25446776  0.52119534  0.34405913  1
  In  In32  1  0.84953043  0.50673319  0.01164182  1
  In  In33  1  -0.00014960  0.50446308  0.52550141  1
  In  In34  1  0.32470010  0.32829296  0.68511444  1
  In  In35  1  0.65113946  0.15165346  0.49717754  1
  In  In36  1  0.00325480  0.15889360  0.83172885  1
  In  In37  1  0.83874718  0.68914408  0.82606753  1
  In  In38  1  0.64112326  0.35253691  0.31786538  1
  In  In39  1  0.15518816  0.82216875  0.32942465  1
  In  In40  1  0.79735922  0.33206191  0.15700255  1
  In  In41  1  0.33724926  0.01834354  0.70394806  1
  In  In42  1  0.82813465  0.86500019  0.01404203  1
  In  In43  1  0.82421461  0.85291643  0.33839431  1
  In  In44  1  0.83480700  0.15940644  0.66380282  1
  In  In45  1  0.83215967  0.17773017  0.34074808  1
  In  In46  1  0.18164814  0.81993811  0.66841476  1
  In  In47  1  0.65235505  0.32464765  0.66510779  1
  In  In48  1  -0.00833055  -0.00067091  0.33312019  1
  In  In49  1  0.51354846  0.82922052  0.65987640  1
  In  In50  1  0.32200193  0.16884796  0.49903308  1
  In  In51  1  0.82191296  0.50805036  0.34087405  1
  In  In52  1  0.67920571  0.83960624  0.17189540  1
  In  In53  1  0.15307729  0.30542960  0.85427673  1
  In  In54  1  0.35558398  0.81112477  0.50224011  1
  In  In55  1  0.17374717  -0.00981947  0.50559140  1
  In  In56  1  0.50147928  0.65330927  0.81895918  1
  In  In57  1  0.50421415  0.00212475  0.14637846  1
  In  In58  1  0.01743548  0.68520761  -0.01005815  1
  In  In59  1  0.66539140  0.83693827  0.49548617  1
  In  In60  1  0.32903586  0.33361781  0.34261088  1
  In  In61  1  0.66066308  0.02472110  -0.00862885  1
  In  In62  1  0.81871310  0.49737360  0.67699309  1
  In  In63  1  -0.00388362  0.68166239  0.34560194  1
  In  In64  1  0.33274706  0.47547068  0.84198222  1
  In  In65  1  -0.00983483  0.31812296  -0.00095662  1
  In  In66  1  0.34781305  0.04998447  -0.05962215  1
  In  In67  1  0.15450238  0.65808685  0.81146654  1
  In  In68  1  0.18867583  0.04248197  0.13237734  1
  In  In69  1  0.36798716  0.30210727  -0.01456938  1
  In  In70  1  0.51514750  -0.01032713  0.49799157  1
  In  In71  1  0.16820273  0.30500430  0.14783614  1
  Te  Te72  1  0.07183816  0.07115054  0.05043967  1
  Te  Te73  1  0.09284306  0.08039229  0.41347415  1
  Te  Te74  1  0.10545413  0.06650784  0.77405338  1
  Te  Te75  1  0.08143622  0.41324785  0.07338478  1
  Te  Te76  1  0.06291982  0.42863803  0.40890365  1
  Te  Te77  1  0.09528023  0.41965580  0.76026377  1
  Te  Te78  1  0.10566092  0.75502710  0.09948363  1
  Te  Te79  1  0.09543848  0.74189040  0.43656441  1
  Te  Te80  1  0.06465605  0.77228256  0.77160362  1
  Te  Te81  1  0.41007956  0.09526818  0.07414610  1
  Te  Te82  1  0.41288903  0.07797282  0.41775396  1
  Te  Te83  1  0.42670714  0.08821335  0.80247833  1
  Te  Te84  1  0.45411189  0.39320529  0.06785495  1
  Te  Te85  1  0.43096986  0.43310787  0.38946809  1
  Te  Te86  1  0.42562833  0.42070440  0.74089933  1
  Te  Te87  1  0.41552244  0.74359172  0.08556072  1
  Te  Te88  1  0.45401063  0.76015189  0.40862323  1
  Te  Te89  1  0.41300407  0.73930864  0.72975802  1
  Te  Te90  1  0.74927810  0.09930630  0.07988446  1
  Te  Te91  1  0.75227218  0.07152912  0.41733593  1
  Te  Te92  1  0.73053488  0.10247638  0.75780427  1
  Te  Te93  1  0.73089635  0.43944914  0.07545943  1
  Te  Te94  1  0.74969757  0.39796759  0.41533434  1
  Te  Te95  1  0.73784723  0.40321851  0.76374340  1
  Te  Te96  1  0.76687233  0.74685048  0.08633147  1
  Te  Te97  1  0.75876240  0.74347652  0.41961559  1
  Te  Te98  1  0.76444462  0.75934289  0.72270295  1
  Te  Te99  1  0.06728866  0.22382768  0.21853451  1
  Te  Te100  1  0.09041339  0.23574150  0.60218500  1
  Te  Te101  1  0.08648986  0.20970993  0.95604542  1
  Te  Te102  1  0.08887399  0.59135748  0.26113864  1
  Te  Te103  1  0.08613742  0.59968047  0.60365849  1
  Te  Te104  1  0.11446072  0.58045796  0.93649571  1
  Te  Te105  1  0.10754161  0.93774344  0.24346639  1
  Te  Te106  1  0.08917548  0.90043872  0.58669416  1
  Te  Te107  1  0.07509854  0.95369750  0.94549647  1
  Te  Te108  1  0.40447317  0.25754943  0.23887484  1
  Te  Te109  1  0.41531607  0.24684111  0.58870951  1
  Te  Te110  1  0.43614816  0.22900928  0.87490613  1
  Te  Te111  1  0.39211305  0.55866859  0.28651706  1
  Te  Te112  1  0.39637732  0.55669943  0.54834593  1
  Te  Te113  1  0.41795290  0.57556883  0.91843094  1
  Te  Te114  1  0.42344230  0.91131421  0.24335812  1
  Te  Te115  1  0.40952507  0.92704783  0.59820502  1
  Te  Te116  1  0.41631466  0.91960627  0.94434661  1
  Te  Te117  1  0.72281057  0.24252939  0.25240989  1
  Te  Te118  1  0.74440313  0.24283390  0.57515678  1
  Te  Te119  1  0.72181962  0.26201520  0.94479175  1
  Te  Te120  1  0.76044202  0.58883247  0.23008963  1
  Te  Te121  1  0.77339020  0.59675736  0.58104135  1
  Te  Te122  1  0.75994711  0.58713972  0.90882402  1
  Te  Te123  1  0.76734985  0.93806343  0.23549352  1
  Te  Te124  1  0.74964647  0.92339344  0.58816033  1
  Te  Te125  1  0.74858114  0.93122258  0.90477772  1
  Te  Te126  1  0.26651865  0.23093469  0.06680037  1
  Te  Te127  1  0.22531113  0.24346474  0.41040270  1
  Te  Te128  1  0.24793707  0.22986875  0.76804193  1
  Te  Te129  1  0.28042184  0.55217458  0.09708058  1
  Te  Te130  1  0.27554758  0.59350066  0.47162739  1
  Te  Te131  1  0.26457995  0.57736827  0.74711697  1
  Te  Te132  1  0.25927553  0.92139352  0.07296726  1
  Te  Te133  1  0.26335056  0.90809029  0.41369001  1
  Te  Te134  1  0.24985029  0.91280041  0.76819199  1
  Te  Te135  1  0.52099942  0.19833274  0.11006085  1
  Te  Te136  1  0.56949749  0.25063135  0.41598391  1
  Te  Te137  1  0.54262281  0.28791728  0.76268401  1
  Te  Te138  1  0.56987268  0.59998901  0.07680702  1
  Te  Te139  1  0.59743447  0.56886585  0.39514050  1
  Te  Te140  1  0.60308781  0.57912602  0.74572213  1
  Te  Te141  1  0.59460872  0.90916000  0.06759567  1
  Te  Te142  1  0.59394434  0.91889712  0.39799411  1
  Te  Te143  1  0.57524890  0.91705180  0.76508252  1
  Te  Te144  1  0.90054789  0.24247176  0.09267729  1
  Te  Te145  1  0.93143598  0.24902871  0.43135783  1
  Te  Te146  1  0.90127500  0.25381931  0.76313552  1
  Te  Te147  1  0.93989072  0.59895711  0.08908635  1
  Te  Te148  1  0.91262656  0.58773709  0.43163083  1
  Te  Te149  1  0.93041025  0.58053371  0.75657642  1
  Te  Te150  1  0.92705421  0.94614455  0.08752938  1
  Te  Te151  1  0.94042466  0.90121013  0.43792367  1
  Te  Te152  1  0.90537072  0.94036160  0.72480969  1
  Te  Te153  1  0.25391404  0.11381795  0.24223206  1
  Te  Te154  1  0.24664483  0.08455037  0.60023956  1
  Te  Te155  1  0.22979128  0.09848654  0.86617432  1
  Te  Te156  1  0.22702649  0.40552045  0.25347111  1
  Te  Te157  1  0.26034545  0.39900794  0.56274724  1
  Te  Te158  1  0.24955716  0.39046377  0.93376397  1
  Te  Te159  1  0.26720931  0.73363565  0.27808731  1
  Te  Te160  1  0.25947273  0.72911021  0.57938915  1
  Te  Te161  1  0.25143723  0.74650205  0.90122304  1
  Te  Te162  1  0.58724481  0.06313564  0.25201760  1
  Te  Te163  1  0.55579345  0.09635512  0.60160859  1
  Te  Te164  1  0.55907722  0.09811333  0.90995273  1
  Te  Te165  1  0.54967845  0.39755436  0.20948286  1
  Te  Te166  1  0.58367096  0.43122757  0.58235977  1
  Te  Te167  1  0.54869878  0.41343943  0.94494790  1
  Te  Te168  1  0.57185356  0.74757934  0.23199591  1
  Te  Te169  1  0.59037821  0.73296721  0.57589741  1
  Te  Te170  1  0.57179811  0.75490857  0.90834536  1
  Te  Te171  1  0.91051668  0.08965721  0.25313049  1
  Te  Te172  1  0.94496118  0.05361521  0.62953519  1
  Te  Te173  1  0.90019330  0.06543904  0.88129575  1
  Te  Te174  1  0.90114051  0.41053813  0.24640129  1
  Te  Te175  1  0.90448619  0.40507069  0.58857078  1
  Te  Te176  1  0.90373940  0.40673326  0.91133297  1
  Te  Te177  1  0.91055993  0.76174090  0.25073037  1
  Te  Te178  1  0.95139237  0.78695698  0.54812334  1
  Te  Te179  1  0.91687372  0.77454972  0.92332077  1
