# generated using pymatgen
data_In2Te3
_symmetry_space_group_name_H-M   'P 1'
_cell_length_a   18.79445596
_cell_length_b   18.80896674
_cell_length_c   18.80941364
_cell_angle_alpha   89.89570586
_cell_angle_beta   90.05918597
_cell_angle_gamma   90.02994279
_symmetry_Int_Tables_number   1
_chemical_formula_structural   In2Te3
_chemical_formula_sum   'In72 Te108'
_cell_volume   6649.19308236
_cell_formula_units_Z   36
loop_
 _symmetry_equiv_pos_site_id
 _symmetry_equiv_pos_as_xyz
  1  'x, y, z'
loop_
 _atom_site_type_symbol
 _atom_site_label
 _atom_site_symmetry_multiplicity
 _atom_site_fract_x
 _atom_site_fract_y
 _atom_site_fract_z
 _atom_site_occupancy
  In  In0  1  0.50261179  0.50435362  0.01080285  1
  In  In1  1  0.03269169  0.46062558  0.15644381  1
  In  In2  1  0.65968918  0.33878784  0.32498610  1
  In  In3  1  0.50295723  0.32328250  0.15842891  1
  In  In4  1  0.85267169  0.17250818  0.00578093  1
  In  In5  1  0.82381265  0.83628471  0.66980251  1
  In  In6  1  0.67782787  0.85374822  0.84592353  1
  In  In7  1  -0.00941687  0.67877438  0.32619272  1
  In  In8  1  0.35012552  0.83404458  0.47195169  1
  In  In9  1  0.66739915  0.18519552  0.48295096  1
  In  In10  1  0.34906196  0.18228935  0.87475146  1
  In  In11  1  0.82388370  -0.00268661  0.47347109  1
  In  In12  1  0.34266939  0.80284598  0.84022932  1
  In  In13  1  0.83008566  0.31683505  0.16745055  1
  In  In14  1  0.66714645  0.01184196  -0.00614040  1
  In  In15  1  0.16011051  -0.01701816  0.18022660  1
  In  In16  1  0.33500411  0.34467306  0.33848262  1
  In  In17  1  0.83642578  0.52189989  0.33880027  1
  In  In18  1  0.82657573  0.15246096  0.32836266  1
  In  In19  1  0.35945929  0.01753090  0.04915393  1
  In  In20  1  0.48420051  0.31609286  0.85651928  1
  In  In21  1  0.81438240  0.67368061  0.48974580  1
  In  In22  1  0.15502780  0.01399121  0.45937928  1
  In  In23  1  0.85285425  0.67173609  0.85624512  1
  In  In24  1  0.48085377  0.63777214  0.19203519  1
  In  In25  1  0.16389342  0.64671085  0.48225410  1
  In  In26  1  0.66315790  0.01092460  0.65780085  1
  In  In27  1  0.00820497  0.63516445  0.67428001  1
  In  In28  1  0.01804805  0.15377303  0.48189034  1
  In  In29  1  0.85012791  0.32680817  0.51876844  1
  In  In30  1  0.34992618  0.18945517  0.49815588  1
  In  In31  1  0.36516792  0.63977435  0.65029513  1
  In  In32  1  0.64133086  0.49237823  0.50088671  1
  In  In33  1  0.16111315  0.32672508  0.86598983  1
  In  In34  1  0.16318698  0.69228622  0.15450364  1
  In  In35  1  0.34494555  0.83723076  0.19131887  1
  In  In36  1  0.65718559  0.16448490  0.85387303  1
  In  In37  1  0.01398000  0.49926737  0.84606364  1
  In  In38  1  0.03417422  0.31838378  0.29747232  1
  In  In39  1  0.16614469  0.16297138  0.66928588  1
  In  In40  1  0.16431200  0.65282371  0.86025928  1
  In  In41  1  0.32935896  0.33721465  0.65144610  1
  In  In42  1  0.82421590  0.67301460  0.15216081  1
  In  In43  1  0.16696623  0.81555549  0.65651868  1
  In  In44  1  0.52415204  -0.00120560  0.83850954  1
  In  In45  1  0.31269361  0.48187308  0.82822142  1
  In  In46  1  0.82315566  0.34688048  0.84336190  1
  In  In47  1  0.47889830  0.19488575  0.65861310  1
  In  In48  1  0.81139667  0.16687648  0.67306096  1
  In  In49  1  0.84703356  0.00662313  0.16881967  1
  In  In50  1  0.17746399  0.48890287  0.33572582  1
  In  In51  1  0.49975457  0.65483915  0.47415730  1
  In  In52  1  0.15396843  0.00126336  0.83192282  1
  In  In53  1  0.00839562  0.00065766  0.66769849  1
  In  In54  1  0.65453638  0.66046786  0.64474235  1
  In  In55  1  0.35008672  -0.00816940  0.65556815  1
  In  In56  1  -0.01970038  0.82515091  0.47514153  1
  In  In57  1  0.82956004  0.48921916  0.00891476  1
  In  In58  1  0.50376838  0.84421713  0.00569319  1
  In  In59  1  0.66681003  0.49854816  0.83312530  1
  In  In60  1  -0.01287184  0.83664725  0.86111944  1
  In  In61  1  0.32051808  0.64477625  0.01310402  1
  In  In62  1  0.53352297  -0.02327418  0.45455749  1
  In  In63  1  -0.01839925  0.00008552  0.00061852  1
  In  In64  1  0.67884538  0.50922913  0.18009147  1
  In  In65  1  0.33986426  0.02613910  0.30634268  1
  In  In66  1  0.19059471  0.34976028  0.48627376  1
  In  In67  1  -0.00862950  0.34541475  0.68094565  1
  In  In68  1  0.82628389  0.82358143  0.32747722  1
  In  In69  1  0.17914631  0.17548311  0.01721396  1
  In  In70  1  0.65712286  0.81874517  0.17126168  1
  In  In71  1  0.51166419  0.67271426  0.82025221  1
  Te  Te72  1  0.08192920  0.07654952  0.08612124  1
  Te  Te73  1  0.06650093  0.08233012  0.35872619  1
  Te  Te74  1  0.06299028  0.10470117  0.76568944  1
  Te  Te75  1  0.12127906  0.38727788  0.06092673  1
  Te  Te76  1  0.07022373  0.41026059  0.41404686  1
  Te  Te77  1  0.10462256  0.41667483  0.75446704  1
  Te  Te78  1  0.06133174  0.74715509  0.06671565  1
  Te  Te79  1  0.09846848  0.75935523  0.40200798  1
  Te  Te80  1  0.07582823  0.75029085  0.76134256  1
  Te  Te81  1  0.41637713  0.13970716  0.12311000  1
  Te  Te82  1  0.42734663  0.08266126  0.41955743  1
  Te  Te83  1  0.41940263  0.08546698  0.75468019  1
  Te  Te84  1  0.40998619  0.41888509  0.08761758  1
  Te  Te85  1  0.40005715  0.46016451  0.40885495  1
  Te  Te86  1  0.42070978  0.41000316  0.75131906  1
  Te  Te87  1  0.42072004  0.74209436  0.08310094  1
  Te  Te88  1  0.42912742  0.75028253  0.37871776  1
  Te  Te89  1  0.42965553  0.75954919  0.72445345  1
  Te  Te90  1  0.74911918  0.09586229  0.09012583  1
  Te  Te91  1  0.71420952  0.06851404  0.39447201  1
  Te  Te92  1  0.74565007  0.06954825  0.77164045  1
  Te  Te93  1  0.73061114  0.40112177  0.08642072  1
  Te  Te94  1  0.75993597  0.41110893  0.41530941  1
  Te  Te95  1  0.74862670  0.41943572  0.73978897  1
  Te  Te96  1  0.74446316  0.76328201  0.06598648  1
  Te  Te97  1  0.72093028  0.77069961  0.42312522  1
  Te  Te98  1  0.74736652  0.73698289  0.75618917  1
  Te  Te99  1  0.13735942  0.23663706  0.22995251  1
  Te  Te100  1  0.08194163  0.25408863  0.58005096  1
  Te  Te101  1  0.07081917  0.23057478  0.92981720  1
  Te  Te102  1  0.07585059  0.57564120  0.25315827  1
  Te  Te103  1  0.10079695  0.56206389  0.58606619  1
  Te  Te104  1  0.07852624  0.57844207  0.95354501  1
  Te  Te105  1  0.06922988  0.93224231  0.28462046  1
  Te  Te106  1  0.08829921  0.91582965  0.56796117  1
  Te  Te107  1  0.09690951  0.91006925  0.93688242  1
  Te  Te108  1  0.42487257  0.24937793  0.26518478  1
  Te  Te109  1  0.44618803  0.30229203  0.54739476  1
  Te  Te110  1  0.38559571  0.29323414  0.96689430  1
  Te  Te111  1  0.39789100  0.55519633  0.28432587  1
  Te  Te112  1  0.43201118  0.54627475  0.55729059  1
  Te  Te113  1  0.41530223  0.58424092  0.90159167  1
  Te  Te114  1  0.44363046  0.93904394  0.24155525  1
  Te  Te115  1  0.44190573  0.91444437  0.56507931  1
  Te  Te116  1  0.40859310  0.92153221  0.91286606  1
  Te  Te117  1  0.72725699  0.23140543  0.24047922  1
  Te  Te118  1  0.72974161  0.26899763  0.59459547  1
  Te  Te119  1  0.74211843  0.25780107  0.93746358  1
  Te  Te120  1  0.73980641  0.61823566  0.27025301  1
  Te  Te121  1  0.75680395  0.56861576  0.58070940  1
  Te  Te122  1  0.74607704  0.58856200  0.92883192  1
  Te  Te123  1  0.74235082  0.92217269  0.24558618  1
  Te  Te124  1  0.73850943  0.91204592  0.56855080  1
  Te  Te125  1  0.76815972  0.91317410  0.94546692  1
  Te  Te126  1  0.23082617  0.28305864  0.11211101  1
  Te  Te127  1  0.23917997  0.23302140  0.40531230  1
  Te  Te128  1  0.26009708  0.24466879  0.75755155  1
  Te  Te129  1  0.24807882  0.57504701  0.11950714  1
  Te  Te130  1  0.27479116  0.58659454  0.39857577  1
  Te  Te131  1  0.25265130  0.59711352  0.74825162  1
  Te  Te132  1  0.25794413  0.90877825  0.08878924  1
  Te  Te133  1  0.25697377  0.92435844  0.39100479  1
  Te  Te134  1  0.24933669  0.91343666  0.74567268  1
  Te  Te135  1  0.56592356  0.20002042  0.09649502  1
  Te  Te136  1  0.56587469  0.24480474  0.39262210  1
  Te  Te137  1  0.58285299  0.25388309  0.75491059  1
  Te  Te138  1  0.59115632  0.59929376  0.09073013  1
  Te  Te139  1  0.60660084  0.58623207  0.39343169  1
  Te  Te140  1  0.57176508  0.56508497  0.73175795  1
  Te  Te141  1  0.57858960  0.93847992  0.09617206  1
  Te  Te142  1  0.60167063  0.86920342  0.38071385  1
  Te  Te143  1  0.58346510  0.90460785  0.73597619  1
  Te  Te144  1  0.94116351  0.25454412  0.09350151  1
  Te  Te145  1  0.91927179  0.25141102  0.40474945  1
  Te  Te146  1  0.90694279  0.24688857  0.76105438  1
  Te  Te147  1  0.91779374  0.55982436  0.11015841  1
  Te  Te148  1  0.93223518  0.58987221  0.43572158  1
  Te  Te149  1  0.90370522  0.56468601  0.76061007  1
  Te  Te150  1  0.92330700  0.90197565  0.09640681  1
  Te  Te151  1  0.92795819  0.93527988  0.38069161  1
  Te  Te152  1  0.91158929  0.92404603  0.75833073  1
  Te  Te153  1  0.23729562  0.10434460  0.23018071  1
  Te  Te154  1  0.25309385  0.07914815  0.57424346  1
  Te  Te155  1  0.25662118  0.07124196  0.92606987  1
  Te  Te156  1  0.24899364  0.40800552  0.23167377  1
  Te  Te157  1  0.24830871  0.44222739  0.58497056  1
  Te  Te158  1  0.23391089  0.43175208  0.94524110  1
  Te  Te159  1  0.24812897  0.75060197  0.26027881  1
  Te  Te160  1  0.26843870  0.74209059  0.57014851  1
  Te  Te161  1  0.24112774  0.75708910  0.94204390  1
  Te  Te162  1  0.53317163  0.07907279  0.19595580  1
  Te  Te163  1  0.56941931  0.09891234  0.57725228  1
  Te  Te164  1  0.54639676  0.10623581  0.94289241  1
  Te  Te165  1  0.56732590  0.43272109  0.24951067  1
  Te  Te166  1  0.56935797  0.39448505  0.58081074  1
  Te  Te167  1  0.58605643  0.40775575  0.92738300  1
  Te  Te168  1  0.55304714  0.75397998  0.26135711  1
  Te  Te169  1  0.56807625  0.74961064  0.56843398  1
  Te  Te170  1  0.59167132  0.75182709  0.92295950  1
  Te  Te171  1  0.92972922  0.11538729  0.22889979  1
  Te  Te172  1  0.90751342  0.08515069  0.57667388  1
  Te  Te173  1  0.89951804  0.07607381  0.90422967  1
  Te  Te174  1  0.91073307  0.41750980  0.25383610  1
  Te  Te175  1  0.92498593  0.43470587  0.58459889  1
  Te  Te176  1  0.93124560  0.40453493  0.93452189  1
  Te  Te177  1  0.92452218  0.76836092  0.22268611  1
  Te  Te178  1  0.92401026  0.74669230  0.59634588  1
  Te  Te179  1  0.94501870  0.72857025  0.96090333  1
