# generated using pymatgen
data_In2Te3
_symmetry_space_group_name_H-M   'P 1'
_cell_length_a   18.97075072
_cell_length_b   19.02229509
_cell_length_c   18.98716955
_cell_angle_alpha   90.46008427
_cell_angle_beta   89.91829448
_cell_angle_gamma   90.06442806
_symmetry_Int_Tables_number   1
_chemical_formula_structural   In2Te3
_chemical_formula_sum   'In72 Te108'
_cell_volume   6851.61494376
_cell_formula_units_Z   36
loop_
 _symmetry_equiv_pos_site_id
 _symmetry_equiv_pos_as_xyz
  1  'x, y, z'
loop_
 _atom_site_type_symbol
 _atom_site_label
 _atom_site_symmetry_multiplicity
 _atom_site_fract_x
 _atom_site_fract_y
 _atom_site_fract_z
 _atom_site_occupancy
  In  In0  1  0.00447904  0.50784080  0.16001390  1
  In  In1  1  0.65784904  0.49358114  0.14594365  1
  In  In2  1  0.67135383  0.52421001  0.49290773  1
  In  In3  1  0.83740093  0.14562007  0.66681813  1
  In  In4  1  0.35858872  0.48540714  0.15879605  1
  In  In5  1  -0.00633001  0.65368163  0.00378292  1
  In  In6  1  0.16554016  0.82074938  0.34422530  1
  In  In7  1  0.33972310  0.16078348  0.46629267  1
  In  In8  1  0.65157542  0.15181423  0.53406437  1
  In  In9  1  0.50848102  -0.00017679  0.14047712  1
  In  In10  1  0.16517769  0.18160879  0.31545484  1
  In  In11  1  0.66821770  -0.02658224  0.67882730  1
  In  In12  1  0.81604194  0.51414187  0.31995581  1
  In  In13  1  0.46922384  0.52599038  0.61825619  1
  In  In14  1  0.51734497  0.82317596  -0.00082498  1
  In  In15  1  0.48236132  0.15463275  -0.02614176  1
  In  In16  1  0.32800939  0.32102344  0.66571171  1
  In  In17  1  0.00634664  0.84437921  0.51297789  1
  In  In18  1  0.84244680  0.17756571  0.35288650  1
  In  In19  1  0.18893538  -0.00685121  0.17628658  1
  In  In20  1  0.65722315  0.84441620  0.44049826  1
  In  In21  1  0.16820340  0.33215453  0.13961285  1
  In  In22  1  0.16509621  0.13314088  0.68631902  1
  In  In23  1  0.52141203  0.68879163  0.17897966  1
  In  In24  1  0.31152573  0.51531522  0.45432668  1
  In  In25  1  0.84048332  0.68051249  0.81474818  1
  In  In26  1  0.00098894  0.68140549  0.66424868  1
  In  In27  1  0.33292938  0.69119205  0.32742799  1
  In  In28  1  -0.02722381  0.16847735  0.51231579  1
  In  In29  1  0.00569868  0.00525480  0.35745487  1
  In  In30  1  0.65610424  0.49424382  0.83249206  1
  In  In31  1  0.67238484  0.01089441  -0.01148588  1
  In  In32  1  0.36047899  -0.00307471  0.32424885  1
  In  In33  1  0.50856054  0.32604085  0.84260789  1
  In  In34  1  0.34017612  0.83331707  0.85074895  1
  In  In35  1  0.49614915  0.34711845  0.49432822  1
  In  In36  1  0.20293102  0.15515362  -0.01294989  1
  In  In37  1  -0.00917804  0.34018575  0.67700269  1
  In  In38  1  0.68339419  0.33412966  0.67691796  1
  In  In39  1  0.64242148  0.17142690  0.13961593  1
  In  In40  1  0.81256916  0.51008356  0.69057975  1
  In  In41  1  0.49156965  0.66908924  0.82500974  1
  In  In42  1  -0.01950242  0.51346585  0.50008460  1
  In  In43  1  0.32696512  0.47380299  0.83242184  1
  In  In44  1  0.14169230  0.64102478  0.84131566  1
  In  In45  1  0.49938535  0.11068035  0.76501688  1
  In  In46  1  0.83925685  0.82095563  0.01817749  1
  In  In47  1  0.51742524  0.15048935  0.33118339  1
  In  In48  1  0.17620946  0.32924220  0.85861214  1
  In  In49  1  0.67556199  0.66639996  0.00836116  1
  In  In50  1  0.72675530  0.81560045  0.25004124  1
  In  In51  1  0.13085877  0.34851943  0.50059244  1
  In  In52  1  0.16741367  0.85669813  0.01653495  1
  In  In53  1  0.00677504  -0.01321357  0.02290673  1
  In  In54  1  0.16499538  0.50092516  0.66082704  1
  In  In55  1  0.82712026  0.00217129  0.51061805  1
  In  In56  1  0.33621195  0.66604791  0.00765284  1
  In  In57  1  0.17593739  0.66223995  0.15364602  1
  In  In58  1  0.80419549  0.18076804  -0.02193551  1
  In  In59  1  0.81150680  0.34167912  0.15176656  1
  In  In60  1  0.49324859  0.83696122  0.66149940  1
  In  In61  1  0.32867001  0.84843252  0.51742514  1
  In  In62  1  0.16176735  -0.00736024  0.52630281  1
  In  In63  1  0.85519188  0.48782209  -0.00624841  1
  In  In64  1  -0.03506496  0.80835531  0.20337798  1
  In  In65  1  0.85611780  -0.02352040  0.82031744  1
  In  In66  1  0.66191473  0.35614484  0.31984196  1
  In  In67  1  -0.00644361  0.18828631  0.15618150  1
  In  In68  1  0.35409446  0.32620998  0.30898593  1
  In  In69  1  0.01222933  0.14838463  0.83643550  1
  In  In70  1  0.66806615  0.68915817  0.66885035  1
  In  In71  1  0.48089700  0.66844635  0.46980628  1
  Te  Te72  1  0.09593905  0.08866448  0.09671710  1
  Te  Te73  1  0.09238588  0.10821736  0.43198249  1
  Te  Te74  1  0.09554226  0.04091032  0.77897858  1
  Te  Te75  1  0.07331668  0.41721635  0.06407493  1
  Te  Te76  1  0.07532803  0.44470591  0.40997942  1
  Te  Te77  1  0.09369345  0.41348731  0.76085989  1
  Te  Te78  1  0.06548691  0.75715742  0.09350303  1
  Te  Te79  1  0.06177236  0.74962803  0.41549707  1
  Te  Te80  1  0.10095998  0.74713363  0.75143687  1
  Te  Te81  1  0.40378646  0.06104291  0.05711231  1
  Te  Te82  1  0.45310243  0.05497671  0.43840707  1
  Te  Te83  1  0.36470890  0.05783742  0.80368050  1
  Te  Te84  1  0.45090386  0.38186656  0.10975393  1
  Te  Te85  1  0.42457451  0.43237229  0.39393256  1
  Te  Te86  1  0.42635443  0.42079105  0.72666274  1
  Te  Te87  1  0.41568249  0.76164659  0.09169075  1
  Te  Te88  1  0.41760876  0.78962085  0.40728958  1
  Te  Te89  1  0.39650652  0.74523098  0.73831562  1
  Te  Te90  1  0.75895573  0.08779710  0.08883016  1
  Te  Te91  1  0.74022664  0.09135750  0.42525256  1
  Te  Te92  1  0.75070769  0.07090203  0.76316411  1
  Te  Te93  1  0.73365530  0.41049321  0.04299118  1
  Te  Te94  1  0.75295273  0.41646074  0.42313817  1
  Te  Te95  1  0.76972633  0.39348210  0.79104174  1
  Te  Te96  1  0.75161250  0.74239966  0.11266386  1
  Te  Te97  1  0.75287305  0.74637039  0.38280900  1
  Te  Te98  1  0.75789503  0.77699679  0.74389664  1
  Te  Te99  1  0.07092401  0.27737995  0.25090575  1
  Te  Te100  1  0.09258033  0.24804418  0.60652241  1
  Te  Te101  1  0.08562503  0.23653043  0.93593029  1
  Te  Te102  1  0.08426621  0.59694449  0.24704426  1
  Te  Te103  1  0.08929999  0.59316580  0.57339334  1
  Te  Te104  1  0.07694271  0.54476334  0.93852511  1
  Te  Te105  1  0.07597284  0.91846590  0.25200291  1
  Te  Te106  1  0.10311662  0.89376115  0.61373703  1
  Te  Te107  1  0.06894757  0.90369688  0.91897491  1
  Te  Te108  1  0.43320352  0.22490213  0.23855595  1
  Te  Te109  1  0.41895719  0.24313591  0.57134907  1
  Te  Te110  1  0.39540346  0.25476909  0.90516685  1
  Te  Te111  1  0.42028441  0.59634999  0.24470063  1
  Te  Te112  1  0.35757919  0.62495423  0.55923317  1
  Te  Te113  1  0.41219277  0.57631741  0.91285344  1
  Te  Te114  1  0.43907859  0.91087391  0.23670384  1
  Te  Te115  1  0.39765596  0.93606353  0.61112340  1
  Te  Te116  1  0.45743367  0.91181213  0.89668164  1
  Te  Te117  1  0.74285844  0.24625917  0.24854366  1
  Te  Te118  1  0.76261855  0.24518828  0.58138406  1
  Te  Te119  1  0.74327063  0.27357113  0.88781299  1
  Te  Te120  1  0.69440750  0.57712503  0.26321998  1
  Te  Te121  1  0.76230137  0.60422200  0.58380505  1
  Te  Te122  1  0.76010140  0.58719229  0.90798747  1
  Te  Te123  1  0.78552266  0.94237739  0.29507933  1
  Te  Te124  1  0.73446887  0.89814427  0.56598138  1
  Te  Te125  1  0.76256643  0.90702395  0.92013118  1
  Te  Te126  1  0.26244130  0.22804105  0.09921245  1
  Te  Te127  1  0.24731887  0.27117068  0.41629644  1
  Te  Te128  1  0.24981213  0.23622324  0.76143598  1
  Te  Te129  1  0.25322326  0.55935749  0.07385358  1
  Te  Te130  1  0.22625068  0.59813489  0.36956309  1
  Te  Te131  1  0.25321800  0.58028731  0.75504518  1
  Te  Te132  1  0.27770456  0.93965072  0.06986208  1
  Te  Te133  1  0.24020466  0.94051758  0.40637084  1
  Te  Te134  1  0.26673444  0.93761190  0.77399102  1
  Te  Te135  1  0.56046073  0.25572193  0.05471493  1
  Te  Te136  1  0.59309497  0.25376387  0.42221998  1
  Te  Te137  1  0.57975998  0.24310759  0.73946646  1
  Te  Te138  1  0.56433758  0.58801914  0.07148673  1
  Te  Te139  1  0.57836853  0.58337727  0.39544949  1
  Te  Te140  1  0.57998338  0.58041730  0.73071182  1
  Te  Te141  1  0.61417158  0.90563576  0.08089561  1
  Te  Te142  1  0.58066312  0.96550680  0.43046642  1
  Te  Te143  1  0.57220540  0.90410298  0.76841075  1
  Te  Te144  1  0.90603701  0.26442722  0.06134668  1
  Te  Te145  1  0.92739731  0.27310453  0.42406054  1
  Te  Te146  1  0.91710925  0.23734410  0.75976267  1
  Te  Te147  1  0.89253796  0.59145962  0.09737840  1
  Te  Te148  1  0.89959393  0.59960541  0.40951337  1
  Te  Te149  1  0.93162750  0.57642671  0.75448049  1
  Te  Te150  1  0.90623893  0.91704844  0.11497726  1
  Te  Te151  1  0.88991058  0.91475397  0.39971652  1
  Te  Te152  1  0.92490875  0.92780952  0.70101404  1
  Te  Te153  1  0.27265866  0.09653695  0.25019327  1
  Te  Te154  1  0.26689026  0.08861530  0.58036866  1
  Te  Te155  1  0.23227725  0.04499643  0.89030421  1
  Te  Te156  1  0.25215941  0.41340597  0.24028833  1
  Te  Te157  1  0.26100679  0.42026420  0.57071318  1
  Te  Te158  1  0.28816186  0.38196686  0.94101258  1
  Te  Te159  1  0.25051780  0.77275835  0.22770205  1
  Te  Te160  1  0.25076592  0.72945303  0.53851691  1
  Te  Te161  1  0.23288887  0.74175389  0.92767954  1
  Te  Te162  1  0.60443002  0.06599517  0.24105573  1
  Te  Te163  1  0.56561473  0.07377371  0.62765778  1
  Te  Te164  1  0.58725061  0.08512588  0.89032373  1
  Te  Te165  1  0.56309579  0.39788463  0.21643986  1
  Te  Te166  1  0.59574485  0.42087956  0.58487380  1
  Te  Te167  1  0.56129526  0.43458441  0.92541036  1
  Te  Te168  1  0.57995301  0.78937508  0.27034467  1
  Te  Te169  1  0.57418291  0.74725324  0.56440264  1
  Te  Te170  1  0.60132206  0.74152941  0.90052980  1
  Te  Te171  1  0.93070888  0.09650997  0.25915919  1
  Te  Te172  1  0.94534680  0.04751214  0.60579684  1
  Te  Te173  1  0.91527195  0.07374638  0.93178656  1
  Te  Te174  1  0.90448459  0.42069293  0.23955169  1
  Te  Te175  1  0.89919478  0.42591157  0.59595348  1
  Te  Te176  1  0.96321460  0.44370775  0.90710287  1
  Te  Te177  1  0.88638988  0.72485895  0.29469550  1
  Te  Te178  1  0.90774620  0.76695412  0.58993357  1
  Te  Te179  1  0.92882272  0.75617797  0.91312986  1
