# generated using pymatgen
data_In2Te3
_symmetry_space_group_name_H-M   'P 1'
_cell_length_a   18.86068018
_cell_length_b   18.85309667
_cell_length_c   18.84507536
_cell_angle_alpha   89.92562900
_cell_angle_beta   89.88498531
_cell_angle_gamma   89.94928393
_symmetry_Int_Tables_number   1
_chemical_formula_structural   In2Te3
_chemical_formula_sum   'In72 Te108'
_cell_volume   6700.95210542
_cell_formula_units_Z   36
loop_
 _symmetry_equiv_pos_site_id
 _symmetry_equiv_pos_as_xyz
  1  'x, y, z'
loop_
 _atom_site_type_symbol
 _atom_site_label
 _atom_site_symmetry_multiplicity
 _atom_site_fract_x
 _atom_site_fract_y
 _atom_site_fract_z
 _atom_site_occupancy
  In  In0  1  0.65769735  0.16224508  0.18919098  1
  In  In1  1  0.00130683  0.65503324  0.02117815  1
  In  In2  1  0.48891275  0.68591183  0.83081023  1
  In  In3  1  0.65030512  0.50892854  0.84765329  1
  In  In4  1  0.68682931  0.34441238  0.34554150  1
  In  In5  1  0.51075915  0.82430549  0.34003213  1
  In  In6  1  0.84403455  0.49934203  0.01540657  1
  In  In7  1  0.17072826  0.50452835  0.65710181  1
  In  In8  1  0.33502934  0.16189151  0.21288662  1
  In  In9  1  0.18847760  0.33012808  0.81886432  1
  In  In10  1  0.86556809  0.17636043  0.62335864  1
  In  In11  1  0.32544257  0.65129136  0.65699895  1
  In  In12  1  0.49119206  0.16118510  0.04485057  1
  In  In13  1  0.30964148  0.02062039  0.62329903  1
  In  In14  1  0.84114839  0.65913182  0.84013923  1
  In  In15  1  0.00928746  0.00366636  0.32204466  1
  In  In16  1  0.82228534  0.66677750  0.16971212  1
  In  In17  1  0.67939347  0.33121036  0.66731265  1
  In  In18  1  0.16532892  0.66353922  0.17163837  1
  In  In19  1  0.48475227  0.50483615  0.68327385  1
  In  In20  1  0.31059953  0.48216456  0.83938805  1
  In  In21  1  0.02513967  0.66983019  0.67478786  1
  In  In22  1  0.82519927  0.84692773  0.66136163  1
  In  In23  1  0.49078129  0.50006191  0.03268132  1
  In  In24  1  0.85173169  0.17844879  0.34761192  1
  In  In25  1  0.33525016  0.83957147  0.17354173  1
  In  In26  1  0.70444247  0.85924011  0.19483864  1
  In  In27  1  0.51328471  0.34991505  0.83859631  1
  In  In28  1  0.67552353  0.16394278  0.85615840  1
  In  In29  1  0.67398134  0.66419490  0.32056271  1
  In  In30  1  0.65559100  0.83181716  0.49683596  1
  In  In31  1  0.67443777  0.50430619  0.16057052  1
  In  In32  1  0.14365275  -0.01174812  0.82915435  1
  In  In33  1  0.33489424  0.67703396  -0.01111861  1
  In  In34  1  0.18548635  -0.01142802  0.17509994  1
  In  In35  1  0.00707227  0.64844735  0.32621071  1
  In  In36  1  0.00415089  0.85382331  0.48647108  1
  In  In37  1  0.81615722  0.01702180  0.84368730  1
  In  In38  1  0.34165186  0.66230928  0.34328926  1
  In  In39  1  0.15958329  0.18629500  0.35908034  1
  In  In40  1  0.67530070  0.50483038  0.49455970  1
  In  In41  1  0.66278328  0.00509661  -0.00067369  1
  In  In42  1  0.49515714  -0.02350815  0.80495653  1
  In  In43  1  0.33432599  0.31568303  0.60892967  1
  In  In44  1  0.48489436  0.01382775  0.19302067  1
  In  In45  1  -0.03866270  0.85858212  0.15723677  1
  In  In46  1  0.32815209  0.16832208  0.82202206  1
  In  In47  1  0.48241723  0.19520167  0.62320618  1
  In  In48  1  0.84094524  0.65991333  0.49015318  1
  In  In49  1  0.01569732  0.50766822  0.85893201  1
  In  In50  1  0.66792979  0.86230236  0.83418046  1
  In  In51  1  0.31426646  0.85605008  0.48361049  1
  In  In52  1  0.32111354  0.83037494  0.83168473  1
  In  In53  1  -0.00520664  0.81669351  0.83627757  1
  In  In54  1  0.32630275  0.48319030  0.50314245  1
  In  In55  1  0.15688350  0.16554545  -0.00051300  1
  In  In56  1  0.02223547  0.29637614  0.63485715  1
  In  In57  1  0.00456434  0.01062823  0.64646758  1
  In  In58  1  -0.03505176  0.15451859  0.82221480  1
  In  In59  1  0.82437635  0.16807054  0.00987460  1
  In  In60  1  0.66149147  0.00508367  0.65484162  1
  In  In61  1  0.00986542  0.16503711  0.16403693  1
  In  In62  1  0.48888335  0.31058809  0.50949599  1
  In  In63  1  0.33020254  0.34056924  0.00456759  1
  In  In64  1  0.01745348  0.33356101  0.01280010  1
  In  In65  1  0.17341198  0.66190593  0.49348957  1
  In  In66  1  0.33121873  0.49340758  0.18623282  1
  In  In67  1  0.83502368  0.48155637  0.64189256  1
  In  In68  1  0.16828210  0.36693650  0.16594977  1
  In  In69  1  0.49762990  0.83300713  -0.00098105  1
  In  In70  1  0.51767104  0.50652702  0.34414946  1
  In  In71  1  0.67797573  0.14971010  0.50054530  1
  Te  Te72  1  0.08540994  0.06099267  0.08299919  1
  Te  Te73  1  0.06707832  0.08887399  0.43354933  1
  Te  Te74  1  0.08222214  0.09921899  0.74338124  1
  Te  Te75  1  0.06578891  0.44655669  0.09510373  1
  Te  Te76  1  0.03589773  0.39353902  0.41964488  1
  Te  Te77  1  0.08315041  0.41494415  0.74555206  1
  Te  Te78  1  0.07330590  0.76197581  0.10043096  1
  Te  Te79  1  0.08756985  0.75251074  0.40760817  1
  Te  Te80  1  0.09910126  0.77805697  0.73870135  1
  Te  Te81  1  0.38314962  0.07087343  0.09128611  1
  Te  Te82  1  0.40954722  0.12969207  0.36294386  1
  Te  Te83  1  0.42165539  0.08834467  0.72976677  1
  Te  Te84  1  0.42277374  0.39008600  0.11291458  1
  Te  Te85  1  0.42262716  0.40813490  0.41074680  1
  Te  Te86  1  0.39444924  0.39367855  0.73896724  1
  Te  Te87  1  0.42271497  0.74066621  0.09417160  1
  Te  Te88  1  0.41926845  0.75037105  0.43793801  1
  Te  Te89  1  0.40787406  0.75942795  0.72688776  1
  Te  Te90  1  0.75043534  0.07153713  0.10287773  1
  Te  Te91  1  0.74901312  0.07626013  0.39107142  1
  Te  Te92  1  0.75152175  0.10310986  0.73072717  1
  Te  Te93  1  0.77486484  0.40874632  0.10874647  1
  Te  Te94  1  0.77935257  0.43085419  0.42222615  1
  Te  Te95  1  0.74848446  0.42947880  0.75940413  1
  Te  Te96  1  0.74715590  0.76545425  0.09012566  1
  Te  Te97  1  0.75669061  0.75557157  0.40862782  1
  Te  Te98  1  0.75438703  0.75591492  0.76010173  1
  Te  Te99  1  0.08486976  0.26522464  0.24966451  1
  Te  Te100  1  0.10236464  0.19468620  0.55980500  1
  Te  Te101  1  0.07725597  0.24480392  0.89528647  1
  Te  Te102  1  0.10432441  0.55929083  0.25771174  1
  Te  Te103  1  0.07115893  0.57508082  0.56560593  1
  Te  Te104  1  0.09794662  0.61335908  0.91602117  1
  Te  Te105  1  0.08567840  0.89830413  0.24636133  1
  Te  Te106  1  0.09971055  0.91602905  0.58114006  1
  Te  Te107  1  0.06424087  0.91105787  0.92521519  1
  Te  Te108  1  0.45262680  0.23092714  0.26555961  1
  Te  Te109  1  0.36294169  0.19587557  0.50331990  1
  Te  Te110  1  0.41866594  0.24952719  0.91816695  1
  Te  Te111  1  0.43375841  0.58902321  0.24694027  1
  Te  Te112  1  0.42473683  0.58130832  0.56602754  1
  Te  Te113  1  0.42336162  0.56249379  0.90447154  1
  Te  Te114  1  0.40493261  0.91908889  0.28206958  1
  Te  Te115  1  0.41234244  0.93910253  0.55819157  1
  Te  Te116  1  0.40700671  0.92412739  0.91803026  1
  Te  Te117  1  0.76382404  0.25639867  0.24889388  1
  Te  Te118  1  0.76035278  0.26539274  0.55727359  1
  Te  Te119  1  0.76514188  0.26292800  0.91278883  1
  Te  Te120  1  0.76934947  0.56066749  0.26788197  1
  Te  Te121  1  0.74758298  0.59684651  0.59401718  1
  Te  Te122  1  0.74690973  0.58734573  0.93573619  1
  Te  Te123  1  0.78045069  0.93342173  0.29553792  1
  Te  Te124  1  0.75921764  0.93649839  0.56091904  1
  Te  Te125  1  0.76932470  0.90780819  0.94349391  1
  Te  Te126  1  0.24674840  0.24487647  0.09233648  1
  Te  Te127  1  0.25383279  0.27759125  0.42904136  1
  Te  Te128  1  0.24816601  0.23749799  0.71300967  1
  Te  Te129  1  0.26062910  0.58052031  0.08257566  1
  Te  Te130  1  0.24274758  0.56205502  0.40189293  1
  Te  Te131  1  0.23547485  0.59203646  0.76419599  1
  Te  Te132  1  0.25210838  0.90612935  0.07261990  1
  Te  Te133  1  0.23452394  0.94749730  0.40199446  1
  Te  Te134  1  0.25674896  0.93555636  0.74085776  1
  Te  Te135  1  0.60395747  0.24583782  0.07775968  1
  Te  Te136  1  0.59367349  0.24691521  0.41710109  1
  Te  Te137  1  0.57717511  0.24800932  0.74503501  1
  Te  Te138  1  0.58848105  0.59565790  0.08300657  1
  Te  Te139  1  0.58483636  0.61022141  0.43211600  1
  Te  Te140  1  0.58484148  0.60031377  0.74463994  1
  Te  Te141  1  0.57246207  0.92577814  0.09406755  1
  Te  Te142  1  0.58364361  0.93065589  0.41229444  1
  Te  Te143  1  0.57541979  0.88339611  0.70929640  1
  Te  Te144  1  0.91347652  0.26081326  0.09504117  1
  Te  Te145  1  0.94841124  0.26429350  0.42484144  1
  Te  Te146  1  0.90739076  0.26660570  0.73853781  1
  Te  Te147  1  0.92999920  0.56727212  0.12251202  1
  Te  Te148  1  0.92235523  0.56341359  0.41513993  1
  Te  Te149  1  0.92297197  0.57437933  0.74278480  1
  Te  Te150  1  0.88723532  0.94209650  0.06275351  1
  Te  Te151  1  0.90530959  0.91360011  0.38932348  1
  Te  Te152  1  0.91070777  0.93457734  0.75385218  1
  Te  Te153  1  0.24559252  0.06477430  0.29846201  1
  Te  Te154  1  0.19111167  0.06529567  0.54209909  1
  Te  Te155  1  0.24478319  0.07911258  0.91089339  1
  Te  Te156  1  0.26512137  0.39353524  0.27410100  1
  Te  Te157  1  0.21048793  0.39672397  0.55615925  1
  Te  Te158  1  0.21662600  0.41949025  0.94144923  1
  Te  Te159  1  0.24851933  0.75215618  0.26485066  1
  Te  Te160  1  0.24371842  0.75727113  0.58581316  1
  Te  Te161  1  0.23121197  0.75517025  0.92152886  1
  Te  Te162  1  0.59815316  0.05783192  0.27844404  1
  Te  Te163  1  0.56004752  0.07513550  0.56373563  1
  Te  Te164  1  0.56188945  0.07710673  0.90860834  1
  Te  Te165  1  0.58922761  0.41146682  0.25015238  1
  Te  Te166  1  0.57922419  0.41869545  0.58980544  1
  Te  Te167  1  0.59282341  0.41069710  0.94957278  1
  Te  Te168  1  0.59374596  0.75688547  0.23193516  1
  Te  Te169  1  0.58635926  0.76624614  0.60708846  1
  Te  Te170  1  0.59581635  0.75191609  0.91607348  1
  Te  Te171  1  0.90888450  0.08311754  0.24023117  1
  Te  Te172  1  0.90980711  0.06134833  0.54406903  1
  Te  Te173  1  0.92388824  0.07007261  0.94407656  1
  Te  Te174  1  0.95477619  0.36079478  0.30101727  1
  Te  Te175  1  0.93993939  0.40392033  0.56757990  1
  Te  Te176  1  0.92034046  0.40812879  0.91792653  1
  Te  Te177  1  0.91483995  0.75013406  0.25587453  1
  Te  Te178  1  0.92489420  0.75577338  0.58627501  1
  Te  Te179  1  0.90834338  0.74666858  0.94298708  1
