# generated using pymatgen
data_In2Te3
_symmetry_space_group_name_H-M   'P 1'
_cell_length_a   18.77006683
_cell_length_b   18.76356303
_cell_length_c   18.77142391
_cell_angle_alpha   90.03427253
_cell_angle_beta   90.06650681
_cell_angle_gamma   89.87574910
_symmetry_Int_Tables_number   1
_chemical_formula_structural   In2Te3
_chemical_formula_sum   'In72 Te108'
_cell_volume   6611.14916101
_cell_formula_units_Z   36
loop_
 _symmetry_equiv_pos_site_id
 _symmetry_equiv_pos_as_xyz
  1  'x, y, z'
loop_
 _atom_site_type_symbol
 _atom_site_label
 _atom_site_symmetry_multiplicity
 _atom_site_fract_x
 _atom_site_fract_y
 _atom_site_fract_z
 _atom_site_occupancy
  In  In0  1  0.15312685  -0.00565089  0.84766141  1
  In  In1  1  0.17057334  -0.00448726  0.47158879  1
  In  In2  1  0.01661012  0.01045076  0.32145866  1
  In  In3  1  0.84114010  0.32532469  0.49372211  1
  In  In4  1  0.66615290  0.50252064  0.18810162  1
  In  In5  1  0.83222889  0.85931027  0.66224562  1
  In  In6  1  0.32297333  0.82479185  0.18878943  1
  In  In7  1  0.02684567  0.49116844  0.48941947  1
  In  In8  1  0.85128640  0.50060104  0.34178142  1
  In  In9  1  0.49996127  0.48765665  0.66168512  1
  In  In10  1  0.67145541  0.17928975  0.48694477  1
  In  In11  1  0.49656043  0.83757996  0.63119375  1
  In  In12  1  0.17020264  0.18560110  0.65927083  1
  In  In13  1  0.49839929  0.32200810  0.83361667  1
  In  In14  1  0.17436941  0.32037721  0.15732840  1
  In  In15  1  0.01200375  0.84029490  0.84780418  1
  In  In16  1  0.68360545  0.66866518  0.33877310  1
  In  In17  1  0.16552171  0.64921012  0.47816281  1
  In  In18  1  0.63698025  0.32287821  0.32573212  1
  In  In19  1  0.31663305  0.47650528  0.86308189  1
  In  In20  1  0.68818751  0.16755927  0.82675434  1
  In  In21  1  0.49564562  0.17526045  0.02831519  1
  In  In22  1  0.32820724  0.66574270  0.65387149  1
  In  In23  1  0.49374395  -0.00477106  0.48886771  1
  In  In24  1  0.84809679  0.16223832  0.34447476  1
  In  In25  1  -0.02790032  0.64291893  0.65377565  1
  In  In26  1  0.16933099  0.15829150  0.34427623  1
  In  In27  1  0.02457907  0.31963040  -0.01434454  1
  In  In28  1  0.84933545  0.87606740  0.03046143  1
  In  In29  1  0.50273518  0.82946873  0.34420164  1
  In  In30  1  0.45581692  0.47680280  0.34673691  1
  In  In31  1  0.68067553  0.01434080  0.68969801  1
  In  In32  1  0.67637264  0.84599597  0.16496887  1
  In  In33  1  0.84291592  0.65360496  0.83280976  1
  In  In34  1  0.46595284  0.45883643  0.03526201  1
  In  In35  1  0.66056997  0.80910895  0.83165177  1
  In  In36  1  0.48608308  0.01702087  0.83410650  1
  In  In37  1  0.32497842  0.64097467  0.02355749  1
  In  In38  1  0.00566483  0.66458537  0.02694437  1
  In  In39  1  0.52462802  0.65951508  0.83576996  1
  In  In40  1  0.62637877  0.66295133  0.65451548  1
  In  In41  1  0.80656937  0.15855511  0.00383568  1
  In  In42  1  0.33858881  0.85273342  0.82958072  1
  In  In43  1  0.66186686  0.31354577  -0.01173064  1
  In  In44  1  0.68057326  0.66677405  -0.00205047  1
  In  In45  1  0.00150292  0.31985530  0.68349135  1
  In  In46  1  0.83223570  0.01538002  0.49894041  1
  In  In47  1  0.18360145  0.48977643  0.02173322  1
  In  In48  1  0.83846862  0.34425578  0.19067594  1
  In  In49  1  0.02388908  0.82872153  0.47577641  1
  In  In50  1  0.16402870  0.64434809  0.84990530  1
  In  In51  1  0.00397468  0.03959548  0.66047984  1
  In  In52  1  0.48941430  0.67496295  0.48812224  1
  In  In53  1  0.17030796  0.01754679  0.17498868  1
  In  In54  1  0.49073137  0.18487505  0.66540347  1
  In  In55  1  0.34640452  0.02288822  -0.00084111  1
  In  In56  1  0.65864194  0.50249951  0.51393588  1
  In  In57  1  0.15106675  0.83048982  0.00821855  1
  In  In58  1  0.48127544  0.63818145  0.17690588  1
  In  In59  1  0.33294364  0.01711450  0.32538655  1
  In  In60  1  0.85741424  0.48676271  0.00097022  1
  In  In61  1  0.81301832  0.47150833  0.69063282  1
  In  In62  1  0.16724489  0.49027428  0.32693718  1
  In  In63  1  -0.02024688  0.67971610  0.28949653  1
  In  In64  1  0.83606641  0.03213412  0.85884775  1
  In  In65  1  0.80985943  0.67676873  0.47184075  1
  In  In66  1  0.00371803  0.16748926  0.16232931  1
  In  In67  1  0.33084606  0.17578893  0.49493472  1
  In  In68  1  0.66922790  -0.00504966  0.01962192  1
  In  In69  1  0.17327689  0.42611462  0.64357522  1
  In  In70  1  0.32710849  0.17682405  0.81718641  1
  In  In71  1  0.17116932  0.81792682  0.66679849  1
  Te  Te72  1  0.10693027  0.10729830  0.07531822  1
  Te  Te73  1  0.06453732  0.09922671  0.43807546  1
  Te  Te74  1  0.07931712  0.11303121  0.77350516  1
  Te  Te75  1  0.07150107  0.41561138  0.09571054  1
  Te  Te76  1  0.11448701  0.39041036  0.42715417  1
  Te  Te77  1  0.09195285  0.40760786  0.76299102  1
  Te  Te78  1  0.09971690  0.74100456  0.11327972  1
  Te  Te79  1  0.10028407  0.74604771  0.37205308  1
  Te  Te80  1  0.07255926  0.73588881  0.75214327  1
  Te  Te81  1  0.42041530  0.08008476  0.11741176  1
  Te  Te82  1  0.43155608  0.10550867  0.40199101  1
  Te  Te83  1  0.39983647  0.07562025  0.72519262  1
  Te  Te84  1  0.35976515  0.39053504  0.11510178  1
  Te  Te85  1  0.38964640  0.37839567  0.43671244  1
  Te  Te86  1  0.40422694  0.41140448  0.75320233  1
  Te  Te87  1  0.41171153  0.74637780  0.09144779  1
  Te  Te88  1  0.39499539  0.74261158  0.39635570  1
  Te  Te89  1  0.42507906  0.74742566  0.74799164  1
  Te  Te90  1  0.74756318  0.07795349  0.11275648  1
  Te  Te91  1  0.73201672  0.07339021  0.39505516  1
  Te  Te92  1  0.79647377  0.11231913  0.72550708  1
  Te  Te93  1  0.73965168  0.41371503  0.08633760  1
  Te  Te94  1  0.73806444  0.42067546  0.40465781  1
  Te  Te95  1  0.73521087  0.37815951  0.77028878  1
  Te  Te96  1  0.76996087  0.75254860  0.08337123  1
  Te  Te97  1  0.74932134  0.79056889  0.39595668  1
  Te  Te98  1  0.75743953  0.74065899  0.73506285  1
  Te  Te99  1  0.08116182  0.25319110  0.26011729  1
  Te  Te100  1  0.08681684  0.27156823  0.56986286  1
  Te  Te101  1  0.07200369  0.20998887  0.89935631  1
  Te  Te102  1  0.07998756  0.57953227  0.24064778  1
  Te  Te103  1  0.10219489  0.57839988  0.60079417  1
  Te  Te104  1  0.07276103  0.56156200  0.93352101  1
  Te  Te105  1  0.08529402  0.90901114  0.23388661  1
  Te  Te106  1  0.07761480  0.92063659  0.59127893  1
  Te  Te107  1  0.05753609  0.93983781  0.95437239  1
  Te  Te108  1  0.46088131  0.24503001  0.21393419  1
  Te  Te109  1  0.39590399  0.27404190  0.59060841  1
  Te  Te110  1  0.40420801  0.25143072  0.93024461  1
  Te  Te111  1  0.37924777  0.57814036  0.26595842  1
  Te  Te112  1  0.41139306  0.57095671  0.56761288  1
  Te  Te113  1  0.41938674  0.57939191  0.91905156  1
  Te  Te114  1  0.42546156  0.92202195  0.24712149  1
  Te  Te115  1  0.39335438  0.91610197  0.56358992  1
  Te  Te116  1  0.43271433  0.91343736  0.93306325  1
  Te  Te117  1  0.74751096  0.24199326  0.25642415  1
  Te  Te118  1  0.74319588  0.26417947  0.58444761  1
  Te  Te119  1  0.77747874  0.27593979  0.89397025  1
  Te  Te120  1  0.77672349  0.59335398  0.24263884  1
  Te  Te121  1  0.75883924  0.58957623  0.59001144  1
  Te  Te122  1  0.74922253  0.56367563  0.91121974  1
  Te  Te123  1  0.78051509  0.89320756  0.25812815  1
  Te  Te124  1  0.72939610  0.92663292  0.57261802  1
  Te  Te125  1  0.75079841  0.90898238  0.90505422  1
  Te  Te126  1  0.27303586  0.27359638  0.05443240  1
  Te  Te127  1  0.26219264  0.26559841  0.39534197  1
  Te  Te128  1  0.24823410  0.28017151  0.74396303  1
  Te  Te129  1  0.22714266  0.59262964  0.12174269  1
  Te  Te130  1  0.26872366  0.57306386  0.40242011  1
  Te  Te131  1  0.25718864  0.57211069  0.75214723  1
  Te  Te132  1  0.25743406  0.91996321  0.07839460  1
  Te  Te133  1  0.24328560  0.90679695  0.37776228  1
  Te  Te134  1  0.24393375  0.93168716  0.74024694  1
  Te  Te135  1  0.59096786  0.25843076  0.11186686  1
  Te  Te136  1  0.55681312  0.25516504  0.42963129  1
  Te  Te137  1  0.60304989  0.26258166  0.73867008  1
  Te  Te138  1  0.58224147  0.57485819  0.07605891  1
  Te  Te139  1  0.57594083  0.57319975  0.40333628  1
  Te  Te140  1  0.60275329  0.55384377  0.75724811  1
  Te  Te141  1  0.56853912  0.92219367  0.09766040  1
  Te  Te142  1  0.58817631  0.94097132  0.38835157  1
  Te  Te143  1  0.57685488  0.91125192  0.75154764  1
  Te  Te144  1  0.90521478  0.25866592  0.08217456  1
  Te  Te145  1  0.93413050  0.27276256  0.39218705  1
  Te  Te146  1  0.90355925  0.22765159  0.73934500  1
  Te  Te147  1  0.91057581  0.57943764  0.10266548  1
  Te  Te148  1  0.94115031  0.60454645  0.42583483  1
  Te  Te149  1  0.92956082  0.54850586  0.76411305  1
  Te  Te150  1  0.95706319  0.90401980  0.12874382  1
  Te  Te151  1  0.92473006  0.92558955  0.41332183  1
  Te  Te152  1  0.92644895  0.93308189  0.75835536  1
  Te  Te153  1  0.26733733  0.12101708  0.23259110  1
  Te  Te154  1  0.24489030  0.07835020  0.57561778  1
  Te  Te155  1  0.24221786  0.09752568  0.91860211  1
  Te  Te156  1  0.26673933  0.39973209  0.24751537  1
  Te  Te157  1  0.28251574  0.40810484  0.54891647  1
  Te  Te158  1  0.23036059  0.37598004  0.93294712  1
  Te  Te159  1  0.24139975  0.76092296  0.29464899  1
  Te  Te160  1  0.25300191  0.75551701  0.55559326  1
  Te  Te161  1  0.25248912  0.75371033  0.91220321  1
  Te  Te162  1  0.54644371  0.12939143  0.21749142  1
  Te  Te163  1  0.58299956  0.08403477  0.59252742  1
  Te  Te164  1  0.58814962  0.09510040  0.91900642  1
  Te  Te165  1  0.54950231  0.41770840  0.23994459  1
  Te  Te166  1  0.57697493  0.39636952  0.57378593  1
  Te  Te167  1  0.57042732  0.41874705  0.92710318  1
  Te  Te168  1  0.58408908  0.73469294  0.23865213  1
  Te  Te169  1  0.60046569  0.76497626  0.54536739  1
  Te  Te170  1  0.57060229  0.75900001  0.94370463  1
  Te  Te171  1  0.90789909  0.07314634  0.23415508  1
  Te  Te172  1  0.91758093  0.11612253  0.56738704  1
  Te  Te173  1  0.93354030  0.10227928  0.94577595  1
  Te  Te174  1  0.94469141  0.41789274  0.26275739  1
  Te  Te175  1  0.91592241  0.43146164  0.57709089  1
  Te  Te176  1  0.92489288  0.39704421  0.90546552  1
  Te  Te177  1  0.90271513  0.79752925  0.23349532  1
  Te  Te178  1  0.91653591  0.76406132  0.57547643  1
  Te  Te179  1  0.91410064  0.75270697  0.92614882  1
