# generated using pymatgen
data_In2Te3
_symmetry_space_group_name_H-M   'P 1'
_cell_length_a   18.93448813
_cell_length_b   18.93622354
_cell_length_c   18.93900805
_cell_angle_alpha   89.93920348
_cell_angle_beta   89.95981893
_cell_angle_gamma   90.04494731
_symmetry_Int_Tables_number   1
_chemical_formula_structural   In2Te3
_chemical_formula_sum   'In72 Te108'
_cell_volume   6790.53019095
_cell_formula_units_Z   36
loop_
 _symmetry_equiv_pos_site_id
 _symmetry_equiv_pos_as_xyz
  1  'x, y, z'
loop_
 _atom_site_type_symbol
 _atom_site_label
 _atom_site_symmetry_multiplicity
 _atom_site_fract_x
 _atom_site_fract_y
 _atom_site_fract_z
 _atom_site_occupancy
  In  In0  1  0.14207351  0.31426320  0.49730275  1
  In  In1  1  0.66765792  0.67867312  0.34255237  1
  In  In2  1  0.17087021  0.10969387  0.32857351  1
  In  In3  1  0.81335763  0.68702327  0.52964637  1
  In  In4  1  0.83644019  0.67853489  0.84862581  1
  In  In5  1  0.65671953  -0.00563324  0.67862640  1
  In  In6  1  0.00493000  -0.00171586  -0.01293511  1
  In  In7  1  0.48708344  0.81438987  0.64323871  1
  In  In8  1  0.67419094  -0.00097255  0.32582662  1
  In  In9  1  0.81087025  0.33371175  0.51051053  1
  In  In10  1  0.17306515  0.00219599  0.84123057  1
  In  In11  1  0.65820581  0.83170960  0.49739808  1
  In  In12  1  0.67497519  0.51148104  0.51987947  1
  In  In13  1  0.18780038  0.84199014  0.00420331  1
  In  In14  1  0.31940042  0.86084307  0.48072709  1
  In  In15  1  0.84277924  0.86098779  0.70187723  1
  In  In16  1  0.02205757  0.50288308  0.15722100  1
  In  In17  1  0.83138038  0.14820342  0.33436925  1
  In  In18  1  0.02398205  0.16044874  0.14560439  1
  In  In19  1  0.16039326  0.68257679  0.48720169  1
  In  In20  1  -0.02572069  0.67718784  0.68530785  1
  In  In21  1  0.84886265  0.49674944  -0.00574358  1
  In  In22  1  0.48043347  0.30870247  0.16462421  1
  In  In23  1  0.15965507  0.86602679  0.32430302  1
  In  In24  1  0.00252734  0.32229512  0.65712335  1
  In  In25  1  0.34934906  0.49314783  0.17220045  1
  In  In26  1  0.33558215  0.14439723  0.49749094  1
  In  In27  1  0.33616420  0.47792931  0.53953772  1
  In  In28  1  0.84429169  0.28485793  0.15474270  1
  In  In29  1  0.83731516  0.48675000  0.36735686  1
  In  In30  1  0.00307343  0.68665700  -0.01272587  1
  In  In31  1  -0.01067061  0.14367526  0.51168261  1
  In  In32  1  0.19851795  0.49240438  0.31927874  1
  In  In33  1  0.00320793  0.50305608  0.49557528  1
  In  In34  1  0.48745589  0.15474867  0.69724452  1
  In  In35  1  -0.00239721  0.71231188  0.33364112  1
  In  In36  1  0.83515053  0.13099853  -0.01543611  1
  In  In37  1  0.86995738  -0.02605444  0.49039664  1
  In  In38  1  0.14534661  0.49278550  -0.01389519  1
  In  In39  1  0.52849144  0.15032761  -0.04670544  1
  In  In40  1  0.65400345  0.83638308  0.84280875  1
  In  In41  1  0.15499120  0.67006030  0.15851790  1
  In  In42  1  0.33607452  0.00683716  0.67509235  1
  In  In43  1  0.85346740  0.00277205  0.16297413  1
  In  In44  1  -0.00866917  0.31265587  0.30570100  1
  In  In45  1  0.48013887  0.29762709  0.50463271  1
  In  In46  1  0.47352151  0.33578439  0.80614945  1
  In  In47  1  0.49939140  0.51444587  0.68446131  1
  In  In48  1  0.31370210  0.69270679  0.33806587  1
  In  In49  1  0.64527636  0.69591323  0.01613497  1
  In  In50  1  0.66213633  0.18057040  0.17431617  1
  In  In51  1  0.02680797  0.17269561  0.82996947  1
  In  In52  1  0.33228066  0.32508897  0.31248448  1
  In  In53  1  0.49205316  0.83952835  0.32647404  1
  In  In54  1  0.67639602  0.35909684  -0.01746335  1
  In  In55  1  0.19176201  0.30990280  0.82239405  1
  In  In56  1  0.15837534  0.50517708  0.70024154  1
  In  In57  1  0.66437005  0.33479425  0.66704744  1
  In  In58  1  0.51668054  -0.03363560  0.14558647  1
  In  In59  1  0.64413590  0.18371845  0.49608707  1
  In  In60  1  0.31740938  0.30374502  0.01086459  1
  In  In61  1  0.08316904  0.86986324  0.67581998  1
  In  In62  1  0.80735045  0.68985377  0.15513784  1
  In  In63  1  0.66564766  0.50994764  0.83190197  1
  In  In64  1  0.84776903  0.32676194  0.84114467  1
  In  In65  1  0.50733962  0.50166363  0.33043035  1
  In  In66  1  0.34573616  0.67245980  -0.00046782  1
  In  In67  1  0.65549858  0.51717433  0.15714593  1
  In  In68  1  0.32681845  0.01278279  0.00460101  1
  In  In69  1  0.32766231  0.83295084  0.84513787  1
  In  In70  1  0.49500500  0.70416222  0.14698431  1
  In  In71  1  0.31343957  0.66135707  0.67149312  1
  Te  Te72  1  0.10644079  0.05655576  0.07956832  1
  Te  Te73  1  0.08502092  0.05188561  0.43638977  1
  Te  Te74  1  0.10610496  0.08674720  0.74103302  1
  Te  Te75  1  0.08389210  0.39653835  0.08017708  1
  Te  Te76  1  0.08199503  0.41614609  0.39805294  1
  Te  Te77  1  0.07572137  0.39747511  0.76612668  1
  Te  Te78  1  0.07571164  0.77515639  0.08862700  1
  Te  Te79  1  0.07406306  0.79349891  0.43599097  1
  Te  Te80  1  0.09157810  0.74120473  0.74423530  1
  Te  Te81  1  0.45169240  0.08145036  0.06209830  1
  Te  Te82  1  0.46390801  0.12436931  0.43067574  1
  Te  Te83  1  0.41364990  0.06439546  0.78575304  1
  Te  Te84  1  0.41761722  0.40774407  0.06864655  1
  Te  Te85  1  0.40831805  0.41862333  0.41259802  1
  Te  Te86  1  0.38649112  0.43862689  0.74414738  1
  Te  Te87  1  0.40067203  0.79058767  0.07290853  1
  Te  Te88  1  0.41842598  0.75230830  0.42693885  1
  Te  Te89  1  0.41072207  0.74220002  0.75535082  1
  Te  Te90  1  0.74146000  0.07959732  0.09227540  1
  Te  Te91  1  0.74928466  0.07932199  0.43988188  1
  Te  Te92  1  0.74145760  0.05426836  0.78405070  1
  Te  Te93  1  0.76031801  0.41257475  0.09861264  1
  Te  Te94  1  0.71649461  0.40716919  0.41688557  1
  Te  Te95  1  0.75700463  0.41599267  0.75498974  1
  Te  Te96  1  0.73032195  0.79875534  0.08343197  1
  Te  Te97  1  0.76777852  0.76892433  0.41011891  1
  Te  Te98  1  0.74691561  0.75468458  0.75252200  1
  Te  Te99  1  0.10454649  0.23178533  0.25437317  1
  Te  Te100  1  0.09428966  0.21500768  0.60065080  1
  Te  Te101  1  0.12794732  0.22284429  0.92756071  1
  Te  Te102  1  0.08726257  0.59554779  0.27430851  1
  Te  Te103  1  0.08929312  0.58959817  0.58547976  1
  Te  Te104  1  0.06462974  0.58311018  0.90336785  1
  Te  Te105  1  0.04434295  0.93160646  0.26122956  1
  Te  Te106  1  0.11227946  0.95757125  0.56050101  1
  Te  Te107  1  0.08639176  0.89664628  0.90656760  1
  Te  Te108  1  0.39702798  0.20951781  0.24080905  1
  Te  Te109  1  0.38498588  0.24711180  0.61259737  1
  Te  Te110  1  0.41536616  0.24184852  0.91007753  1
  Te  Te111  1  0.41767974  0.60272585  0.25553301  1
  Te  Te112  1  0.41853821  0.59548405  0.58141648  1
  Te  Te113  1  0.46156233  0.60847072  0.93714377  1
  Te  Te114  1  0.41071143  0.92584883  0.24110684  1
  Te  Te115  1  0.41952212  0.92989539  0.57157031  1
  Te  Te116  1  0.41094759  0.90320083  0.94553473  1
  Te  Te117  1  0.74925013  0.25816358  0.27258835  1
  Te  Te118  1  0.75007976  0.22869016  0.60004951  1
  Te  Te119  1  0.74956733  0.24236709  0.91997112  1
  Te  Te120  1  0.75123068  0.57997920  0.26061998  1
  Te  Te121  1  0.77140498  0.57288356  0.61008729  1
  Te  Te122  1  0.73778978  0.58984801  0.94750353  1
  Te  Te123  1  0.78218392  0.91856947  0.26556440  1
  Te  Te124  1  0.75142335  0.91573455  0.58577117  1
  Te  Te125  1  0.73569515  0.94648333  0.90268039  1
  Te  Te126  1  0.28236634  0.20796395  0.11801913  1
  Te  Te127  1  0.24827960  0.24448193  0.41499566  1
  Te  Te128  1  0.29074330  0.24638435  0.73727222  1
  Te  Te129  1  0.25062765  0.57698638  0.08749700  1
  Te  Te130  1  0.25827439  0.57554082  0.43299508  1
  Te  Te131  1  0.27043603  0.56489285  0.77598512  1
  Te  Te132  1  0.22906971  0.94816357  0.09992324  1
  Te  Te133  1  0.27479240  0.94942985  0.37106035  1
  Te  Te134  1  0.24412881  0.90300752  0.74020872  1
  Te  Te135  1  0.58932418  0.25656017  0.06373005  1
  Te  Te136  1  0.55813838  0.24417019  0.38899409  1
  Te  Te137  1  0.59083798  0.24508865  0.76402986  1
  Te  Te138  1  0.54671578  0.57806474  0.07061164  1
  Te  Te139  1  0.58002685  0.59104422  0.42918295  1
  Te  Te140  1  0.59239208  0.60583212  0.74953950  1
  Te  Te141  1  0.61938405  0.90599888  0.06184698  1
  Te  Te142  1  0.57465378  0.92905264  0.41823789  1
  Te  Te143  1  0.55631761  0.90436809  0.74651424  1
  Te  Te144  1  0.93392740  0.23147592  0.04633725  1
  Te  Te145  1  0.91925116  0.25721083  0.42731424  1
  Te  Te146  1  0.91226638  0.23476199  0.74083039  1
  Te  Te147  1  0.91958788  0.59537022  0.09202040  1
  Te  Te148  1  0.91775791  0.60657703  0.42348119  1
  Te  Te149  1  0.91621320  0.57825804  0.77692459  1
  Te  Te150  1  0.90625120  0.91279282  0.05772844  1
  Te  Te151  1  0.92673994  0.92793567  0.36222838  1
  Te  Te152  1  0.96558325  0.92162971  0.75151284  1
  Te  Te153  1  0.26879930  0.09302917  0.22016769  1
  Te  Te154  1  0.23928792  0.05584129  0.56958432  1
  Te  Te155  1  0.24364720  0.10605809  0.92209218  1
  Te  Te156  1  0.23830965  0.39495803  0.21327611  1
  Te  Te157  1  0.21609845  0.40719915  0.59399830  1
  Te  Te158  1  0.25500075  0.41084172  0.92116636  1
  Te  Te159  1  0.24362651  0.76996166  0.23239056  1
  Te  Te160  1  0.24997446  0.76432000  0.57674163  1
  Te  Te161  1  0.23629828  0.73051794  0.91317767  1
  Te  Te162  1  0.57674435  0.07677314  0.24148689  1
  Te  Te163  1  0.57255576  0.08717271  0.59109509  1
  Te  Te164  1  0.62435527  0.05666499  0.89030979  1
  Te  Te165  1  0.57698565  0.40987334  0.23352698  1
  Te  Te166  1  0.56483865  0.40863356  0.57985922  1
  Te  Te167  1  0.56548658  0.41938488  0.90070438  1
  Te  Te168  1  0.59658700  0.76687601  0.24241179  1
  Te  Te169  1  0.59596343  0.73350064  0.58582538  1
  Te  Te170  1  0.55503969  0.74147606  0.90794921  1
  Te  Te171  1  0.94414574  0.08786869  0.25631726  1
  Te  Te172  1  0.91061228  0.05862903  0.60206534  1
  Te  Te173  1  0.92386597  0.06949917  0.87984084  1
  Te  Te174  1  0.91528859  0.43045990  0.24877689  1
  Te  Te175  1  0.91207616  0.42158252  0.58540052  1
  Te  Te176  1  0.93826581  0.40242163  0.92908898  1
  Te  Te177  1  0.91604899  0.76192607  0.22263280  1
  Te  Te178  1  0.91704086  0.77833805  0.58810296  1
  Te  Te179  1  0.89539222  0.77738609  0.94002228  1
