# generated using pymatgen
data_In2Te3
_symmetry_space_group_name_H-M   'P 1'
_cell_length_a   18.75860804
_cell_length_b   18.76893572
_cell_length_c   18.75962079
_cell_angle_alpha   89.96097315
_cell_angle_beta   90.04201017
_cell_angle_gamma   89.91209872
_symmetry_Int_Tables_number   1
_chemical_formula_structural   In2Te3
_chemical_formula_sum   'In72 Te108'
_cell_volume   6604.85947646
_cell_formula_units_Z   36
loop_
 _symmetry_equiv_pos_site_id
 _symmetry_equiv_pos_as_xyz
  1  'x, y, z'
loop_
 _atom_site_type_symbol
 _atom_site_label
 _atom_site_symmetry_multiplicity
 _atom_site_fract_x
 _atom_site_fract_y
 _atom_site_fract_z
 _atom_site_occupancy
  In  In0  1  0.47946578  0.33641258  0.50375147  1
  In  In1  1  -0.00741212  0.48241587  0.51386732  1
  In  In2  1  0.51823559  0.82541690  0.32466117  1
  In  In3  1  0.18651504  0.01213697  0.82243876  1
  In  In4  1  -0.01782013  0.00241630  -0.03015301  1
  In  In5  1  0.16529903  0.64877428  0.17003586  1
  In  In6  1  0.66318837  0.15834799  0.51589961  1
  In  In7  1  0.66092053  0.32393584  0.00323833  1
  In  In8  1  0.19896543  0.79458555  -0.01955783  1
  In  In9  1  0.32583923  0.49070812  0.49291023  1
  In  In10  1  0.63677982  0.00592981  0.00150619  1
  In  In11  1  -0.00524608  0.84388604  0.83014667  1
  In  In12  1  0.00494941  0.50522491  0.17860019  1
  In  In13  1  0.66187948  0.66894350  0.01190821  1
  In  In14  1  0.16621254  -0.00724192  0.51634035  1
  In  In15  1  0.67653508  0.34671999  0.32565783  1
  In  In16  1  -0.04573649  0.80157300  0.18886476  1
  In  In17  1  0.50126001  0.83840578  0.01131482  1
  In  In18  1  0.17417008  0.33186066  0.49745809  1
  In  In19  1  0.66295969  0.17580217  0.16796788  1
  In  In20  1  0.66219209  0.51742632  0.48163064  1
  In  In21  1  0.17255814  0.17787725  0.00889794  1
  In  In22  1  0.86363827  0.64852427  0.80959757  1
  In  In23  1  0.83111358  0.16468829  0.67655357  1
  In  In24  1  0.18504435  0.50427599  0.00647206  1
  In  In25  1  0.00818332  0.65970930  0.64795908  1
  In  In26  1  0.33337142  0.00624817  0.34043156  1
  In  In27  1  0.65513527  -0.01406919  0.35563482  1
  In  In28  1  0.35513041  0.29533334  -0.02663891  1
  In  In29  1  0.82291501  0.84163679  0.65882071  1
  In  In30  1  0.32766040  0.35567490  0.33391633  1
  In  In31  1  0.81609959  0.47172956  0.01077584  1
  In  In32  1  0.51444476  0.67784092  0.49101557  1
  In  In33  1  0.81660349  0.67511525  0.18859454  1
  In  In34  1  -0.00054995  0.17051869  0.81274897  1
  In  In35  1  0.17445124  -0.00857252  0.17579283  1
  In  In36  1  0.19741318  0.66388343  0.84178248  1
  In  In37  1  -0.00512324  0.33072240  0.00194491  1
  In  In38  1  0.36918863  0.03596546  0.01467315  1
  In  In39  1  0.49598304  0.15502516  0.33248558  1
  In  In40  1  0.66227308  0.30792934  0.67226721  1
  In  In41  1  0.17665491  0.18237832  0.67742163  1
  In  In42  1  0.50020641  0.17200533  0.66474947  1
  In  In43  1  -0.02011360  -0.00863393  0.35006434  1
  In  In44  1  0.33714819  0.48999214  0.82339177  1
  In  In45  1  0.35166784  -0.02058624  0.65046243  1
  In  In46  1  0.50387213  0.51408149  -0.00129281  1
  In  In47  1  0.01685516  0.66275209  0.01406026  1
  In  In48  1  -0.00212966  0.81615519  0.49368559  1
  In  In49  1  0.34337974  0.64451762  0.33886692  1
  In  In50  1  0.34533990  0.82930270  0.15581049  1
  In  In51  1  0.17942952  0.82632649  0.65189100  1
  In  In52  1  0.80918432  0.01041909  0.50802649  1
  In  In53  1  0.51325951  0.34268025  0.16855631  1
  In  In54  1  0.81427659  0.02513557  0.83168142  1
  In  In55  1  0.34086424  0.68097689  0.66926067  1
  In  In56  1  0.80719260  -0.00263828  0.17835338  1
  In  In57  1  0.18763971  0.17925500  0.32417094  1
  In  In58  1  0.49112355  0.48634886  0.68280706  1
  In  In59  1  0.49677788  0.00972666  0.81620407  1
  In  In60  1  0.64993794  0.85186787  0.82954145  1
  In  In61  1  0.83568126  0.50186132  0.33062447  1
  In  In62  1  0.03747614  0.46777115  0.78943332  1
  In  In63  1  0.33746215  0.50633345  0.17913096  1
  In  In64  1  -0.01006696  0.33319641  0.33728990  1
  In  In65  1  0.65847873  0.49941760  0.83384628  1
  In  In66  1  0.66411398  0.65191705  0.65915502  1
  In  In67  1  0.81481682  0.34586601  0.83175743  1
  In  In68  1  -0.00317007  0.17329238  0.48968531  1
  In  In69  1  0.16236926  0.83264893  0.35706834  1
  In  In70  1  0.81708390  0.81674474  0.03106575  1
  In  In71  1  -0.01486483  0.17983895  0.16025380  1
  Te  Te72  1  0.07836415  0.07776944  0.08120680  1
  Te  Te73  1  0.10127144  0.07753641  0.40305029  1
  Te  Te74  1  0.07966925  0.07008345  0.73175976  1
  Te  Te75  1  0.09017257  0.41645953  0.08773573  1
  Te  Te76  1  0.09218171  0.42096080  0.40567451  1
  Te  Te77  1  0.14418169  0.38609618  0.72097280  1
  Te  Te78  1  0.08667715  0.77136523  0.09313587  1
  Te  Te79  1  0.09230210  0.72362545  0.42792135  1
  Te  Te80  1  0.08645847  0.74415937  0.75868613  1
  Te  Te81  1  0.45681255  0.10801236  0.10747200  1
  Te  Te82  1  0.41400341  0.08709487  0.43490238  1
  Te  Te83  1  0.39120998  0.09373408  0.74393775  1
  Te  Te84  1  0.40710310  0.41320568  0.07578199  1
  Te  Te85  1  0.43865001  0.44136339  0.39967380  1
  Te  Te86  1  0.40824018  0.38156430  0.74660040  1
  Te  Te87  1  0.43679693  0.73057438  0.09310448  1
  Te  Te88  1  0.40996580  0.75830558  0.41373932  1
  Te  Te89  1  0.40547171  0.76780879  0.76706926  1
  Te  Te90  1  0.74701807  0.08740839  0.07199955  1
  Te  Te91  1  0.74659944  0.09943853  0.40059468  1
  Te  Te92  1  0.72031216  0.08888142  0.73825774  1
  Te  Te93  1  0.71936222  0.41525867  0.10575202  1
  Te  Te94  1  0.76299108  0.41234646  0.43407275  1
  Te  Te95  1  0.74040536  0.43029923  0.72662579  1
  Te  Te96  1  0.70249485  0.77242332  0.12507855  1
  Te  Te97  1  0.75693650  0.76703736  0.36579225  1
  Te  Te98  1  0.75455622  0.74947944  0.76542941  1
  Te  Te99  1  0.08776366  0.25921999  0.24185361  1
  Te  Te100  1  0.07396459  0.25895851  0.58758870  1
  Te  Te101  1  0.08673370  0.25411482  0.90648640  1
  Te  Te102  1  0.06457081  0.60544607  0.26822301  1
  Te  Te103  1  0.09798820  0.56570184  0.58076714  1
  Te  Te104  1  0.08200719  0.57532904  0.90642801  1
  Te  Te105  1  0.06901320  0.90728297  0.25627762  1
  Te  Te106  1  0.06425704  0.91042729  0.59412555  1
  Te  Te107  1  0.10119380  0.91656636  0.91556376  1
  Te  Te108  1  0.41638407  0.25936572  0.25263912  1
  Te  Te109  1  0.39826230  0.26537096  0.60419733  1
  Te  Te110  1  0.45335243  0.22109960  0.88849729  1
  Te  Te111  1  0.43558337  0.60487634  0.23049329  1
  Te  Te112  1  0.42885556  0.57813493  0.57447818  1
  Te  Te113  1  0.41423704  0.58774935  0.90579639  1
  Te  Te114  1  0.42349445  0.92166383  0.24862609  1
  Te  Te115  1  0.45643698  0.91250541  0.56983335  1
  Te  Te116  1  0.41725297  0.92694216  0.91858281  1
  Te  Te117  1  0.75963851  0.25011293  0.25012661  1
  Te  Te118  1  0.76633887  0.25648713  0.57185505  1
  Te  Te119  1  0.73724898  0.24417678  0.90457412  1
  Te  Te120  1  0.72656612  0.58018612  0.26243759  1
  Te  Te121  1  0.76043060  0.59491643  0.56312327  1
  Te  Te122  1  0.75733127  0.58680033  0.91408076  1
  Te  Te123  1  0.75144888  0.89438020  0.27830575  1
  Te  Te124  1  0.72235960  0.91263199  0.57718415  1
  Te  Te125  1  0.75471296  0.91603159  0.92513509  1
  Te  Te126  1  0.26581212  0.26089031  0.08682734  1
  Te  Te127  1  0.27776408  0.24284129  0.42782187  1
  Te  Te128  1  0.23919254  0.27500626  0.77294435  1
  Te  Te129  1  0.27222849  0.60761947  0.07118713  1
  Te  Te130  1  0.23569308  0.57580043  0.41168817  1
  Te  Te131  1  0.24688097  0.57515708  0.72970070  1
  Te  Te132  1  0.25950220  0.92378831  0.06674277  1
  Te  Te133  1  0.26686426  0.90797726  0.43900434  1
  Te  Te134  1  0.26607056  0.90063864  0.75357150  1
  Te  Te135  1  0.54975839  0.22751138  0.06991148  1
  Te  Te136  1  0.58263315  0.25529001  0.42145665  1
  Te  Te137  1  0.56677260  0.25344988  0.77507449  1
  Te  Te138  1  0.59961195  0.56667716  0.09859300  1
  Te  Te139  1  0.60531079  0.61892357  0.38549173  1
  Te  Te140  1  0.56421223  0.59584831  0.76096715  1
  Te  Te141  1  0.58155423  0.91977919  0.10674361  1
  Te  Te142  1  0.55078015  0.91817429  0.44198771  1
  Te  Te143  1  0.56124656  0.90956321  0.72515006  1
  Te  Te144  1  0.89119355  0.25985043  0.07925437  1
  Te  Te145  1  0.89609564  0.24985409  0.41508400  1
  Te  Te146  1  0.92101393  0.27895678  0.73732151  1
  Te  Te147  1  0.90245000  0.58791464  0.08454374  1
  Te  Te148  1  0.91324449  0.57927214  0.43077695  1
  Te  Te149  1  0.91791399  0.54235448  0.71303772  1
  Te  Te150  1  0.91876912  0.92480541  0.08973727  1
  Te  Te151  1  0.88719380  0.90262312  0.42817713  1
  Te  Te152  1  0.90761432  0.93569776  0.74622844  1
  Te  Te153  1  0.27227258  0.09562017  0.22774084  1
  Te  Te154  1  0.25839572  0.08940408  0.58625881  1
  Te  Te155  1  0.26667914  0.10140336  0.91492202  1
  Te  Te156  1  0.23196462  0.43263964  0.25108545  1
  Te  Te157  1  0.25780641  0.40719625  0.59772057  1
  Te  Te158  1  0.25145550  0.40227265  0.91713066  1
  Te  Te159  1  0.24830943  0.75743723  0.25070915  1
  Te  Te160  1  0.25577937  0.73889166  0.56201177  1
  Te  Te161  1  0.31660218  0.74281234  0.89359224  1
  Te  Te162  1  0.58359540  0.06786737  0.24268014  1
  Te  Te163  1  0.56292503  0.06842000  0.57714407  1
  Te  Te164  1  0.56906023  0.10381788  0.91017749  1
  Te  Te165  1  0.57052034  0.43424139  0.26917775  1
  Te  Te166  1  0.58847322  0.41823523  0.58226351  1
  Te  Te167  1  0.56801255  0.40621640  0.91074640  1
  Te  Te168  1  0.61322288  0.73546189  0.25384707  1
  Te  Te169  1  0.58611108  0.75935213  0.59298718  1
  Te  Te170  1  0.57563367  0.74644645  0.91151689  1
  Te  Te171  1  0.90690779  0.08551728  0.25542249  1
  Te  Te172  1  0.92200212  0.07990820  0.58434418  1
  Te  Te173  1  0.90052963  0.11959371  0.91842772  1
  Te  Te174  1  0.90450833  0.40520641  0.23164554  1
  Te  Te175  1  0.92417195  0.40923393  0.62343810  1
  Te  Te176  1  0.92403247  0.43329046  0.90685495  1
  Te  Te177  1  0.89594936  0.72599912  0.31172854  1
  Te  Te178  1  0.89518170  0.73505776  0.57539068  1
  Te  Te179  1  0.91825122  0.75206608  0.92613309  1
