# generated using pymatgen
data_In2Te3
_symmetry_space_group_name_H-M   'P 1'
_cell_length_a   18.82744022
_cell_length_b   18.81733301
_cell_length_c   18.81778918
_cell_angle_alpha   89.87193226
_cell_angle_beta   89.94581625
_cell_angle_gamma   89.91847846
_symmetry_Int_Tables_number   1
_chemical_formula_structural   In2Te3
_chemical_formula_sum   'In72 Te108'
_cell_volume   6666.78161936
_cell_formula_units_Z   36
loop_
 _symmetry_equiv_pos_site_id
 _symmetry_equiv_pos_as_xyz
  1  'x, y, z'
loop_
 _atom_site_type_symbol
 _atom_site_label
 _atom_site_symmetry_multiplicity
 _atom_site_fract_x
 _atom_site_fract_y
 _atom_site_fract_z
 _atom_site_occupancy
  In  In0  1  0.83285530  0.49745170  0.68702525  1
  In  In1  1  0.03417738  0.01860571  0.67462894  1
  In  In2  1  0.00540464  0.17395294  0.50495050  1
  In  In3  1  0.35677991  0.64860017  0.63476486  1
  In  In4  1  0.68084344  0.17343596  0.84378534  1
  In  In5  1  0.17578289  0.01908726  0.15494410  1
  In  In6  1  0.65116926  0.48260119  0.82493914  1
  In  In7  1  0.81983780  -0.00258806  0.48534308  1
  In  In8  1  0.50026879  0.19939216  0.01589876  1
  In  In9  1  0.48814024  0.85156289  0.34524536  1
  In  In10  1  0.81769877  0.84480259  -0.00995025  1
  In  In11  1  0.00054604  0.51092116  0.52093679  1
  In  In12  1  0.18751955  0.65358510  0.16964856  1
  In  In13  1  0.68167551  -0.00587362  0.00485487  1
  In  In14  1  0.00441072  0.64369914  0.02433074  1
  In  In15  1  -0.00083853  0.49286813  0.16493013  1
  In  In16  1  -0.01668668  0.82673999  0.18434203  1
  In  In17  1  0.00343766  0.34047878  0.31363970  1
  In  In18  1  0.82072666  0.68185902  0.50460074  1
  In  In19  1  0.87087749  0.66854776  0.16767719  1
  In  In20  1  0.50519069  0.82957915  0.01913477  1
  In  In21  1  0.19007510  0.48162362  0.34917337  1
  In  In22  1  -0.01262352  0.00763071  0.34965853  1
  In  In23  1  0.19870230  0.02506780  0.53281197  1
  In  In24  1  0.83355763  0.34350363  0.83268872  1
  In  In25  1  0.64942280  0.01033797  0.67236604  1
  In  In26  1  0.31616844  0.02564772  -0.02839771  1
  In  In27  1  0.83025144  -0.00682333  0.16654912  1
  In  In28  1  0.16827817  0.85442219  -0.00483511  1
  In  In29  1  0.62167887  0.04012014  0.34071524  1
  In  In30  1  0.35531317  0.86073367  0.51668770  1
  In  In31  1  0.16481765  0.32037551  0.17743700  1
  In  In32  1  0.81530724  0.19456656  0.63353422  1
  In  In33  1  0.48965022  0.66036233  0.82115895  1
  In  In34  1  0.34179468  0.17994815  0.16591779  1
  In  In35  1  0.01187915  0.32077136  0.68107944  1
  In  In36  1  0.00293850  0.69506559  0.32296136  1
  In  In37  1  0.83102185  0.82506088  0.66979143  1
  In  In38  1  0.00064032  0.83655057  0.85739301  1
  In  In39  1  0.20427094  0.32923908  0.49875029  1
  In  In40  1  0.31755533  0.65934130  0.34575313  1
  In  In41  1  0.50043338  0.33489119  0.82772145  1
  In  In42  1  0.38232407  0.03062715  0.33748799  1
  In  In43  1  0.63817507  0.30427735  0.34367946  1
  In  In44  1  0.33500443  0.32219985  -0.02006861  1
  In  In45  1  0.81813831  0.15432273  0.32093964  1
  In  In46  1  0.16679387  0.68003004  0.82629722  1
  In  In47  1  0.49700933  0.01332737  0.81070171  1
  In  In48  1  0.50917444  0.49404093  0.35749313  1
  In  In49  1  0.31623684  0.84234728  0.82817984  1
  In  In50  1  0.68287199  0.65076535  0.35440314  1
  In  In51  1  0.83915560  0.64796107  0.80613700  1
  In  In52  1  0.46891596  0.17526805  0.65332875  1
  In  In53  1  0.85151678  0.14815779  0.01024731  1
  In  In54  1  0.63519112  0.47563117  0.52219232  1
  In  In55  1  0.35724180  0.49472587  0.82296300  1
  In  In56  1  0.63543638  0.68919825  0.63277250  1
  In  In57  1  0.16243675  0.47722674  0.66334380  1
  In  In58  1  0.04017821  0.01236474  -0.01458441  1
  In  In59  1  0.48863860  0.67377361  0.17766985  1
  In  In60  1  0.48577043  0.47824834  0.00501141  1
  In  In61  1  0.18833272  0.50455955  -0.01032583  1
  In  In62  1  0.67882007  0.84656800  0.18333848  1
  In  In63  1  0.83085065  -0.00749848  0.86034594  1
  In  In64  1  0.17780753  0.84936001  0.66454050  1
  In  In65  1  0.80312073  0.32558423  0.49708384  1
  In  In66  1  0.00612954  0.30869871  -0.03495675  1
  In  In67  1  0.66850862  0.64907051  -0.01527102  1
  In  In68  1  0.84684978  0.48734596  0.31604858  1
  In  In69  1  0.34569603  0.32299403  0.34599372  1
  In  In70  1  0.16931112  0.83886584  0.35175579  1
  In  In71  1  0.67976248  0.46304797  0.14956501  1
  Te  Te72  1  0.08574993  0.11199361  0.08293998  1
  Te  Te73  1  0.09551251  0.07994562  0.42632219  1
  Te  Te74  1  0.10293096  0.12699960  0.74667435  1
  Te  Te75  1  0.09178133  0.41351930  0.07398475  1
  Te  Te76  1  0.07564130  0.40667638  0.43175556  1
  Te  Te77  1  0.08259903  0.41366625  0.77069860  1
  Te  Te78  1  0.08832806  0.75498979  0.08830269  1
  Te  Te79  1  0.09173162  0.74135764  0.42956806  1
  Te  Te80  1  0.07478367  0.76536611  0.74205930  1
  Te  Te81  1  0.41601947  0.08486840  0.07163810  1
  Te  Te82  1  0.44263106  0.10947352  0.45022658  1
  Te  Te83  1  0.38127157  0.07470548  0.73108903  1
  Te  Te84  1  0.41696109  0.38032231  0.09013467  1
  Te  Te85  1  0.39648154  0.43485251  0.43410346  1
  Te  Te86  1  0.40330980  0.38902851  0.72641836  1
  Te  Te87  1  0.40244412  0.74849360  0.08527935  1
  Te  Te88  1  0.41286684  0.74695417  0.42701468  1
  Te  Te89  1  0.40306555  0.75328573  0.73857877  1
  Te  Te90  1  0.73917885  0.09685750  0.10076698  1
  Te  Te91  1  0.72839775  0.10753838  0.43423715  1
  Te  Te92  1  0.76257186  0.08400068  0.75044578  1
  Te  Te93  1  0.73826376  0.39025901  0.03880079  1
  Te  Te94  1  0.73611125  0.42943142  0.40563900  1
  Te  Te95  1  0.73040778  0.39203083  0.73121365  1
  Te  Te96  1  0.74624374  0.74762613  0.08501195  1
  Te  Te97  1  0.72418518  0.76765993  0.43409140  1
  Te  Te98  1  0.73123673  0.73562042  0.74379779  1
  Te  Te99  1  0.09201519  0.23175916  0.27025187  1
  Te  Te100  1  0.10803211  0.24676961  0.58845699  1
  Te  Te101  1  0.10697415  0.23312760  0.88282374  1
  Te  Te102  1  0.08742236  0.57505649  0.25825898  1
  Te  Te103  1  0.10494116  0.59068543  0.58630258  1
  Te  Te104  1  0.08293161  0.58211140  0.90976252  1
  Te  Te105  1  0.08481839  0.92316851  0.24549116  1
  Te  Te106  1  0.08600035  0.92433686  0.56763433  1
  Te  Te107  1  0.11567456  0.93576406  0.87772673  1
  Te  Te108  1  0.44277365  0.23314797  0.26573987  1
  Te  Te109  1  0.40819401  0.24173846  0.53036602  1
  Te  Te110  1  0.41479169  0.22607305  0.89268484  1
  Te  Te111  1  0.41295856  0.57352648  0.26251801  1
  Te  Te112  1  0.44618424  0.54634506  0.57184320  1
  Te  Te113  1  0.41089968  0.58917896  0.93100530  1
  Te  Te114  1  0.42826001  0.93297770  0.23812231  1
  Te  Te115  1  0.45691567  0.92065762  0.60509562  1
  Te  Te116  1  0.42254555  0.91875935  0.91355399  1
  Te  Te117  1  0.74513209  0.26119738  0.24910113  1
  Te  Te118  1  0.69630606  0.25446641  0.57108627  1
  Te  Te119  1  0.75613055  0.25836177  0.94411316  1
  Te  Te120  1  0.75099423  0.58093656  0.23424790  1
  Te  Te121  1  0.74678325  0.57234400  0.58272677  1
  Te  Te122  1  0.75850329  0.55906117  0.90258950  1
  Te  Te123  1  0.73776158  0.94859961  0.27759211  1
  Te  Te124  1  0.74053988  0.91698478  0.58815320  1
  Te  Te125  1  0.71666218  0.89701309  0.88885189  1
  Te  Te126  1  0.23949753  0.24166572  0.06968486  1
  Te  Te127  1  0.24323824  0.22844380  0.39908506  1
  Te  Te128  1  0.22323843  0.22415589  0.77713217  1
  Te  Te129  1  0.27426902  0.56388040  0.09294528  1
  Te  Te130  1  0.24070365  0.57966068  0.44542119  1
  Te  Te131  1  0.26024732  0.58992019  0.74658795  1
  Te  Te132  1  0.27055057  0.92485686  0.08135674  1
  Te  Te133  1  0.26847743  0.93873780  0.41431011  1
  Te  Te134  1  0.26245020  0.94818247  0.73710682  1
  Te  Te135  1  0.59120287  0.23511794  0.12427086  1
  Te  Te136  1  0.53046749  0.24539065  0.43061615  1
  Te  Te137  1  0.58159441  0.23297374  0.74688198  1
  Te  Te138  1  0.57979910  0.57758949  0.08722465  1
  Te  Te139  1  0.57387125  0.59880532  0.44818042  1
  Te  Te140  1  0.58066537  0.57953065  0.73132614  1
  Te  Te141  1  0.58113216  0.93181723  0.10336516  1
  Te  Te142  1  0.58148854  0.92833252  0.42871392  1
  Te  Te143  1  0.56727525  0.90297117  0.73770111  1
  Te  Te144  1  0.94084617  0.24208272  0.08066347  1
  Te  Te145  1  0.90945912  0.25115118  0.41204971  1
  Te  Te146  1  0.90472119  0.23627901  0.74957679  1
  Te  Te147  1  0.89271152  0.55142650  0.07101465  1
  Te  Te148  1  0.92015910  0.58322352  0.40625663  1
  Te  Te149  1  0.94580516  0.58222940  0.72989035  1
  Te  Te150  1  0.92814509  0.91903393  0.06665412  1
  Te  Te151  1  0.91818631  0.90416273  0.42695708  1
  Te  Te152  1  0.92445763  0.92336329  0.75276735  1
  Te  Te153  1  0.25989242  0.08971347  0.25841159  1
  Te  Te154  1  0.28724375  0.11346671  0.61028510  1
  Te  Te155  1  0.22976405  0.12046770  0.89532671  1
  Te  Te156  1  0.26827472  0.41152297  0.24117087  1
  Te  Te157  1  0.27675945  0.40168876  0.60562733  1
  Te  Te158  1  0.24881431  0.40815342  0.88869142  1
  Te  Te159  1  0.25603281  0.76361119  0.24997869  1
  Te  Te160  1  0.25939082  0.75665180  0.57723787  1
  Te  Te161  1  0.25414408  0.74518178  0.93179899  1
  Te  Te162  1  0.56396752  0.12665220  0.23161349  1
  Te  Te163  1  0.55207245  0.07240084  0.57548145  1
  Te  Te164  1  0.58582679  0.08154177  0.92239592  1
  Te  Te165  1  0.57547079  0.40996875  0.24772779  1
  Te  Te166  1  0.52662071  0.41759995  0.60316322  1
  Te  Te167  1  0.59324877  0.39304844  0.93616574  1
  Te  Te168  1  0.59251147  0.74697233  0.26272092  1
  Te  Te169  1  0.53709273  0.78788519  0.58207173  1
  Te  Te170  1  0.57797652  0.74667985  0.91115241  1
  Te  Te171  1  0.92760772  0.08840260  0.23520445  1
  Te  Te172  1  0.91588230  0.07867488  0.58576698  1
  Te  Te173  1  0.93900686  0.09022140  0.89962464  1
  Te  Te174  1  0.89771519  0.38756872  0.21358945  1
  Te  Te175  1  0.90940612  0.40118115  0.58270904  1
  Te  Te176  1  0.93586078  0.42258226  0.90268928  1
  Te  Te177  1  0.87658989  0.77340118  0.27805817  1
  Te  Te178  1  0.92226765  0.73727159  0.59447422  1
  Te  Te179  1  0.91102976  0.73333053  0.92799562  1
