# generated using pymatgen
data_In2Te3
_symmetry_space_group_name_H-M   'P 1'
_cell_length_a   18.81735138
_cell_length_b   18.80250739
_cell_length_c   18.80693371
_cell_angle_alpha   90.07517344
_cell_angle_beta   89.93240464
_cell_angle_gamma   90.16360463
_symmetry_Int_Tables_number   1
_chemical_formula_structural   In2Te3
_chemical_formula_sum   'In72 Te108'
_cell_volume   6654.10748598
_cell_formula_units_Z   36
loop_
 _symmetry_equiv_pos_site_id
 _symmetry_equiv_pos_as_xyz
  1  'x, y, z'
loop_
 _atom_site_type_symbol
 _atom_site_label
 _atom_site_symmetry_multiplicity
 _atom_site_fract_x
 _atom_site_fract_y
 _atom_site_fract_z
 _atom_site_occupancy
  In  In0  1  0.33414332  0.66448109  0.00422175  1
  In  In1  1  0.83166313  -0.00073592  0.81677967  1
  In  In2  1  -0.02561260  0.34148412  0.32952609  1
  In  In3  1  0.15720387  0.54814126  0.67124243  1
  In  In4  1  0.00650552  -0.01113233  0.31610143  1
  In  In5  1  0.47852198  0.15235142  0.67659882  1
  In  In6  1  0.50604224  0.50365191  0.33625276  1
  In  In7  1  0.34272410  0.51916152  0.48892815  1
  In  In8  1  0.34626452  0.15961611  0.84829869  1
  In  In9  1  0.49625605  0.33394916  0.82706414  1
  In  In10  1  0.18254742  0.50085187  0.02308604  1
  In  In11  1  0.61897813  0.03063195  -0.02744965  1
  In  In12  1  0.31308451  0.30003962  0.02763114  1
  In  In13  1  0.47432971  0.49842754  -0.00103198  1
  In  In14  1  0.66204596  0.84327667  0.16438415  1
  In  In15  1  0.67666270  -0.00131782  0.66110511  1
  In  In16  1  0.84498860  0.64458509  0.50311779  1
  In  In17  1  0.32184933  -0.00872822  0.30038529  1
  In  In18  1  0.00932699  0.15719779  0.17120085  1
  In  In19  1  -0.00261359  0.67336523  0.66755866  1
  In  In20  1  0.51007794  0.17383666  0.33592046  1
  In  In21  1  0.32835160  0.15547300  0.52193525  1
  In  In22  1  0.47856241  0.67046067  0.16363588  1
  In  In23  1  0.49888965  0.33448174  0.14944553  1
  In  In24  1  0.65435808  0.50492036  0.81087988  1
  In  In25  1  0.00051086  0.34484981  0.01992896  1
  In  In26  1  0.15252461  0.80756683  0.34419853  1
  In  In27  1  0.67333092  0.17764386  0.47842142  1
  In  In28  1  0.00088502  0.85112788  0.86554057  1
  In  In29  1  0.84570258  0.82995238  0.32619438  1
  In  In30  1  0.83240731  0.33553728  0.48906255  1
  In  In31  1  -0.01522846  0.32920219  0.66727675  1
  In  In32  1  0.65286792  0.69364042  -0.03025665  1
  In  In33  1  0.33041340  0.79928897  0.51035281  1
  In  In34  1  0.01200279  0.17438478  0.83128648  1
  In  In35  1  0.51184303  0.52877930  0.65684716  1
  In  In36  1  0.49802369  -0.01661611  0.48799865  1
  In  In37  1  0.67690839  0.50798532  0.16451203  1
  In  In38  1  0.66979933  0.65935936  0.32086678  1
  In  In39  1  0.83729513  0.01570334  0.49720952  1
  In  In40  1  0.17033696  -0.00711053  0.51374444  1
  In  In41  1  0.82950085  0.67961226  0.82732500  1
  In  In42  1  0.20802187  -0.03442535  0.82837563  1
  In  In43  1  0.48849394  0.82812791  0.67645072  1
  In  In44  1  0.30966021  0.53085145  0.82585483  1
  In  In45  1  0.14635475  0.33487177  0.85323293  1
  In  In46  1  0.86593910  0.66561199  0.16479807  1
  In  In47  1  0.68655451  0.49790444  0.49928846  1
  In  In48  1  0.34183097  0.32738986  0.65516088  1
  In  In49  1  -0.00557620  -0.02688552  0.65446873  1
  In  In50  1  0.83748603  0.83118031  -0.01764825  1
  In  In51  1  0.48752654  0.01047202  0.16915356  1
  In  In52  1  0.66576163  0.33834245  0.66332862  1
  In  In53  1  0.17168357  0.14076986  0.31896479  1
  In  In54  1  0.64845558  0.82383888  0.82698215  1
  In  In55  1  0.32469199  0.34594203  0.31766807  1
  In  In56  1  0.85863833  0.50879974  0.01402007  1
  In  In57  1  -0.00275560  0.50252156  0.84950821  1
  In  In58  1  0.00394104  0.50492803  0.50468530  1
  In  In59  1  0.33859816  0.68743450  0.32574764  1
  In  In60  1  0.64678910  0.84432312  0.50293965  1
  In  In61  1  0.16500438  0.33609400  0.50829744  1
  In  In62  1  0.69309694  0.19024795  0.19776497  1
  In  In63  1  0.32758377  -0.03197787  0.01059453  1
  In  In64  1  0.67372786  0.31159085  0.00845535  1
  In  In65  1  0.02295887  -0.00992383  0.01101126  1
  In  In66  1  0.03295529  0.80792368  0.16334891  1
  In  In67  1  0.82688768  0.17073808  -0.00373516  1
  In  In68  1  0.84165615  0.01562426  0.16766859  1
  In  In69  1  0.18705578  0.67157107  0.81926050  1
  In  In70  1  0.16295160  0.53132779  0.30466939  1
  In  In71  1  0.14105873  0.15956448  0.68718742  1
  Te  Te72  1  0.10984166  0.08193915  0.09046077  1
  Te  Te73  1  0.08100848  0.07619425  0.42298643  1
  Te  Te74  1  0.08231081  0.04353894  0.77418385  1
  Te  Te75  1  0.10030674  0.41005356  0.10880501  1
  Te  Te76  1  0.09533694  0.42504528  0.40701973  1
  Te  Te77  1  0.09108575  0.42389847  0.74179569  1
  Te  Te78  1  0.08828551  0.74435205  0.04301985  1
  Te  Te79  1  0.07173173  0.75086167  0.45363702  1
  Te  Te80  1  0.07625310  0.76137815  0.76441006  1
  Te  Te81  1  0.40647690  0.08124684  0.06710323  1
  Te  Te82  1  0.40100270  0.08145421  0.40828572  1
  Te  Te83  1  0.40896906  0.05511799  0.76439048  1
  Te  Te84  1  0.38645143  0.42197230  0.09516202  1
  Te  Te85  1  0.41990922  0.40726016  0.42013122  1
  Te  Te86  1  0.41305974  0.43136133  0.74427748  1
  Te  Te87  1  0.41018170  0.76896547  0.07958789  1
  Te  Te88  1  0.43350668  0.75573833  0.41567948  1
  Te  Te89  1  0.38698933  0.79869260  0.78778976  1
  Te  Te90  1  0.73559516  0.07638905  0.07733083  1
  Te  Te91  1  0.74957858  0.08073843  0.39810540  1
  Te  Te92  1  0.74766363  0.09635701  0.74746568  1
  Te  Te93  1  0.76349095  0.40996218  0.08497512  1
  Te  Te94  1  0.74310407  0.40786070  0.39285014  1
  Te  Te95  1  0.75414365  0.41719782  0.75128132  1
  Te  Te96  1  0.75514675  0.74448295  0.08861211  1
  Te  Te97  1  0.75093675  0.74931139  0.41398941  1
  Te  Te98  1  0.74135026  0.75306932  0.73613203  1
  Te  Te99  1  0.08588865  0.25222717  0.26348164  1
  Te  Te100  1  0.06975494  0.23879583  0.57657633  1
  Te  Te101  1  0.08745514  0.23520236  0.94907348  1
  Te  Te102  1  0.04755867  0.59131665  0.23517694  1
  Te  Te103  1  0.09527421  0.62269433  0.54923969  1
  Te  Te104  1  0.10414096  0.58154782  0.91851889  1
  Te  Te105  1  0.11223677  0.91884630  0.23255339  1
  Te  Te106  1  0.08703074  0.88552566  0.57639919  1
  Te  Te107  1  0.12304867  0.87492256  0.96766060  1
  Te  Te108  1  0.41342628  0.24669479  0.24195756  1
  Te  Te109  1  0.43855809  0.25255900  0.56589482  1
  Te  Te110  1  0.43139153  0.25055069  0.93801792  1
  Te  Te111  1  0.40244543  0.56822413  0.24755381  1
  Te  Te112  1  0.42178576  0.61238089  0.57307146  1
  Te  Te113  1  0.42916314  0.59749586  0.89508134  1
  Te  Te114  1  0.41732559  0.89937737  0.23916476  1
  Te  Te115  1  0.40279534  0.91730712  0.58352391  1
  Te  Te116  1  0.40994393  0.89762717  0.90655419  1
  Te  Te117  1  0.77598380  0.29331162  0.26856504  1
  Te  Te118  1  0.75740650  0.24281229  0.58723535  1
  Te  Te119  1  0.74282998  0.24171218  0.89935657  1
  Te  Te120  1  0.77945497  0.57615538  0.25567711  1
  Te  Te121  1  0.74777015  0.58765555  0.59881804  1
  Te  Te122  1  0.75247596  0.58220207  0.92571803  1
  Te  Te123  1  0.75203256  0.92596502  0.25571895  1
  Te  Te124  1  0.76387097  0.90675899  0.57881140  1
  Te  Te125  1  0.73610430  0.92441810  0.91917293  1
  Te  Te126  1  0.22665657  0.21823092  0.11325033  1
  Te  Te127  1  0.25109024  0.24345793  0.42058430  1
  Te  Te128  1  0.24850505  0.25381172  0.75219096  1
  Te  Te129  1  0.23854136  0.61122425  0.10595396  1
  Te  Te130  1  0.24211046  0.60361269  0.41357220  1
  Te  Te131  1  0.28770709  0.62463394  0.70502604  1
  Te  Te132  1  0.22319846  0.89455765  0.08762725  1
  Te  Te133  1  0.25445185  0.91097307  0.41394727  1
  Te  Te134  1  0.25680064  0.87297806  0.72122090  1
  Te  Te135  1  0.58492346  0.22235332  0.09269139  1
  Te  Te136  1  0.59359522  0.27552920  0.40252762  1
  Te  Te137  1  0.58346250  0.23512576  0.75255743  1
  Te  Te138  1  0.58099555  0.58923250  0.07605377  1
  Te  Te139  1  0.58550566  0.59289531  0.42910993  1
  Te  Te140  1  0.57123672  0.61535423  0.76279956  1
  Te  Te141  1  0.57196417  0.92254074  0.07183526  1
  Te  Te142  1  0.58713259  0.91918498  0.39104978  1
  Te  Te143  1  0.57403667  0.93374861  0.75187511  1
  Te  Te144  1  0.90965163  0.24800178  0.09789245  1
  Te  Te145  1  0.92903038  0.24186706  0.42786389  1
  Te  Te146  1  0.90648960  0.24132063  0.75596346  1
  Te  Te147  1  0.96548635  0.57109405  0.10021618  1
  Te  Te148  1  0.91552285  0.56317762  0.40186247  1
  Te  Te149  1  0.91119805  0.57571095  0.74806215  1
  Te  Te150  1  0.91945318  0.90279818  0.09906083  1
  Te  Te151  1  0.92862894  0.91403339  0.42213973  1
  Te  Te152  1  0.90664526  0.88664749  0.74990003  1
  Te  Te153  1  0.27008965  0.10182533  0.21014671  1
  Te  Te154  1  0.24883696  0.07219170  0.62026714  1
  Te  Te155  1  0.24231794  0.07823676  0.92317539  1
  Te  Te156  1  0.22799545  0.41733737  0.23129085  1
  Te  Te157  1  0.24902631  0.43465914  0.58918172  1
  Te  Te158  1  0.26444494  0.40771814  0.91590841  1
  Te  Te159  1  0.23236466  0.74302392  0.23704536  1
  Te  Te160  1  0.23150117  0.76384189  0.61353856  1
  Te  Te161  1  0.27644395  0.76184941  0.90255403  1
  Te  Te162  1  0.59723781  0.08214089  0.25247098  1
  Te  Te163  1  0.57879253  0.08307796  0.57368306  1
  Te  Te164  1  0.54345873  0.11752842  0.88358082  1
  Te  Te165  1  0.58874149  0.41236360  0.24509153  1
  Te  Te166  1  0.57487707  0.41880165  0.57295335  1
  Te  Te167  1  0.58478691  0.41790711  0.92943052  1
  Te  Te168  1  0.57352972  0.75435181  0.25173679  1
  Te  Te169  1  0.58341839  0.74901926  0.59553043  1
  Te  Te170  1  0.54296695  0.78408383  0.92692348  1
  Te  Te171  1  0.90931046  0.10015228  0.27362318  1
  Te  Te172  1  0.91759315  0.08528057  0.60114622  1
  Te  Te173  1  0.92118294  0.06772122  0.92773471  1
  Te  Te174  1  0.88633460  0.39372058  0.22411968  1
  Te  Te175  1  0.90192945  0.42978331  0.58995358  1
  Te  Te176  1  0.90731131  0.39834401  0.91186483  1
  Te  Te177  1  0.95297384  0.73446017  0.27394772  1
  Te  Te178  1  0.92589605  0.75402214  0.56537985  1
  Te  Te179  1  0.93377165  0.72624432  0.93134811  1
