# generated using pymatgen
data_In2Te3
_symmetry_space_group_name_H-M   'P 1'
_cell_length_a   18.77939251
_cell_length_b   18.78378993
_cell_length_c   18.78613220
_cell_angle_alpha   89.88139013
_cell_angle_beta   89.95810124
_cell_angle_gamma   89.99426208
_symmetry_Int_Tables_number   1
_chemical_formula_structural   In2Te3
_chemical_formula_sum   'In72 Te108'
_cell_volume   6626.75763815
_cell_formula_units_Z   36
loop_
 _symmetry_equiv_pos_site_id
 _symmetry_equiv_pos_as_xyz
  1  'x, y, z'
loop_
 _atom_site_type_symbol
 _atom_site_label
 _atom_site_symmetry_multiplicity
 _atom_site_fract_x
 _atom_site_fract_y
 _atom_site_fract_z
 _atom_site_occupancy
  In  In0  1  0.13813534  0.18118084  0.63935379  1
  In  In1  1  0.50948543  0.82846294  0.67317909  1
  In  In2  1  0.49615149  0.49591873  0.69740396  1
  In  In3  1  0.34528240  0.81522826  0.14881519  1
  In  In4  1  0.16739381  0.64719306  0.83924182  1
  In  In5  1  0.82790047  0.00680634  0.49320439  1
  In  In6  1  0.00289107  0.51067855  0.83139215  1
  In  In7  1  0.49114024  0.32364728  0.16838077  1
  In  In8  1  0.01214935  -0.00478697  0.66280043  1
  In  In9  1  0.01433541  0.85408438  0.49967638  1
  In  In10  1  -0.00020556  0.16371245  0.79743076  1
  In  In11  1  0.34950559  -0.01418069  0.01043532  1
  In  In12  1  0.30496740  0.19466779  0.48126397  1
  In  In13  1  0.34429970  0.35561050  0.66911861  1
  In  In14  1  0.32694494  0.67878378  0.67467253  1
  In  In15  1  0.87342773  0.33656997  0.17898279  1
  In  In16  1  0.18364860  0.16253337  -0.00166659  1
  In  In17  1  0.80971983  0.81003504  0.68764748  1
  In  In18  1  0.15609384  0.66823681  0.15049907  1
  In  In19  1  0.66519626  0.17460308  0.83471060  1
  In  In20  1  0.16885373  0.34631508  0.83527475  1
  In  In21  1  0.85434320  0.64096064  0.50020082  1
  In  In22  1  0.64399547  0.51647914  0.15444246  1
  In  In23  1  0.68097416  0.32492426  -0.00316970  1
  In  In24  1  0.83678350  0.17117714  0.34596508  1
  In  In25  1  0.66720733  0.15439189  0.16684399  1
  In  In26  1  0.33291607  0.16190487  0.16764966  1
  In  In27  1  0.65916563  -0.00531404  0.00970027  1
  In  In28  1  0.80458838  -0.00556489  0.17146181  1
  In  In29  1  0.33502709  0.81555932  0.51241928  1
  In  In30  1  0.51597549  0.16415262  0.32130485  1
  In  In31  1  0.49078274  0.34451078  0.48468304  1
  In  In32  1  0.83154322  0.50649508  -0.00403112  1
  In  In33  1  0.66701242  0.83403378  0.50368200  1
  In  In34  1  0.35020351  0.53307891  0.19921278  1
  In  In35  1  0.67176433  0.31572377  0.66558682  1
  In  In36  1  0.65713724  0.84298603  0.17720261  1
  In  In37  1  0.15109779  0.81562414  0.33302416  1
  In  In38  1  0.67262324  0.35242715  0.34966892  1
  In  In39  1  0.01072930  0.20234650  0.18235812  1
  In  In40  1  0.86013979  0.48513810  0.64557899  1
  In  In41  1  0.50404694  -0.01455808  0.82975644  1
  In  In42  1  0.16156663  0.50093273  0.64633170  1
  In  In43  1  0.33022342  0.34064922  -0.01421277  1
  In  In44  1  0.34277459  0.00230678  0.33623380  1
  In  In45  1  -0.00268126  0.64960469  0.66539755  1
  In  In46  1  0.00480520  0.35157008  0.00628640  1
  In  In47  1  0.15737379  0.01729586  0.49809724  1
  In  In48  1  0.00750119  0.81568569  0.84161172  1
  In  In49  1  0.82866676  0.81885637  -0.02252020  1
  In  In50  1  0.81976495  0.00157166  0.84053264  1
  In  In51  1  0.49801985  0.67851953  0.49445096  1
  In  In52  1  0.00549966  -0.01255229  -0.01755761  1
  In  In53  1  0.00748942  0.34438347  0.34660759  1
  In  In54  1  0.67640505  0.51520108  0.83013594  1
  In  In55  1  0.19186318  0.00323405  0.15837488  1
  In  In56  1  0.01179197  0.01967683  0.34832096  1
  In  In57  1  0.31967325  0.49760415  0.49210180  1
  In  In58  1  0.16384770  0.50193532  0.33776752  1
  In  In59  1  0.50697754  -0.00652188  0.52322111  1
  In  In60  1  0.47979909  0.83320056  0.33489405  1
  In  In61  1  0.84165273  0.17473255  0.65458651  1
  In  In62  1  0.34032634  0.66102726  -0.00435870  1
  In  In63  1  0.83532117  0.65850543  0.17757879  1
  In  In64  1  0.31184772  0.85462602  0.81643852  1
  In  In65  1  0.65704523  0.67054932  0.35193452  1
  In  In66  1  0.67664950  0.51373680  0.49749651  1
  In  In67  1  0.51232242  0.14992927  0.67195335  1
  In  In68  1  0.01062411  0.48861401  0.17515206  1
  In  In69  1  0.33831729  0.17060906  0.83803495  1
  In  In70  1  0.50624166  0.51957316  -0.01244858  1
  In  In71  1  -0.00582467  0.81111573  0.16582269  1
  Te  Te72  1  0.08166433  0.08591170  0.08715447  1
  Te  Te73  1  0.09241854  0.12682390  0.41629561  1
  Te  Te74  1  0.11104084  0.07169868  0.75144473  1
  Te  Te75  1  0.10558230  0.40746830  0.09633730  1
  Te  Te76  1  0.06363502  0.44843203  0.44390175  1
  Te  Te77  1  0.07381734  0.41382335  0.73723924  1
  Te  Te78  1  0.07827961  0.75616455  0.05999157  1
  Te  Te79  1  0.06913748  0.73765264  0.42717889  1
  Te  Te80  1  0.09417056  0.73880831  0.74073817  1
  Te  Te81  1  0.42790116  0.08458487  0.08680031  1
  Te  Te82  1  0.41895508  0.09203022  0.43259968  1
  Te  Te83  1  0.40625279  0.06844163  0.74583602  1
  Te  Te84  1  0.41941815  0.43044320  0.08695360  1
  Te  Te85  1  0.39255158  0.40986019  0.39417727  1
  Te  Te86  1  0.40904501  0.41641146  0.78695140  1
  Te  Te87  1  0.44552188  0.73820914  0.06992174  1
  Te  Te88  1  0.38899787  0.72748970  0.39905053  1
  Te  Te89  1  0.41892735  0.75234543  0.76957691  1
  Te  Te90  1  0.76212936  0.09384264  0.06259487  1
  Te  Te91  1  0.73714824  0.07774903  0.40072643  1
  Te  Te92  1  0.74564911  0.08653657  0.73869652  1
  Te  Te93  1  0.75873680  0.41806339  0.09998638  1
  Te  Te94  1  0.76987942  0.41132960  0.44502027  1
  Te  Te95  1  0.75604644  0.41854443  0.74016666  1
  Te  Te96  1  0.75026325  0.75372723  0.09232750  1
  Te  Te97  1  0.76509132  0.74606774  0.42672779  1
  Te  Te98  1  0.72785033  0.73587370  0.78444860  1
  Te  Te99  1  0.11210152  0.27893891  0.25972732  1
  Te  Te100  1  0.03605447  0.26872792  0.57895030  1
  Te  Te101  1  0.08368201  0.24288300  0.91375127  1
  Te  Te102  1  0.07287066  0.59953832  0.25833477  1
  Te  Te103  1  0.06928186  0.57773184  0.55590135  1
  Te  Te104  1  0.08432579  0.57306356  0.93675234  1
  Te  Te105  1  0.08559536  0.92661397  0.24616606  1
  Te  Te106  1  0.12318957  0.89999013  0.60196721  1
  Te  Te107  1  0.10167988  0.91509404  0.89914064  1
  Te  Te108  1  0.40246654  0.25237266  0.27079451  1
  Te  Te109  1  0.41835791  0.24904848  0.58521272  1
  Te  Te110  1  0.42537745  0.24215318  0.93202005  1
  Te  Te111  1  0.45860747  0.60980397  0.25971179  1
  Te  Te112  1  0.41787997  0.58021663  0.58812950  1
  Te  Te113  1  0.41230943  0.58243832  0.89158534  1
  Te  Te114  1  0.41806637  0.92519187  0.22923251  1
  Te  Te115  1  0.40203154  0.91619674  0.60297059  1
  Te  Te116  1  0.42433877  0.89034411  0.91796397  1
  Te  Te117  1  0.74886496  0.26116536  0.24359080  1
  Te  Te118  1  0.75724177  0.25589271  0.56161047  1
  Te  Te119  1  0.76838659  0.25717440  0.90019038  1
  Te  Te120  1  0.73597058  0.57585049  0.26191798  1
  Te  Te121  1  0.75348284  0.59040796  0.60347501  1
  Te  Te122  1  0.72997154  0.60437775  0.94173745  1
  Te  Te123  1  0.75186254  0.90243343  0.27299308  1
  Te  Te124  1  0.75198362  0.91974293  0.59611757  1
  Te  Te125  1  0.72349914  0.90222647  0.90459307  1
  Te  Te126  1  0.24763058  0.26336986  0.09182372  1
  Te  Te127  1  0.19200311  0.25171728  0.40632992  1
  Te  Te128  1  0.24542911  0.24906524  0.74173639  1
  Te  Te129  1  0.25443129  0.57147745  0.08619100  1
  Te  Te130  1  0.24295573  0.59988521  0.41838105  1
  Te  Te131  1  0.25679296  0.56339431  0.74706498  1
  Te  Te132  1  0.23961331  0.89253103  0.06802847  1
  Te  Te133  1  0.24727821  0.91360900  0.41670631  1
  Te  Te134  1  0.21805544  0.91943522  0.72542739  1
  Te  Te135  1  0.57899666  0.24053208  0.07572127  1
  Te  Te136  1  0.59224503  0.24585907  0.42533985  1
  Te  Te137  1  0.56339320  0.26325766  0.75993080  1
  Te  Te138  1  0.57491900  0.62157570  0.07372362  1
  Te  Te139  1  0.56017926  0.56464631  0.41218524  1
  Te  Te140  1  0.57622320  0.60762489  0.75988701  1
  Te  Te141  1  0.56845858  0.89611226  0.07225120  1
  Te  Te142  1  0.58019258  0.91920506  0.41080665  1
  Te  Te143  1  0.60252864  0.92091591  0.74053972  1
  Te  Te144  1  0.91561119  0.24180915  0.06836063  1
  Te  Te145  1  0.92605008  0.25198954  0.43252130  1
  Te  Te146  1  0.91395539  0.26945887  0.74332014  1
  Te  Te147  1  0.92940506  0.58296218  0.08321009  1
  Te  Te148  1  0.91276637  0.54954824  0.40243275  1
  Te  Te149  1  0.89457021  0.58945946  0.75890564  1
  Te  Te150  1  0.90602482  0.91724300  0.07776280  1
  Te  Te151  1  0.91418116  0.91634589  0.40279576  1
  Te  Te152  1  0.91521842  0.91619926  0.75355882  1
  Te  Te153  1  0.23990277  0.09365463  0.27012699  1
  Te  Te154  1  0.25495040  0.09530372  0.58558447  1
  Te  Te155  1  0.25792816  0.06189689  0.91301018  1
  Te  Te156  1  0.26868939  0.42606273  0.26246628  1
  Te  Te157  1  0.23671083  0.39217622  0.56739485  1
  Te  Te158  1  0.24110734  0.44007461  0.92206943  1
  Te  Te159  1  0.25266164  0.74128886  0.24526465  1
  Te  Te160  1  0.23274929  0.72633663  0.57132351  1
  Te  Te161  1  0.24767207  0.75298802  0.91344687  1
  Te  Te162  1  0.58280642  0.05969582  0.24255032  1
  Te  Te163  1  0.60612598  0.08765901  0.57748006  1
  Te  Te164  1  0.57409608  0.08620751  0.92033182  1
  Te  Te165  1  0.57463940  0.41959702  0.25267239  1
  Te  Te166  1  0.57761848  0.42224420  0.58732070  1
  Te  Te167  1  0.59201567  0.41643602  0.91218788  1
  Te  Te168  1  0.55880289  0.73139087  0.24991502  1
  Te  Te169  1  0.59931445  0.73139495  0.59412242  1
  Te  Te170  1  0.61316332  0.69867587  0.88317353  1
  Te  Te171  1  0.91953501  0.08605643  0.23909945  1
  Te  Te172  1  0.93490807  0.08518474  0.56893787  1
  Te  Te173  1  0.92086501  0.09190033  0.90891530  1
  Te  Te174  1  0.90107491  0.44760895  0.28330935  1
  Te  Te175  1  0.95675475  0.40351569  0.56575278  1
  Te  Te176  1  0.90851966  0.41251282  0.90560909  1
  Te  Te177  1  0.91470754  0.74512030  0.26884699  1
  Te  Te178  1  0.91932067  0.76495666  0.58937941  1
  Te  Te179  1  0.91673389  0.72159502  0.91042578  1
