# generated using pymatgen
data_In2Te3
_symmetry_space_group_name_H-M   'P 1'
_cell_length_a   18.75806181
_cell_length_b   18.76089805
_cell_length_c   18.76336941
_cell_angle_alpha   89.93968759
_cell_angle_beta   90.00504128
_cell_angle_gamma   89.96280539
_symmetry_Int_Tables_number   1
_chemical_formula_structural   In2Te3
_chemical_formula_sum   'In72 Te108'
_cell_volume   6603.16395904
_cell_formula_units_Z   36
loop_
 _symmetry_equiv_pos_site_id
 _symmetry_equiv_pos_as_xyz
  1  'x, y, z'
loop_
 _atom_site_type_symbol
 _atom_site_label
 _atom_site_symmetry_multiplicity
 _atom_site_fract_x
 _atom_site_fract_y
 _atom_site_fract_z
 _atom_site_occupancy
  In  In0  1  0.01254581  0.15589636  0.52578745  1
  In  In1  1  0.34824849  0.66104029  0.34556296  1
  In  In2  1  0.46855132  0.32482004  0.85339778  1
  In  In3  1  0.00750401  0.32851512  0.33477911  1
  In  In4  1  0.81628064  0.50167577  -0.00792265  1
  In  In5  1  0.32390531  0.69044876  -0.03079265  1
  In  In6  1  0.50130525  0.66707845  0.16074354  1
  In  In7  1  0.83474201  0.33723210  0.46577583  1
  In  In8  1  0.63411675  -0.02625826  0.02126110  1
  In  In9  1  0.48652895  -0.01261225  0.83288854  1
  In  In10  1  0.81588043  0.31533562  0.14667245  1
  In  In11  1  0.49231083  0.82978768  0.68363678  1
  In  In12  1  0.17228130  -0.00600992  0.15346101  1
  In  In13  1  0.33566185  0.48709848  0.50051819  1
  In  In14  1  0.34706709  0.68168555  0.69302160  1
  In  In15  1  0.68210481  0.00377391  0.32355915  1
  In  In16  1  0.14957030  0.65320870  0.15770480  1
  In  In17  1  0.83970043  0.00245058  0.82476851  1
  In  In18  1  -0.04090918  0.01990578  0.30921618  1
  In  In19  1  -0.01351523  0.48469115  0.48453549  1
  In  In20  1  0.65482123  0.16425013  0.84523877  1
  In  In21  1  0.33453136  0.34407888  0.32820610  1
  In  In22  1  0.49282441  0.33396069  0.15339369  1
  In  In23  1  0.66222894  0.83506783  0.51269771  1
  In  In24  1  0.32659267  0.01227465  0.67862252  1
  In  In25  1  0.01038066  0.48875874  0.15785495  1
  In  In26  1  0.02938605  0.84755072  0.50215041  1
  In  In27  1  0.47220461  0.31282450  0.52827673  1
  In  In28  1  0.64852896  0.33089214  0.66075889  1
  In  In29  1  0.66709727  0.82376867  0.82605842  1
  In  In30  1  0.50124626  0.00481653  0.50887144  1
  In  In31  1  0.84565225  0.35749752  0.81998504  1
  In  In32  1  0.34072398  -0.00430785  0.32908585  1
  In  In33  1  0.17607407  0.16719492  0.32984004  1
  In  In34  1  0.81055191  0.66287278  0.17269045  1
  In  In35  1  0.80494663  0.50473374  0.66806534  1
  In  In36  1  0.64711778  0.68025918  0.00052126  1
  In  In37  1  0.65888681  0.14537485  0.49493923  1
  In  In38  1  0.84472222  0.83109002  0.01336203  1
  In  In39  1  0.82535651  0.68259320  0.85051673  1
  In  In40  1  0.17158416  0.66718606  0.51095687  1
  In  In41  1  0.51016227  0.52285083  0.70096361  1
  In  In42  1  0.80798490  0.50322202  0.32234101  1
  In  In43  1  0.32335097  0.84317725  0.14632103  1
  In  In44  1  0.01973980  0.68072000  -0.00202658  1
  In  In45  1  0.33777555  0.50115920  0.84598950  1
  In  In46  1  0.68349202  0.34289411  0.31650311  1
  In  In47  1  0.81237346  0.65567631  0.50687399  1
  In  In48  1  0.00877715  0.69478049  0.67233070  1
  In  In49  1  0.82968000  0.83669754  0.32730194  1
  In  In50  1  0.17622759  0.83397947  0.69263613  1
  In  In51  1  0.34469559  0.49423714  0.15582293  1
  In  In52  1  0.84169935  0.15994849  0.66315341  1
  In  In53  1  0.17971912  0.49899085  0.67182520  1
  In  In54  1  0.01525749  0.32183343  0.67233990  1
  In  In55  1  0.03530806  -0.01675035  -0.01777605  1
  In  In56  1  0.51307111  0.16634346  0.33301143  1
  In  In57  1  0.14353987  0.31221621  0.51621481  1
  In  In58  1  0.17407270  0.32470528  0.14463525  1
  In  In59  1  0.52098747  0.64505303  0.47493710  1
  In  In60  1  -0.00797170  0.50847498  0.85366915  1
  In  In61  1  0.83487409  0.17279814  0.01795692  1
  In  In62  1  0.19542059  0.14876836  -0.01575087  1
  In  In63  1  0.06079864  0.12780083  0.83874501  1
  In  In64  1  0.47717633  0.82948103  0.31123586  1
  In  In65  1  0.65495693  0.35234661  -0.00240004  1
  In  In66  1  -0.01038063  0.82518317  0.14804183  1
  In  In67  1  0.22187831  0.30292065  0.83586370  1
  In  In68  1  0.16241178  0.82889335  0.33602323  1
  In  In69  1  0.66508390  0.18301105  0.15951631  1
  In  In70  1  0.82338786  0.85474904  0.67394327  1
  In  In71  1  0.18017043  -0.00151375  0.50966616  1
  Te  Te72  1  0.08309010  0.09243824  0.07876773  1
  Te  Te73  1  0.08632739  0.07105945  0.40934392  1
  Te  Te74  1  0.11297786  0.05648063  0.72385349  1
  Te  Te75  1  0.10337291  0.42710029  0.06159021  1
  Te  Te76  1  0.10312808  0.41922955  0.41183365  1
  Te  Te77  1  0.08922880  0.41681409  0.76555904  1
  Te  Te78  1  0.11468491  0.77844437  0.07644180  1
  Te  Te79  1  0.07268180  0.73140749  0.41175080  1
  Te  Te80  1  0.10276460  0.73474445  0.77910779  1
  Te  Te81  1  0.40107583  0.13732129  0.05254048  1
  Te  Te82  1  0.41081259  0.09571444  0.42192229  1
  Te  Te83  1  0.41740846  0.10297057  0.76142165  1
  Te  Te84  1  0.41394162  0.41237899  0.05337174  1
  Te  Te85  1  0.43807878  0.41573906  0.41328800  1
  Te  Te86  1  0.40915171  0.41580586  0.74104978  1
  Te  Te87  1  0.42766031  0.76572686  0.06658842  1
  Te  Te88  1  0.42314897  0.75759607  0.43548150  1
  Te  Te89  1  0.42776405  0.75435095  0.79658510  1
  Te  Te90  1  0.73988237  0.07329973  0.08110166  1
  Te  Te91  1  0.76511186  0.07133769  0.42617574  1
  Te  Te92  1  0.73647275  0.08247282  0.74498642  1
  Te  Te93  1  0.73244995  0.43545535  0.10119949  1
  Te  Te94  1  0.72701913  0.43917722  0.43742078  1
  Te  Te95  1  0.71938282  0.42037587  0.76349107  1
  Te  Te96  1  0.73156197  0.76867109  0.09392779  1
  Te  Te97  1  0.73568469  0.74805274  0.41066494  1
  Te  Te98  1  0.74564518  0.73522790  0.72907947  1
  Te  Te99  1  0.08104967  0.23973057  0.23518343  1
  Te  Te100  1  0.11307478  0.21112972  0.63047009  1
  Te  Te101  1  0.09891727  0.25332319  0.91336319  1
  Te  Te102  1  0.07101725  0.57936043  0.25736584  1
  Te  Te103  1  0.07036268  0.57097078  0.58860392  1
  Te  Te104  1  0.09865845  0.57665705  0.92930849  1
  Te  Te105  1  0.07538753  0.92215590  0.25180455  1
  Te  Te106  1  0.08407939  0.93686390  0.61676728  1
  Te  Te107  1  0.12457811  0.90310693  0.89739072  1
  Te  Te108  1  0.41122075  0.24111131  0.24618389  1
  Te  Te109  1  0.37967063  0.23164126  0.61001573  1
  Te  Te110  1  0.38255426  0.21939969  0.93201938  1
  Te  Te111  1  0.43090276  0.56910447  0.25912427  1
  Te  Te112  1  0.41241041  0.58849342  0.58644599  1
  Te  Te113  1  0.42693030  0.59985965  0.91223527  1
  Te  Te114  1  0.42639951  0.94332489  0.21022507  1
  Te  Te115  1  0.40772802  0.91474311  0.58978064  1
  Te  Te116  1  0.38649106  0.94347570  0.93636597  1
  Te  Te117  1  0.76972801  0.21951106  0.26934137  1
  Te  Te118  1  0.75691341  0.25853761  0.57951263  1
  Te  Te119  1  0.75353548  0.26089123  0.91313310  1
  Te  Te120  1  0.70528056  0.59404186  0.25853552  1
  Te  Te121  1  0.70974099  0.58487403  0.58814723  1
  Te  Te122  1  0.72260780  0.57860103  0.89772121  1
  Te  Te123  1  0.75236743  0.91475118  0.22841473  1
  Te  Te124  1  0.74626866  0.93707169  0.57832993  1
  Te  Te125  1  0.74884392  0.91790190  0.92009525  1
  Te  Te126  1  0.28095332  0.23976320  0.07616078  1
  Te  Te127  1  0.25565402  0.25474119  0.42431676  1
  Te  Te128  1  0.30173406  0.21401996  0.74717206  1
  Te  Te129  1  0.25985475  0.59242920  0.07372379  1
  Te  Te130  1  0.24319624  0.57328764  0.41305929  1
  Te  Te131  1  0.24381022  0.59699633  0.76738748  1
  Te  Te132  1  0.27180679  0.94853126  0.04719294  1
  Te  Te133  1  0.26368223  0.90205831  0.42317093  1
  Te  Te134  1  0.26804175  0.91576193  0.78075419  1
  Te  Te135  1  0.56841765  0.23951387  0.05601840  1
  Te  Te136  1  0.59168079  0.26365868  0.42195777  1
  Te  Te137  1  0.56322744  0.24752381  0.75564208  1
  Te  Te138  1  0.57526937  0.57315029  0.07215802  1
  Te  Te139  1  0.61118944  0.57214895  0.38482469  1
  Te  Te140  1  0.61930004  0.59705657  0.76370178  1
  Te  Te141  1  0.53306082  0.89909661  0.09677449  1
  Te  Te142  1  0.57345145  0.91687405  0.40501853  1
  Te  Te143  1  0.59475695  0.92785141  0.73978217  1
  Te  Te144  1  0.93705943  0.25716250  0.08463153  1
  Te  Te145  1  0.92738514  0.22784691  0.41693444  1
  Te  Te146  1  0.92554322  0.23795507  0.76602208  1
  Te  Te147  1  0.90785007  0.59652298  0.07230776  1
  Te  Te148  1  0.90656117  0.58682976  0.40589140  1
  Te  Te149  1  0.91052090  0.58834647  0.74915554  1
  Te  Te150  1  0.92014623  0.94310776  0.08364465  1
  Te  Te151  1  0.92022669  0.91982827  0.41992210  1
  Te  Te152  1  0.93090057  0.90441027  0.76181045  1
  Te  Te153  1  0.26343322  0.08759003  0.23358922  1
  Te  Te154  1  0.27506591  0.09937753  0.56571236  1
  Te  Te155  1  0.27247481  0.04718119  0.90353529  1
  Te  Te156  1  0.23832012  0.42497319  0.24272119  1
  Te  Te157  1  0.25321725  0.39477406  0.59080359  1
  Te  Te158  1  0.26005203  0.40757482  0.93220887  1
  Te  Te159  1  0.26017302  0.74599569  0.24991619  1
  Te  Te160  1  0.26116410  0.75963967  0.58858848  1
  Te  Te161  1  0.21652710  0.77673847  0.91456779  1
  Te  Te162  1  0.58007935  0.07684950  0.23144325  1
  Te  Te163  1  0.56854353  0.09901484  0.60055951  1
  Te  Te164  1  0.56456762  0.07811376  0.93275752  1
  Te  Te165  1  0.57860210  0.41601235  0.24416258  1
  Te  Te166  1  0.55874043  0.42575219  0.58431930  1
  Te  Te167  1  0.55792317  0.42725080  0.91479479  1
  Te  Te168  1  0.58570706  0.75398123  0.24801819  1
  Te  Te169  1  0.57190997  0.73976369  0.58932822  1
  Te  Te170  1  0.56087277  0.76594580  0.91184059  1
  Te  Te171  1  0.88543074  0.11844645  0.23207308  1
  Te  Te172  1  0.91806594  0.06026008  0.58639638  1
  Te  Te173  1  0.92599544  0.08835986  0.91701523  1
  Te  Te174  1  0.90613475  0.40797357  0.24861313  1
  Te  Te175  1  0.91067116  0.40582320  0.59382153  1
  Te  Te176  1  0.92339127  0.40353257  0.94325482  1
  Te  Te177  1  0.92041484  0.73770255  0.24990126  1
  Te  Te178  1  0.91554835  0.75808562  0.56980093  1
  Te  Te179  1  0.93607034  0.77297074  0.90611459  1
