# generated using pymatgen
data_In2Te3
_symmetry_space_group_name_H-M   'P 1'
_cell_length_a   18.81705209
_cell_length_b   18.83335428
_cell_length_c   18.82669048
_cell_angle_alpha   90.00895469
_cell_angle_beta   89.89910855
_cell_angle_gamma   90.02827028
_symmetry_Int_Tables_number   1
_chemical_formula_structural   In2Te3
_chemical_formula_sum   'In72 Te108'
_cell_volume   6671.94587521
_cell_formula_units_Z   36
loop_
 _symmetry_equiv_pos_site_id
 _symmetry_equiv_pos_as_xyz
  1  'x, y, z'
loop_
 _atom_site_type_symbol
 _atom_site_label
 _atom_site_symmetry_multiplicity
 _atom_site_fract_x
 _atom_site_fract_y
 _atom_site_fract_z
 _atom_site_occupancy
  In  In0  1  0.82411081  -0.02021162  0.54156428  1
  In  In1  1  0.18288956  -0.02623367  0.15974168  1
  In  In2  1  0.49170005  0.65949814  0.50484061  1
  In  In3  1  0.34493519  0.16470385  0.16397362  1
  In  In4  1  0.17816611  0.48644482  0.68789516  1
  In  In5  1  0.50777132  0.67222588  0.17497048  1
  In  In6  1  0.35581028  0.49609238  0.82796243  1
  In  In7  1  0.66086985  0.66444116  0.00067972  1
  In  In8  1  0.67900375  0.35936656  0.32546382  1
  In  In9  1  0.33299237  -0.02172800  0.32779729  1
  In  In10  1  0.18236194  -0.00228443  0.49146092  1
  In  In11  1  0.33069654  0.00802947  0.65364674  1
  In  In12  1  0.67037362  0.18316252  0.83268158  1
  In  In13  1  0.79970012  -0.00013796  0.85325582  1
  In  In14  1  0.50226205  0.34232694  0.51378768  1
  In  In15  1  0.33208920  0.62989808  -0.00906580  1
  In  In16  1  0.64308179  -0.00419781  0.34759874  1
  In  In17  1  0.33328635  0.82603758  0.18260238  1
  In  In18  1  0.33002915  0.17391049  0.82382314  1
  In  In19  1  0.48246646  -0.01742549  0.49246514  1
  In  In20  1  -0.00013239  0.17694941  0.17095083  1
  In  In21  1  0.81646559  -0.00156719  0.15231431  1
  In  In22  1  0.00609469  0.81172411  0.48364707  1
  In  In23  1  0.81978377  0.19584462  0.36286804  1
  In  In24  1  0.51071912  0.49807300  0.34851844  1
  In  In25  1  0.84357561  0.17839366  0.69401134  1
  In  In26  1  0.01058321  0.79792865  0.18404894  1
  In  In27  1  0.34431084  0.81433173  0.84264979  1
  In  In28  1  0.82674889  0.66608516  0.83777981  1
  In  In29  1  0.00506468  0.49623828  0.48903803  1
  In  In30  1  0.79902840  0.19100354  -0.04474353  1
  In  In31  1  0.81790859  0.66339163  0.51251322  1
  In  In32  1  0.83243522  0.80993183  0.35028749  1
  In  In33  1  0.47330771  0.17863816  0.33598775  1
  In  In34  1  0.81715032  0.49042314  -0.00658928  1
  In  In35  1  0.17204400  0.81388534  0.65937442  1
  In  In36  1  0.33204253  0.48444090  0.15445737  1
  In  In37  1  0.76261488  0.82831330  0.68559983  1
  In  In38  1  0.01177980  0.18999744  0.81310103  1
  In  In39  1  0.20831834  0.18391903  0.37347294  1
  In  In40  1  0.65755896  0.33462113  0.66586200  1
  In  In41  1  0.85315740  0.35640056  0.14971074  1
  In  In42  1  0.17899743  0.32898530  0.16501054  1
  In  In43  1  0.00448705  -0.01803388  -0.03076716  1
  In  In44  1  0.00543473  0.83854212  0.83540876  1
  In  In45  1  0.34737788  0.34564749  0.67229464  1
  In  In46  1  -0.00743593  0.00968811  0.67468097  1
  In  In47  1  0.00302180  0.33816051  -0.01128430  1
  In  In48  1  -0.02320060  0.67166328  0.66011224  1
  In  In49  1  0.33280216  0.68078485  0.34749872  1
  In  In50  1  -0.00180248  0.52837296  0.19221498  1
  In  In51  1  0.04256860  0.20554341  0.53131347  1
  In  In52  1  0.02323213  0.65264968  0.00193284  1
  In  In53  1  0.65579553  0.81486940  0.16380642  1
  In  In54  1  0.35227353  0.51249776  0.48681938  1
  In  In55  1  0.82845141  0.36383234  0.48276493  1
  In  In56  1  0.65001049  0.16420734  0.51773575  1
  In  In57  1  0.17137305  0.66885200  0.49220813  1
  In  In58  1  0.15586047  0.00239587  0.84512569  1
  In  In59  1  0.00530331  0.36772930  0.31423821  1
  In  In60  1  0.50302375  0.83938006  -0.00773268  1
  In  In61  1  0.81175156  0.85132532  0.01473034  1
  In  In62  1  0.51209111  0.49697623  -0.00199904  1
  In  In63  1  0.63202361  0.18877979  0.16704390  1
  In  In64  1  0.83163307  0.50330349  0.66404954  1
  In  In65  1  0.16630600  0.16119725  -0.00070161  1
  In  In66  1  0.66951214  -0.01312153  -0.01818063  1
  In  In67  1  0.01122976  0.00158201  0.31819034  1
  In  In68  1  0.48272384  0.16837630  0.66718674  1
  In  In69  1  0.35753716  0.66742240  0.67235548  1
  In  In70  1  0.17249511  0.48494384  -0.01565576  1
  In  In71  1  0.48714634  0.16923396  -0.00939828  1
  Te  Te72  1  0.07713186  0.07299635  0.08743093  1
  Te  Te73  1  0.07812618  0.08811951  0.42397328  1
  Te  Te74  1  0.10308120  0.09393744  0.73575493  1
  Te  Te75  1  0.06687781  0.41438612  0.10395420  1
  Te  Te76  1  0.10140230  0.41059708  0.41734506  1
  Te  Te77  1  0.08107746  0.39377822  0.74591964  1
  Te  Te78  1  0.10103081  0.75149655  0.07833809  1
  Te  Te79  1  0.07073189  0.71707658  0.38769852  1
  Te  Te80  1  0.08264726  0.73521069  0.75442688  1
  Te  Te81  1  0.42121307  0.07096134  0.08092048  1
  Te  Te82  1  0.39270790  0.08344530  0.42210921  1
  Te  Te83  1  0.42176917  0.06672031  0.76196809  1
  Te  Te84  1  0.41553437  0.40490781  0.06395285  1
  Te  Te85  1  0.40892024  0.39579168  0.40395800  1
  Te  Te86  1  0.45299755  0.42074182  0.74277524  1
  Te  Te87  1  0.41643249  0.73571638  0.07105855  1
  Te  Te88  1  0.43342589  0.76531317  0.41535083  1
  Te  Te89  1  0.44930252  0.76712452  0.74072775  1
  Te  Te90  1  0.73668456  0.09880089  0.07121593  1
  Te  Te91  1  0.74905632  0.07509552  0.42737461  1
  Te  Te92  1  0.73844986  0.07895245  0.73677766  1
  Te  Te93  1  0.73376716  0.42137096  0.09532240  1
  Te  Te94  1  0.72495967  0.45491893  0.42993092  1
  Te  Te95  1  0.73559473  0.42797865  0.75045243  1
  Te  Te96  1  0.76281794  0.73061061  0.09435532  1
  Te  Te97  1  0.72816518  0.75515345  0.43819664  1
  Te  Te98  1  0.72580837  0.68751883  0.72425179  1
  Te  Te99  1  0.09392372  0.24373771  0.26741675  1
  Te  Te100  1  0.10626771  0.28790942  0.63759517  1
  Te  Te101  1  0.10839230  0.26540103  0.90517270  1
  Te  Te102  1  0.08762253  0.61377128  0.26957080  1
  Te  Te103  1  0.08753159  0.58768418  0.59304544  1
  Te  Te104  1  0.07733676  0.56008751  0.90159287  1
  Te  Te105  1  0.10159331  0.89356277  0.26304587  1
  Te  Te106  1  0.07220021  0.91097095  0.58901563  1
  Te  Te107  1  0.11553214  0.88380974  0.93304550  1
  Te  Te108  1  0.41615771  0.27133377  0.23766829  1
  Te  Te109  1  0.40018745  0.23910199  0.56188483  1
  Te  Te110  1  0.41054142  0.26545307  0.90643245  1
  Te  Te111  1  0.41224831  0.58178383  0.25268582  1
  Te  Te112  1  0.43592987  0.55280967  0.60718487  1
  Te  Te113  1  0.44806611  0.59541532  0.89873784  1
  Te  Te114  1  0.43669328  0.90264661  0.25445446  1
  Te  Te115  1  0.41579189  0.90165526  0.59739529  1
  Te  Te116  1  0.43154872  0.92268824  0.89325055  1
  Te  Te117  1  0.75902462  0.25096997  0.23572820  1
  Te  Te118  1  0.76093481  0.25214508  0.57567194  1
  Te  Te119  1  0.72494651  0.31139313  0.89974864  1
  Te  Te120  1  0.81798738  0.59320696  0.29283650  1
  Te  Te121  1  0.72320181  0.58085283  0.59443950  1
  Te  Te122  1  0.72497707  0.56919147  0.89904491  1
  Te  Te123  1  0.74618081  0.91139160  0.25571538  1
  Te  Te124  1  0.69823328  0.90498281  0.57060138  1
  Te  Te125  1  0.71725551  0.87020247  0.88932512  1
  Te  Te126  1  0.26556257  0.25449933  0.06639658  1
  Te  Te127  1  0.27260639  0.28466311  0.45405501  1
  Te  Te128  1  0.24369089  0.25473178  0.73084126  1
  Te  Te129  1  0.22826413  0.57750418  0.09102192  1
  Te  Te130  1  0.24058557  0.56817124  0.40084930  1
  Te  Te131  1  0.25691565  0.59363517  0.76051535  1
  Te  Te132  1  0.28473918  0.91449112  0.07341929  1
  Te  Te133  1  0.24542162  0.89286325  0.41238336  1
  Te  Te134  1  0.24284777  0.91341077  0.74959456  1
  Te  Te135  1  0.58535065  0.26525608  0.05153748  1
  Te  Te136  1  0.59341930  0.25282697  0.40846358  1
  Te  Te137  1  0.55980711  0.26132146  0.75764592  1
  Te  Te138  1  0.59743641  0.57199247  0.10342439  1
  Te  Te139  1  0.59186665  0.61068078  0.40323556  1
  Te  Te140  1  0.55905496  0.64095992  0.71458574  1
  Te  Te141  1  0.58263608  0.92671753  0.09211563  1
  Te  Te142  1  0.56034510  0.88728755  0.40618756  1
  Te  Te143  1  0.64744487  0.90193997  0.74397901  1
  Te  Te144  1  0.90736977  0.23279029  0.06356175  1
  Te  Te145  1  0.93951044  0.26686854  0.41970026  1
  Te  Te146  1  0.90607687  0.28711858  0.77231991  1
  Te  Te147  1  0.91347163  0.57917438  0.07721352  1
  Te  Te148  1  0.91353419  0.59442134  0.41736031  1
  Te  Te149  1  0.92543819  0.57453896  0.76471972  1
  Te  Te150  1  0.93141597  0.91358384  0.09579952  1
  Te  Te151  1  0.91838466  0.92604039  0.41567910  1
  Te  Te152  1  0.90125353  0.92485592  0.76254127  1
  Te  Te153  1  0.23799050  0.08414209  0.25144259  1
  Te  Te154  1  0.23937303  0.09806941  0.58158022  1
  Te  Te155  1  0.26383535  0.07278783  0.92485351  1
  Te  Te156  1  0.24592376  0.42047288  0.25756597  1
  Te  Te157  1  0.25751992  0.42525805  0.57365668  1
  Te  Te158  1  0.27052517  0.40487960  0.90907285  1
  Te  Te159  1  0.23907248  0.72858262  0.24267325  1
  Te  Te160  1  0.27548436  0.74919584  0.56887171  1
  Te  Te161  1  0.25036757  0.72341111  0.91041467  1
  Te  Te162  1  0.56199612  0.08363570  0.25224244  1
  Te  Te163  1  0.56849969  0.06491729  0.59416030  1
  Te  Te164  1  0.58216725  0.07881666  0.90018207  1
  Te  Te165  1  0.57625411  0.42049554  0.24066807  1
  Te  Te166  1  0.60717161  0.43311385  0.56397976  1
  Te  Te167  1  0.60664683  0.41153982  0.92243032  1
  Te  Te168  1  0.61362822  0.71879626  0.26976874  1
  Te  Te169  1  0.56181725  0.74318065  0.60945805  1
  Te  Te170  1  0.58397152  0.74773163  0.90698636  1
  Te  Te171  1  0.90252254  0.08674550  0.24978922  1
  Te  Te172  1  0.91814503  0.10106311  0.57649594  1
  Te  Te173  1  0.91997625  0.09128852  0.90177788  1
  Te  Te174  1  0.87872880  0.44768095  0.27295575  1
  Te  Te175  1  0.92730105  0.41045334  0.58900346  1
  Te  Te176  1  0.90909595  0.41276647  0.90371586  1
  Te  Te177  1  0.89181220  0.72222841  0.24253580  1
  Te  Te178  1  0.89940573  0.78037284  0.58991829  1
  Te  Te179  1  0.90911631  0.76114275  0.92713126  1
