# generated using pymatgen
data_In2Te3
_symmetry_space_group_name_H-M   'P 1'
_cell_length_a   18.82016194
_cell_length_b   18.80275567
_cell_length_c   18.80975473
_cell_angle_alpha   89.97218296
_cell_angle_beta   90.13079493
_cell_angle_gamma   90.08092276
_symmetry_Int_Tables_number   1
_chemical_formula_structural   In2Te3
_chemical_formula_sum   'In72 Te108'
_cell_volume   6656.20020257
_cell_formula_units_Z   36
loop_
 _symmetry_equiv_pos_site_id
 _symmetry_equiv_pos_as_xyz
  1  'x, y, z'
loop_
 _atom_site_type_symbol
 _atom_site_label
 _atom_site_symmetry_multiplicity
 _atom_site_fract_x
 _atom_site_fract_y
 _atom_site_fract_z
 _atom_site_occupancy
  In  In0  1  0.35148643  0.02391988  0.32457256  1
  In  In1  1  0.81649490  0.33333450  0.49932249  1
  In  In2  1  0.33016021  0.01913654  0.01244715  1
  In  In3  1  0.67916011  0.67046393  0.65298163  1
  In  In4  1  0.03153492  0.17436171  0.18223318  1
  In  In5  1  0.68988987  0.68320509  0.00218639  1
  In  In6  1  0.15305984  0.00623639  0.50249595  1
  In  In7  1  0.64609295  0.01747491  0.31562071  1
  In  In8  1  0.16986150  0.85226531  0.01082783  1
  In  In9  1  0.85048489  0.83241928  0.65624939  1
  In  In10  1  0.85109597  0.50064220  0.68283377  1
  In  In11  1  0.31187440  0.48354454  0.50262474  1
  In  In12  1  0.67538231  0.82686535  0.13025523  1
  In  In13  1  0.50805444  0.83555418  -0.00270774  1
  In  In14  1  -0.01031609  0.81618639  0.19070390  1
  In  In15  1  0.16255846  0.65495226  0.19759754  1
  In  In16  1  0.48360912  0.43058462  0.62289063  1
  In  In17  1  -0.02208178  0.32375654  0.67444635  1
  In  In18  1  0.49559124  0.82211944  0.66522341  1
  In  In19  1  0.00417174  0.35134241  0.34855441  1
  In  In20  1  0.83049130  0.00553683  0.16352215  1
  In  In21  1  0.85673682  0.81591314  0.32209968  1
  In  In22  1  0.49331698  0.64041749  0.79669803  1
  In  In23  1  0.86907604  0.45516902  -0.00960432  1
  In  In24  1  0.64159509  0.64849817  0.34994451  1
  In  In25  1  0.66677082  0.46235563  0.82828105  1
  In  In26  1  0.86779195  0.63269629  0.47715065  1
  In  In27  1  0.31437907  0.84616160  0.85950806  1
  In  In28  1  0.16960562  0.02364194  0.85508232  1
  In  In29  1  0.66992732  0.17836003  0.51496890  1
  In  In30  1  -0.00589332  0.16394923  0.49185677  1
  In  In31  1  -0.01348428  0.64925802  0.00702695  1
  In  In32  1  0.81180562  0.01219052  0.50712396  1
  In  In33  1  0.47158975  0.83702330  0.33410178  1
  In  In34  1  0.18292608  0.18748662  0.65416788  1
  In  In35  1  0.33844861  0.32751153  0.00820781  1
  In  In36  1  0.17481953  0.32565200  0.82879994  1
  In  In37  1  0.47841552  0.31470842  0.16082539  1
  In  In38  1  0.68222861  0.33387213  0.33393476  1
  In  In39  1  0.16005955  0.18550056  -0.00096476  1
  In  In40  1  -0.00601573  0.81344278  0.50915291  1
  In  In41  1  0.49314477  0.66681230  0.18878580  1
  In  In42  1  0.79816257  0.83421249  -0.00201787  1
  In  In43  1  0.33309260  0.80510899  0.49274096  1
  In  In44  1  0.01394487  0.01256971  0.34400208  1
  In  In45  1  0.31404658  0.17177844  0.16114279  1
  In  In46  1  0.17048532  0.64985441  0.49877245  1
  In  In47  1  0.33337198  0.48919593  0.80167977  1
  In  In48  1  -0.00924175  0.02253017  0.67696574  1
  In  In49  1  0.68183744  0.84777637  0.87589390  1
  In  In50  1  0.84052096  0.18355883  -0.00852597  1
  In  In51  1  0.67818761  0.18261695  0.82672170  1
  In  In52  1  0.50221100  0.18993736  0.34481687  1
  In  In53  1  0.83879272  0.65072655  0.83289668  1
  In  In54  1  0.33503450  0.00218020  0.66808956  1
  In  In55  1  0.53214591  0.03203216  0.82882325  1
  In  In56  1  0.64936180  0.03589546  0.68315860  1
  In  In57  1  0.31857150  0.65551208  0.00864183  1
  In  In58  1  0.65657477  0.02128402  -0.01198791  1
  In  In59  1  0.12161522  0.47822414  0.00796700  1
  In  In60  1  0.48718923  0.49100789  0.33454188  1
  In  In61  1  0.19354849  0.46589883  0.32629350  1
  In  In62  1  0.65416595  0.83276455  0.48365473  1
  In  In63  1  0.02413967  0.80331975  0.80600425  1
  In  In64  1  0.48889460  0.19218176  0.64061122  1
  In  In65  1  0.50772108  0.47889519  0.00676543  1
  In  In66  1  0.82966073  0.34031845  0.17907004  1
  In  In67  1  0.68269824  0.50250236  0.16295617  1
  In  In68  1  0.17478160  0.82970583  0.32502797  1
  In  In69  1  0.16916659  0.49401249  0.64709175  1
  In  In70  1  0.31077847  0.65013199  0.64953443  1
  In  In71  1  -0.01271740  0.03012248  0.00875516  1
  Te  Te72  1  0.10642220  0.07505337  0.09074440  1
  Te  Te73  1  0.11067233  0.11596134  0.40438239  1
  Te  Te74  1  0.09311987  0.10743218  0.75172808  1
  Te  Te75  1  0.03678991  0.38158336  0.07965247  1
  Te  Te76  1  0.10503286  0.41861571  0.43894857  1
  Te  Te77  1  0.08341734  0.41349224  0.74341948  1
  Te  Te78  1  0.08337729  0.74785835  0.08767507  1
  Te  Te79  1  0.08345076  0.74144764  0.41029963  1
  Te  Te80  1  0.11429685  0.73109133  0.71989472  1
  Te  Te81  1  0.42398045  0.09991537  0.09347585  1
  Te  Te82  1  0.41779361  0.10309295  0.42995344  1
  Te  Te83  1  0.42237440  0.10009054  0.74750540  1
  Te  Te84  1  0.40025072  0.43523402  0.10168124  1
  Te  Te85  1  0.40186244  0.39443680  0.41485900  1
  Te  Te86  1  0.44031454  0.39625429  0.75976668  1
  Te  Te87  1  0.41495732  0.75002023  0.08232035  1
  Te  Te88  1  0.42805164  0.72334500  0.41632871  1
  Te  Te89  1  0.39096874  0.75174633  0.75519422  1
  Te  Te90  1  0.74528033  0.10227048  0.08470721  1
  Te  Te91  1  0.74221438  0.09967171  0.40422971  1
  Te  Te92  1  0.76477433  0.08242571  0.75952469  1
  Te  Te93  1  0.74201052  0.40198819  0.06484694  1
  Te  Te94  1  0.77116881  0.43433887  0.39752574  1
  Te  Te95  1  0.75685952  0.39509649  0.73256038  1
  Te  Te96  1  0.78733870  0.72570220  0.11082983  1
  Te  Te97  1  0.76591576  0.74484300  0.42918773  1
  Te  Te98  1  0.75017896  0.75431609  0.75986990  1
  Te  Te99  1  0.10374336  0.27075689  0.27002420  1
  Te  Te100  1  0.07727288  0.26188352  0.57328161  1
  Te  Te101  1  0.06801773  0.28408078  0.92912472  1
  Te  Te102  1  0.08539190  0.54140972  0.25301509  1
  Te  Te103  1  0.07174883  0.55062233  0.54979048  1
  Te  Te104  1  0.06153760  0.56913848  0.90686896  1
  Te  Te105  1  0.08530658  0.92341647  0.24295624  1
  Te  Te106  1  0.06801790  0.91991827  0.59420727  1
  Te  Te107  1  0.07200459  0.92202868  0.91582669  1
  Te  Te108  1  0.38395471  0.26045659  0.26951018  1
  Te  Te109  1  0.39667144  0.27956686  0.55637854  1
  Te  Te110  1  0.44899993  0.27671935  0.92280597  1
  Te  Te111  1  0.39714741  0.57397313  0.24970590  1
  Te  Te112  1  0.41711104  0.56810590  0.58612923  1
  Te  Te113  1  0.41728311  0.57623058  0.91394866  1
  Te  Te114  1  0.41237774  0.92462270  0.23271153  1
  Te  Te115  1  0.41388673  0.91153931  0.57413464  1
  Te  Te116  1  0.43150527  0.93380501  0.90603753  1
  Te  Te117  1  0.73898315  0.23856035  0.23651518  1
  Te  Te118  1  0.74547830  0.26308815  0.61303868  1
  Te  Te119  1  0.74376597  0.27298227  0.92455243  1
  Te  Te120  1  0.74567651  0.58213303  0.27027070  1
  Te  Te121  1  0.76508925  0.57304162  0.57535696  1
  Te  Te122  1  0.74224199  0.56568713  0.91691242  1
  Te  Te123  1  0.75228524  0.91219609  0.25647602  1
  Te  Te124  1  0.73345065  0.91090769  0.59244977  1
  Te  Te125  1  0.77596796  0.96169711  0.91287222  1
  Te  Te126  1  0.21940262  0.29045653  0.10130141  1
  Te  Te127  1  0.26987539  0.32206287  0.47148420  1
  Te  Te128  1  0.27589195  0.24723911  0.75417565  1
  Te  Te129  1  0.22414631  0.56639748  0.08674967  1
  Te  Te130  1  0.26329132  0.58632363  0.39883451  1
  Te  Te131  1  0.22526748  0.59150621  0.76035410  1
  Te  Te132  1  0.27236349  0.91303466  0.09714922  1
  Te  Te133  1  0.25199496  0.92010101  0.42178900  1
  Te  Te134  1  0.23553817  0.92637618  0.75573539  1
  Te  Te135  1  0.55351801  0.24350008  0.05515009  1
  Te  Te136  1  0.58316490  0.28666606  0.44513429  1
  Te  Te137  1  0.60166129  0.25333413  0.71860191  1
  Te  Te138  1  0.58178684  0.59846408  0.08071249  1
  Te  Te139  1  0.58180655  0.54489670  0.43997607  1
  Te  Te140  1  0.59901162  0.56009594  0.72620496  1
  Te  Te141  1  0.57723897  0.93526715  0.08981264  1
  Te  Te142  1  0.56431685  0.93195489  0.41274904  1
  Te  Te143  1  0.58725663  0.90461983  0.75549315  1
  Te  Te144  1  0.93747800  0.25924719  0.09311877  1
  Te  Te145  1  0.90318357  0.24712834  0.40455927  1
  Te  Te146  1  0.91038069  0.25179515  0.78494344  1
  Te  Te147  1  0.90528129  0.55897141  0.08980801  1
  Te  Te148  1  0.95037061  0.57372006  0.36903976  1
  Te  Te149  1  0.94815417  0.57418638  0.77041176  1
  Te  Te150  1  0.92008548  0.90847245  0.08569317  1
  Te  Te151  1  0.91549673  0.92752033  0.43041795  1
  Te  Te152  1  0.92077417  0.91567447  0.76090238  1
  Te  Te153  1  0.23720338  0.08918558  0.25660521  1
  Te  Te154  1  0.26307257  0.09186863  0.56651231  1
  Te  Te155  1  0.27158179  0.12082057  0.91494584  1
  Te  Te156  1  0.25624102  0.37404645  0.22816178  1
  Te  Te157  1  0.27080369  0.38495635  0.61633473  1
  Te  Te158  1  0.25418405  0.42751168  0.91990832  1
  Te  Te159  1  0.26674462  0.74663103  0.24667310  1
  Te  Te160  1  0.22351641  0.76608200  0.59507978  1
  Te  Te161  1  0.22483735  0.73925746  0.92116339  1
  Te  Te162  1  0.56960152  0.11470696  0.23630001  1
  Te  Te163  1  0.56625299  0.07776219  0.56599136  1
  Te  Te164  1  0.55876971  0.13153228  0.94276093  1
  Te  Te165  1  0.58050164  0.41198625  0.23486663  1
  Te  Te166  1  0.60296750  0.41318790  0.53955547  1
  Te  Te167  1  0.56820359  0.38086301  0.91025576  1
  Te  Te168  1  0.59894439  0.76230195  0.25171686  1
  Te  Te169  1  0.57024098  0.73379785  0.56603814  1
  Te  Te170  1  0.57535026  0.73041460  0.90121982  1
  Te  Te171  1  0.91978226  0.09190943  0.25258672  1
  Te  Te172  1  0.89490742  0.10707318  0.59336889  1
  Te  Te173  1  0.93713035  0.11648267  0.89845210  1
  Te  Te174  1  0.90229595  0.43408764  0.27187184  1
  Te  Te175  1  0.91972645  0.42125787  0.57051540  1
  Te  Te176  1  0.93024775  0.37203060  0.88158874  1
  Te  Te177  1  0.93908761  0.70004774  0.27214034  1
  Te  Te178  1  0.92418800  0.71335466  0.60062329  1
  Te  Te179  1  0.91244226  0.75822717  0.91632957  1
