# generated using pymatgen
data_In2Te3
_symmetry_space_group_name_H-M   'P 1'
_cell_length_a   18.93901243
_cell_length_b   18.91009177
_cell_length_c   18.92279510
_cell_angle_alpha   89.94904047
_cell_angle_beta   90.21392721
_cell_angle_gamma   90.10991112
_symmetry_Int_Tables_number   1
_chemical_formula_structural   In2Te3
_chemical_formula_sum   'In72 Te108'
_cell_volume   6776.91841299
_cell_formula_units_Z   36
loop_
 _symmetry_equiv_pos_site_id
 _symmetry_equiv_pos_as_xyz
  1  'x, y, z'
loop_
 _atom_site_type_symbol
 _atom_site_label
 _atom_site_symmetry_multiplicity
 _atom_site_fract_x
 _atom_site_fract_y
 _atom_site_fract_z
 _atom_site_occupancy
  In  In0  1  0.68369474  0.83923289  0.84253436  1
  In  In1  1  0.84753536  0.32822698  0.84806080  1
  In  In2  1  0.19812143  -0.01967963  0.19763357  1
  In  In3  1  0.47661538  0.50721651  0.01677279  1
  In  In4  1  0.00320819  -0.02588959  0.68435680  1
  In  In5  1  0.34200098  0.85667061  0.83213415  1
  In  In6  1  0.00034646  0.66016231  0.00515143  1
  In  In7  1  0.47838830  0.39574135  0.17108311  1
  In  In8  1  0.49598602  0.16312692  0.01533473  1
  In  In9  1  0.82473070  0.67197103  0.82552854  1
  In  In10  1  0.21967858  -0.03553598  0.46319053  1
  In  In11  1  0.68464014  0.50928714  0.15688427  1
  In  In12  1  0.33082376  0.67506126  0.00955274  1
  In  In13  1  0.83072625  -0.00483330  0.18358378  1
  In  In14  1  0.83323971  0.84090467  0.00975285  1
  In  In15  1  0.66780624  0.16684281  0.18152228  1
  In  In16  1  0.16913024  0.64006870  0.15832804  1
  In  In17  1  -0.02887433  0.39393945  0.65562892  1
  In  In18  1  0.62978394  0.69869658  0.31476050  1
  In  In19  1  0.01717840  -0.01968131  0.30947083  1
  In  In20  1  0.00852853  0.15598101  0.49630240  1
  In  In21  1  0.33132586  0.80179397  0.17927277  1
  In  In22  1  0.83626248  0.83744810  0.67241352  1
  In  In23  1  0.68774796  0.33238847  0.34041495  1
  In  In24  1  0.66806479  0.34610098  -0.00005654  1
  In  In25  1  0.50797161  0.67282995  0.82979562  1
  In  In26  1  0.47131412  0.68848423  0.46722201  1
  In  In27  1  0.81338352  0.02141802  0.50050598  1
  In  In28  1  0.85122944  0.66168121  0.15735830  1
  In  In29  1  0.67792813  0.51681247  0.84027838  1
  In  In30  1  0.36917107  0.15003179  0.50498106  1
  In  In31  1  0.37219009  0.00585574  0.66392045  1
  In  In32  1  -0.00300861  0.63563108  0.63679356  1
  In  In33  1  0.49652872  0.13346827  0.66368371  1
  In  In34  1  0.48357166  0.00746029  0.84619526  1
  In  In35  1  0.01243065  0.82692720  0.48179524  1
  In  In36  1  0.00634207  0.51288306  0.84351730  1
  In  In37  1  0.79418951  0.65605174  0.49877544  1
  In  In38  1  0.48810760  0.31483428  0.84153877  1
  In  In39  1  0.67583811  0.68179155  -0.00549050  1
  In  In40  1  0.18734491  0.15931243  0.32192911  1
  In  In41  1  0.14978418  0.34618915  0.87273239  1
  In  In42  1  0.16833774  0.17133973  0.66752805  1
  In  In43  1  0.03889959  0.18607546  0.15638318  1
  In  In44  1  0.16493141  0.81549443  0.65242163  1
  In  In45  1  0.17860924  0.17091526  -0.00524632  1
  In  In46  1  0.82792299  0.16146733  0.34257858  1
  In  In47  1  -0.00370692  0.01371183  -0.00324083  1
  In  In48  1  0.64171726  0.15101270  0.82364560  1
  In  In49  1  0.48815390  0.34768785  0.47330331  1
  In  In50  1  0.65431755  -0.00071566  0.65155694  1
  In  In51  1  0.17460311  0.49271693  0.34529404  1
  In  In52  1  0.16625499  0.83512565  0.00704349  1
  In  In53  1  0.82780338  0.82457960  0.33616467  1
  In  In54  1  0.49168279  0.47414935  0.67872971  1
  In  In55  1  0.32985610  0.49275354  0.48936378  1
  In  In56  1  0.31599133  0.66151702  0.66447175  1
  In  In57  1  0.16437928  0.35342821  0.47542966  1
  In  In58  1  0.02396267  0.67424633  0.32804965  1
  In  In59  1  0.16635517  0.00083081  0.84347743  1
  In  In60  1  0.15130015  0.67242062  0.80157316  1
  In  In61  1  0.52214364  0.83191276  0.62918320  1
  In  In62  1  0.31181144  0.33393175  0.67078860  1
  In  In63  1  0.84720772  0.16428366  0.01918657  1
  In  In64  1  0.16482599  0.36456561  0.08932174  1
  In  In65  1  0.67991035  0.34587802  0.64219317  1
  In  In66  1  0.83756823  0.50243562  0.34235950  1
  In  In67  1  0.32565763  0.34939368  0.32698518  1
  In  In68  1  -0.01655767  0.35040592  0.36699943  1
  In  In69  1  0.50256277  -0.02867251  0.13996648  1
  In  In70  1  0.81842160  0.18585875  0.67457953  1
  In  In71  1  0.48247436  0.15484479  0.32752229  1
  Te  Te72  1  0.09837477  0.05737964  0.10205258  1
  Te  Te73  1  0.10137430  0.06935987  0.41183750  1
  Te  Te74  1  0.07706062  0.08804812  0.75563230  1
  Te  Te75  1  0.03977822  0.43347529  0.05190239  1
  Te  Te76  1  0.05599857  0.46241741  0.45167292  1
  Te  Te77  1  0.08453794  0.42231246  0.75062788  1
  Te  Te78  1  0.08127663  0.75029157  0.09820768  1
  Te  Te79  1  0.11107056  0.72933518  0.43461972  1
  Te  Te80  1  0.04886610  0.75352061  0.72729574  1
  Te  Te81  1  0.41266998  0.08348834  0.10780541  1
  Te  Te82  1  0.42553930  0.04931298  0.41565400  1
  Te  Te83  1  0.39661666  0.10933092  0.77401790  1
  Te  Te84  1  0.40104453  0.38095681  0.04290458  1
  Te  Te85  1  0.43151318  0.45749818  0.37612973  1
  Te  Te86  1  0.39137251  0.41361717  0.77486121  1
  Te  Te87  1  0.43532665  0.73066547  0.09922085  1
  Te  Te88  1  0.42332753  0.79818691  0.37832612  1
  Te  Te89  1  0.41506823  0.75678474  0.74218137  1
  Te  Te90  1  0.74466548  0.07589804  0.08744595  1
  Te  Te91  1  0.72367851  0.06915937  0.39289392  1
  Te  Te92  1  0.74745971  0.07337708  0.74812153  1
  Te  Te93  1  0.76828220  0.42093326  0.07595381  1
  Te  Te94  1  0.75611275  0.42207923  0.43868372  1
  Te  Te95  1  0.75163036  0.41030789  0.76137692  1
  Te  Te96  1  0.74521307  0.76253842  0.10642905  1
  Te  Te97  1  0.71816010  0.76539879  0.42245076  1
  Te  Te98  1  0.72966982  0.74494875  0.73295047  1
  Te  Te99  1  0.07759105  0.25626085  0.28605840  1
  Te  Te100  1  0.08702767  0.26132789  0.57455586  1
  Te  Te101  1  0.06656093  0.23665836  0.92638484  1
  Te  Te102  1  0.07603736  0.55782518  0.24795378  1
  Te  Te103  1  0.09814393  0.56015500  0.56576015  1
  Te  Te104  1  0.10790895  0.59129713  0.92433342  1
  Te  Te105  1  0.11792283  0.88079259  0.27264733  1
  Te  Te106  1  0.09127973  0.92715176  0.56795197  1
  Te  Te107  1  0.07086776  0.90628199  0.91330066  1
  Te  Te108  1  0.42281244  0.26869576  0.24704236  1
  Te  Te109  1  0.42290504  0.26720983  0.59152126  1
  Te  Te110  1  0.39951350  0.24362632  0.93452392  1
  Te  Te111  1  0.42760948  0.51621574  0.23404839  1
  Te  Te112  1  0.41720629  0.57227176  0.58733057  1
  Te  Te113  1  0.40894502  0.58892584  0.90669875  1
  Te  Te114  1  0.42224318  0.89963888  0.25685445  1
  Te  Te115  1  0.39466859  0.89201932  0.57053985  1
  Te  Te116  1  0.42241689  0.91294554  0.94062540  1
  Te  Te117  1  0.77355413  0.25966422  0.23900281  1
  Te  Te118  1  0.73318947  0.23286898  0.56583441  1
  Te  Te119  1  0.73369964  0.24037701  0.90913566  1
  Te  Te120  1  0.74954393  0.60786112  0.25941920  1
  Te  Te121  1  0.77308799  0.55740057  0.60444966  1
  Te  Te122  1  0.77480803  0.58067724  0.93770856  1
  Te  Te123  1  0.73960220  0.92977946  0.27965789  1
  Te  Te124  1  0.74417619  0.90662444  0.57233310  1
  Te  Te125  1  0.75658980  0.93421727  0.92589658  1
  Te  Te126  1  0.22972571  0.23454412  0.11739027  1
  Te  Te127  1  0.26711779  0.24698861  0.43230603  1
  Te  Te128  1  0.23433371  0.25580135  0.77400346  1
  Te  Te129  1  0.26156699  0.56158236  0.07363177  1
  Te  Te130  1  0.26906974  0.59472206  0.39880293  1
  Te  Te131  1  0.24688367  0.57176796  0.75721615  1
  Te  Te132  1  0.27149065  0.90813902  0.08475674  1
  Te  Te133  1  0.28647697  0.87358926  0.36817525  1
  Te  Te134  1  0.24482714  0.92149749  0.73254856  1
  Te  Te135  1  0.58510124  0.26120543  0.09478198  1
  Te  Te136  1  0.57856794  0.24848836  0.40559492  1
  Te  Te137  1  0.58070549  0.25744089  0.73338373  1
  Te  Te138  1  0.58482783  0.59477516  0.08085113  1
  Te  Te139  1  0.57408556  0.59885945  0.40815307  1
  Te  Te140  1  0.58565512  0.58068980  0.73813008  1
  Te  Te141  1  0.61314756  0.87880121  0.10826946  1
  Te  Te142  1  0.53489909  0.93817790  0.52178036  1
  Te  Te143  1  0.57270706  0.91952594  0.75347771  1
  Te  Te144  1  0.93161386  0.26064240  0.09023313  1
  Te  Te145  1  0.90009749  0.24934261  0.44486363  1
  Te  Te146  1  0.93080123  0.26884096  0.73472185  1
  Te  Te147  1  0.93855487  0.55820545  0.09552021  1
  Te  Te148  1  0.91238967  0.61198195  0.41508814  1
  Te  Te149  1  0.90707260  0.57396669  0.74438005  1
  Te  Te150  1  0.93005379  0.91927411  0.09806507  1
  Te  Te151  1  0.91486232  0.93241176  0.41764157  1
  Te  Te152  1  0.90039412  0.92138920  0.77345370  1
  Te  Te153  1  0.29042151  0.08401794  0.25045868  1
  Te  Te154  1  0.25615857  0.08121894  0.58238969  1
  Te  Te155  1  0.26168884  0.06976153  0.92941651  1
  Te  Te156  1  0.22813526  0.40898077  0.23073777  1
  Te  Te157  1  0.23167420  0.43368820  0.58916445  1
  Te  Te158  1  0.24358466  0.41062940  0.96825563  1
  Te  Te159  1  0.27079637  0.68850541  0.25688111  1
  Te  Te160  1  0.25153471  0.74300557  0.55907804  1
  Te  Te161  1  0.24461396  0.75827505  0.89925996  1
  Te  Te162  1  0.57262982  0.06770469  0.24218299  1
  Te  Te163  1  0.58729316  0.09181835  0.55421022  1
  Te  Te164  1  0.58813902  0.06862058  0.93843710  1
  Te  Te165  1  0.60554748  0.42920772  0.25806373  1
  Te  Te166  1  0.58084381  0.43069562  0.56236838  1
  Te  Te167  1  0.57298265  0.43024411  0.91170343  1
  Te  Te168  1  0.55818071  0.78396270  0.21247992  1
  Te  Te169  1  0.58070750  0.71235467  0.56530127  1
  Te  Te170  1  0.57437670  0.77130760  0.92424309  1
  Te  Te171  1  0.93290322  0.09474869  0.25197980  1
  Te  Te172  1  0.92061581  0.07944092  0.59586308  1
  Te  Te173  1  0.92421957  0.10681280  0.90823418  1
  Te  Te174  1  0.91632239  0.41602121  0.25483137  1
  Te  Te175  1  0.86526732  0.44371993  0.56503610  1
  Te  Te176  1  0.93597582  0.41465005  0.93394730  1
  Te  Te177  1  0.92871593  0.76048453  0.24453912  1
  Te  Te178  1  0.90969050  0.75274331  0.56744918  1
  Te  Te179  1  0.91594631  0.75150284  0.91735099  1
