# generated using pymatgen
data_In2Te3
_symmetry_space_group_name_H-M   'P 1'
_cell_length_a   19.02049942
_cell_length_b   19.02063082
_cell_length_c   19.02127720
_cell_angle_alpha   90.10707529
_cell_angle_beta   90.04119004
_cell_angle_gamma   89.98506590
_symmetry_Int_Tables_number   1
_chemical_formula_structural   In2Te3
_chemical_formula_sum   'In72 Te108'
_cell_volume   6881.53973161
_cell_formula_units_Z   36
loop_
 _symmetry_equiv_pos_site_id
 _symmetry_equiv_pos_as_xyz
  1  'x, y, z'
loop_
 _atom_site_type_symbol
 _atom_site_label
 _atom_site_symmetry_multiplicity
 _atom_site_fract_x
 _atom_site_fract_y
 _atom_site_fract_z
 _atom_site_occupancy
  In  In0  1  0.67686570  0.19195042  0.21202266  1
  In  In1  1  -0.01496815  0.49049068  0.82370745  1
  In  In2  1  0.66730077  0.15984129  0.51557869  1
  In  In3  1  0.83762934  0.18277873  0.64320768  1
  In  In4  1  0.50457391  -0.00786227  0.50713461  1
  In  In5  1  0.34776498  0.16030931  0.84208554  1
  In  In6  1  0.32658732  0.50260373  0.80021293  1
  In  In7  1  0.81171504  0.47920387  -0.05048541  1
  In  In8  1  0.49532027  0.84636871  0.32262005  1
  In  In9  1  0.13366883  0.47957047  -0.01010349  1
  In  In10  1  0.67380837  -0.00386997  0.00712803  1
  In  In11  1  0.68803675  0.29768202  -0.00510029  1
  In  In12  1  0.35976523  0.32960126  0.66179092  1
  In  In13  1  0.14069786  0.82725899  0.68810923  1
  In  In14  1  0.32195876  0.65856458  0.32531751  1
  In  In15  1  -0.01082108  0.02060270  -0.02139242  1
  In  In16  1  0.68223100  -0.02235644  0.67564349  1
  In  In17  1  0.82658399  0.85135361  0.33699781  1
  In  In18  1  0.32682682  0.02060778  0.34374727  1
  In  In19  1  0.65553212  0.48338346  0.16817060  1
  In  In20  1  0.13669971  0.33352015  0.81378167  1
  In  In21  1  0.15440308  0.51964623  0.35076356  1
  In  In22  1  0.83675663  0.83705123  0.01977567  1
  In  In23  1  -0.00067030  0.66129051  -0.00152573  1
  In  In24  1  0.68890133  0.63248458  0.64879450  1
  In  In25  1  0.16973376  0.33296194  0.19488336  1
  In  In26  1  0.84117328  0.65739535  0.83437714  1
  In  In27  1  0.50343699  0.03829572  0.18066438  1
  In  In28  1  0.46895428  0.30138779  0.19692569  1
  In  In29  1  0.48959365  0.64810824  0.50318667  1
  In  In30  1  0.17504988  0.00482677  0.19087234  1
  In  In31  1  0.51583375  0.64375479  0.81928650  1
  In  In32  1  0.52763930  0.47767904  -0.01472404  1
  In  In33  1  0.00401423  0.14710580  0.17181015  1
  In  In34  1  0.34460588  0.33093210  -0.00979647  1
  In  In35  1  -0.00201394  0.81922048  0.51139532  1
  In  In36  1  0.51108709  0.15446693  0.00043171  1
  In  In37  1  -0.02882977  0.67226755  0.34537460  1
  In  In38  1  0.34175940  0.49336544  0.50099846  1
  In  In39  1  -0.02686812  0.37252291  0.61983325  1
  In  In40  1  0.89420816  0.79398163  0.68971126  1
  In  In41  1  0.55177235  0.46675985  0.39067023  1
  In  In42  1  0.83951219  0.01959715  0.17113285  1
  In  In43  1  0.19595897  0.30036443  0.49747005  1
  In  In44  1  0.02794797  0.48933052  0.16168840  1
  In  In45  1  0.50105411  0.66845251  0.17144784  1
  In  In46  1  0.18531095  0.69619343  0.16216374  1
  In  In47  1  0.48604193  0.81244928  -0.01536766  1
  In  In48  1  0.32632906  0.00327265  0.01305973  1
  In  In49  1  0.83807015  0.00735151  0.52535441  1
  In  In50  1  0.67671581  0.79716208  0.50009034  1
  In  In51  1  -0.01642024  0.33005730  0.36933136  1
  In  In52  1  0.32907115  0.02746816  0.66776439  1
  In  In53  1  0.13770733  0.86399599  -0.00560142  1
  In  In54  1  0.50409761  0.84614585  0.68623371  1
  In  In55  1  0.33446559  0.67356941  0.64942842  1
  In  In56  1  0.15732640  0.16275320  0.67034973  1
  In  In57  1  0.51884779  0.30927545  0.51799605  1
  In  In58  1  0.32118322  0.86076592  0.83064151  1
  In  In59  1  0.30670473  0.85257033  0.47811416  1
  In  In60  1  0.00254723  0.62895938  0.62765006  1
  In  In61  1  0.69084368  0.17835925  0.80738892  1
  In  In62  1  0.02767019  0.03482686  0.35121458  1
  In  In63  1  0.80623850  0.45215287  0.35060272  1
  In  In64  1  0.32864318  0.68318494  -0.02970107  1
  In  In65  1  0.32371078  0.52059854  0.15192378  1
  In  In66  1  0.67187454  0.84496623  0.14837207  1
  In  In67  1  0.17355985  0.18860676  -0.01916594  1
  In  In68  1  0.84125648  0.64359864  0.17797882  1
  In  In69  1  -0.01177602  0.00856730  0.67259565  1
  In  In70  1  0.71450687  0.35485744  0.65444739  1
  In  In71  1  0.84962981  0.30833021  0.16657227  1
  Te  Te72  1  0.10493732  0.08605877  0.07644255  1
  Te  Te73  1  0.13487630  0.08475277  0.43921875  1
  Te  Te74  1  0.05197321  0.11108543  0.75920649  1
  Te  Te75  1  0.07490238  0.37267741  0.07711393  1
  Te  Te76  1  0.10115400  0.40353620  0.42901217  1
  Te  Te77  1  0.07933696  0.43425318  0.71985341  1
  Te  Te78  1  0.07203263  0.76155001  0.08583949  1
  Te  Te79  1  0.08167944  0.74212016  0.41503941  1
  Te  Te80  1  0.03446218  0.73321021  0.73392102  1
  Te  Te81  1  0.40046574  0.10763961  0.09270817  1
  Te  Te82  1  0.40939098  0.08626151  0.44708999  1
  Te  Te83  1  0.43305292  0.08220175  0.75357807  1
  Te  Te84  1  0.42071342  0.41894155  0.09079759  1
  Te  Te85  1  0.42270694  0.39587488  0.42422758  1
  Te  Te86  1  0.43112416  0.41193241  0.75932923  1
  Te  Te87  1  0.39908117  0.74656773  0.08944155  1
  Te  Te88  1  0.41497198  0.75591008  0.41829092  1
  Te  Te89  1  0.40779155  0.74873761  0.76595092  1
  Te  Te90  1  0.73020094  0.09939481  0.10531980  1
  Te  Te91  1  0.74301845  0.06574210  0.43338277  1
  Te  Te92  1  0.77915373  0.07753952  0.73678738  1
  Te  Te93  1  0.75784852  0.40711672  0.08615107  1
  Te  Te94  1  0.69121758  0.44738822  0.45003781  1
  Te  Te95  1  0.76040982  0.46392579  0.74609822  1
  Te  Te96  1  0.75200229  0.73161857  0.08942000  1
  Te  Te97  1  0.76417887  0.73560391  0.40125227  1
  Te  Te98  1  0.75834984  0.73644922  0.73548073  1
  Te  Te99  1  0.06468484  0.25195133  0.26522900  1
  Te  Te100  1  0.08097678  0.26423585  0.58849504  1
  Te  Te101  1  0.06434461  0.23221884  0.89165857  1
  Te  Te102  1  0.08789611  0.60364453  0.24257872  1
  Te  Te103  1  0.09800733  0.60991353  0.51982426  1
  Te  Te104  1  0.08140481  0.58511688  0.89651320  1
  Te  Te105  1  0.06894409  0.93081426  0.25685009  1
  Te  Te106  1  0.07894605  0.92184787  0.58792847  1
  Te  Te107  1  0.06235636  0.93107832  0.88851704  1
  Te  Te108  1  0.37495432  0.23065926  0.28251786  1
  Te  Te109  1  0.40912824  0.22633252  0.57095772  1
  Te  Te110  1  0.44622439  0.25622654  0.90792334  1
  Te  Te111  1  0.42386114  0.57102420  0.25688517  1
  Te  Te112  1  0.42793520  0.56015805  0.60726034  1
  Te  Te113  1  0.41800694  0.57124514  0.92245287  1
  Te  Te114  1  0.40769474  0.93735497  0.24252280  1
  Te  Te115  1  0.40166348  0.90432738  0.58933760  1
  Te  Te116  1  0.42154713  0.93235590  0.91801392  1
  Te  Te117  1  0.76821002  0.28136930  0.28597308  1
  Te  Te118  1  0.77718372  0.27095651  0.53072017  1
  Te  Te119  1  0.78871988  0.24022209  0.90225368  1
  Te  Te120  1  0.74468692  0.56215708  0.26128551  1
  Te  Te121  1  0.76079843  0.55023901  0.54679180  1
  Te  Te122  1  0.74139843  0.60249090  0.92750726  1
  Te  Te123  1  0.73771214  0.93697257  0.24830449  1
  Te  Te124  1  0.76456249  0.88808603  0.58466931  1
  Te  Te125  1  0.75011360  0.90502264  0.92380569  1
  Te  Te126  1  0.25459209  0.26089253  0.08791716  1
  Te  Te127  1  0.25234307  0.22975717  0.37979187  1
  Te  Te128  1  0.25523817  0.25089718  0.75756200  1
  Te  Te129  1  0.22884743  0.58831032  0.05532498  1
  Te  Te130  1  0.24964886  0.60120349  0.44498105  1
  Te  Te131  1  0.24211951  0.60014941  0.73554749  1
  Te  Te132  1  0.24445307  0.90713889  0.09263633  1
  Te  Te133  1  0.21342170  0.94609781  0.41103678  1
  Te  Te134  1  0.22951339  0.94065024  0.74316469  1
  Te  Te135  1  0.57586706  0.25393500  0.09662229  1
  Te  Te136  1  0.58130017  0.22548823  0.41327190  1
  Te  Te137  1  0.61675435  0.26435932  0.71601678  1
  Te  Te138  1  0.58570374  0.58371491  0.07909713  1
  Te  Te139  1  0.58373801  0.61013776  0.39983377  1
  Te  Te140  1  0.62195475  0.55625587  0.75805897  1
  Te  Te141  1  0.55831835  0.92372630  0.08519217  1
  Te  Te142  1  0.59243579  0.90154694  0.42440337  1
  Te  Te143  1  0.60016670  0.90776012  0.77540599  1
  Te  Te144  1  0.91143661  0.21093853  0.07191303  1
  Te  Te145  1  0.91098517  0.23916891  0.45800690  1
  Te  Te146  1  0.89428440  0.29673389  0.71679708  1
  Te  Te147  1  0.91919830  0.56059824  0.07710475  1
  Te  Te148  1  0.91746580  0.54635449  0.40331642  1
  Te  Te149  1  0.88448651  0.55376544  0.72888593  1
  Te  Te150  1  0.93056620  0.93326798  0.08884108  1
  Te  Te151  1  0.92826320  0.92503521  0.42341706  1
  Te  Te152  1  0.91430609  0.91930775  0.76191345  1
  Te  Te153  1  0.24730365  0.11903395  0.25754308  1
  Te  Te154  1  0.23505853  0.08686057  0.56770120  1
  Te  Te155  1  0.24358584  0.07434399  0.90890299  1
  Te  Te156  1  0.25249512  0.44139021  0.26068188  1
  Te  Te157  1  0.25274445  0.40903323  0.58796723  1
  Te  Te158  1  0.24418145  0.41183257  0.90871497  1
  Te  Te159  1  0.25104425  0.77137610  0.26792765  1
  Te  Te160  1  0.23606001  0.76964229  0.58397827  1
  Te  Te161  1  0.22521634  0.77113733  0.90509293  1
  Te  Te162  1  0.57876655  0.10868840  0.28589316  1
  Te  Te163  1  0.58460064  0.07055462  0.60828435  1
  Te  Te164  1  0.60928821  0.09038033  0.90785926  1
  Te  Te165  1  0.57477603  0.39390276  0.25843318  1
  Te  Te166  1  0.59320194  0.41734084  0.58686009  1
  Te  Te167  1  0.61784523  0.39383329  0.90854509  1
  Te  Te168  1  0.59409819  0.75963391  0.24783363  1
  Te  Te169  1  0.57370249  0.73819274  0.60263402  1
  Te  Te170  1  0.58452326  0.73644495  0.90992718  1
  Te  Te171  1  0.90759679  0.09971354  0.27922345  1
  Te  Te172  1  0.94537821  0.10957718  0.55827171  1
  Te  Te173  1  0.87532385  0.10960386  0.95558022  1
  Te  Te174  1  0.92733162  0.41996702  0.25014397  1
  Te  Te175  1  0.88859770  0.46110356  0.53292352  1
  Te  Te176  1  0.93030270  0.40051438  0.92498327  1
  Te  Te177  1  0.91071902  0.76267102  0.24100201  1
  Te  Te178  1  0.89965843  0.71555034  0.55885755  1
  Te  Te179  1  0.91924728  0.75948192  0.91867884  1
