# generated using pymatgen
data_In2Te3
_symmetry_space_group_name_H-M   'P 1'
_cell_length_a   18.96830404
_cell_length_b   18.98911766
_cell_length_c   18.98462115
_cell_angle_alpha   89.64646140
_cell_angle_beta   90.07268313
_cell_angle_gamma   90.02931571
_symmetry_Int_Tables_number   1
_chemical_formula_structural   In2Te3
_chemical_formula_sum   'In72 Te108'
_cell_volume   6837.95991306
_cell_formula_units_Z   36
loop_
 _symmetry_equiv_pos_site_id
 _symmetry_equiv_pos_as_xyz
  1  'x, y, z'
loop_
 _atom_site_type_symbol
 _atom_site_label
 _atom_site_symmetry_multiplicity
 _atom_site_fract_x
 _atom_site_fract_y
 _atom_site_fract_z
 _atom_site_occupancy
  In  In0  1  -0.01084823  0.19440155  0.82464962  1
  In  In1  1  0.01061610  0.01988180  0.00530382  1
  In  In2  1  0.34208182  0.02550009  0.66540984  1
  In  In3  1  -0.01537216  0.66273254  -0.00109489  1
  In  In4  1  0.50540191  0.30463584  0.18071935  1
  In  In5  1  0.35478675  -0.00127316  0.01169054  1
  In  In6  1  0.35598988  0.17687265  0.82295938  1
  In  In7  1  -0.01511575  0.83726330  0.14945722  1
  In  In8  1  0.67669599  0.66942720  -0.00453181  1
  In  In9  1  0.15873075  -0.00923707  0.17726740  1
  In  In10  1  0.50020942  0.84211529  0.66410042  1
  In  In11  1  -0.01281060  0.65863941  0.67728917  1
  In  In12  1  0.19817200  0.64168166  0.17278909  1
  In  In13  1  0.51126184  0.49981329  -0.00793653  1
  In  In14  1  -0.03192523  0.86509079  0.48778786  1
  In  In15  1  0.00187154  0.31828900  0.01624725  1
  In  In16  1  0.16506227  0.20276945  0.29996498  1
  In  In17  1  -0.07360315  0.02595031  0.68093945  1
  In  In18  1  0.82286453  0.31573382  0.83033035  1
  In  In19  1  0.69832915  0.15870983  0.16691684  1
  In  In20  1  0.50188669  0.84151865  0.32036300  1
  In  In21  1  0.33300330  0.49641634  0.83280667  1
  In  In22  1  0.32163335  0.82893369  0.15595334  1
  In  In23  1  0.67389012  0.02390651  0.67653638  1
  In  In24  1  0.84188592  0.48471939  0.34373824  1
  In  In25  1  0.50239637  0.32441260  0.49529827  1
  In  In26  1  0.17004388  0.01036347  0.82835909  1
  In  In27  1  0.15177799  0.80884835  0.65808334  1
  In  In28  1  0.84988360  0.67270542  0.83705816  1
  In  In29  1  0.81066075  0.31608844  0.52221807  1
  In  In30  1  0.13064843  0.00604709  0.48733238  1
  In  In31  1  0.82961550  0.66358190  0.16175896  1
  In  In32  1  0.02446945  0.66463980  0.31848168  1
  In  In33  1  0.67779355  0.84516434  0.46950763  1
  In  In34  1  0.84682255  0.33276098  0.16690553  1
  In  In35  1  0.33545250  0.47686111  0.50206795  1
  In  In36  1  0.49199300  0.64857464  0.51163964  1
  In  In37  1  0.33165251  0.83093706  0.83850728  1
  In  In38  1  0.69165734  0.02002851  0.33869430  1
  In  In39  1  0.33569824  0.31309123  -0.01451257  1
  In  In40  1  0.66940498  0.67815230  0.33605933  1
  In  In41  1  0.01028979  0.17888551  0.50560286  1
  In  In42  1  0.67319314  0.64661850  0.64544107  1
  In  In43  1  0.16517930  0.17443679  0.65390575  1
  In  In44  1  0.52413331  0.19456536  0.66396143  1
  In  In45  1  0.48393978  0.83113285  0.00693623  1
  In  In46  1  -0.01058740  0.49009494  0.50892266  1
  In  In47  1  0.52803918  0.14148608  -0.00767062  1
  In  In48  1  0.15960213  0.84611836  0.31046174  1
  In  In49  1  0.31046175  0.83789222  0.50307398  1
  In  In50  1  0.34284292  0.49348859  0.17167040  1
  In  In51  1  0.68591287  0.51066652  0.82103563  1
  In  In52  1  0.51327893  0.66716985  0.82823613  1
  In  In53  1  0.17654926  0.16486920  0.03419450  1
  In  In54  1  0.81518564  0.82345550  0.64935233  1
  In  In55  1  0.34509422  0.35226880  0.67469385  1
  In  In56  1  0.13826146  0.81502488  -0.01978825  1
  In  In57  1  0.14028715  0.36249585  0.82145283  1
  In  In58  1  0.36126205  0.12253785  0.35406590  1
  In  In59  1  0.80890725  0.16262993  -0.02090098  1
  In  In60  1  0.65581506  0.46810156  0.16254929  1
  In  In61  1  0.66929346  0.84956771  0.17234059  1
  In  In62  1  0.17240547  0.31540455  0.49348812  1
  In  In63  1  0.74730106  0.88893382  0.80918753  1
  In  In64  1  0.70686907  0.32030918  -0.02340583  1
  In  In65  1  0.35675855  0.63014510  0.34821597  1
  In  In66  1  0.82445137  0.18234686  0.35120674  1
  In  In67  1  0.49024731  0.01780636  0.17671171  1
  In  In68  1  0.14727679  0.63324168  0.83683442  1
  In  In69  1  0.14541696  0.66035333  0.50701223  1
  In  In70  1  0.17106805  0.47084854  0.30882111  1
  In  In71  1  0.66705813  0.48918143  0.51047031  1
  Te  Te72  1  0.06964329  0.10170198  0.11958608  1
  Te  Te73  1  0.07879789  0.10940366  0.38961057  1
  Te  Te74  1  0.07171983  0.08589103  0.73725769  1
  Te  Te75  1  0.10459385  0.36305767  0.11426638  1
  Te  Te76  1  0.08407923  0.41138857  0.41772478  1
  Te  Te77  1  0.01306045  0.42423311  0.78585818  1
  Te  Te78  1  0.10301614  0.74934755  0.11130090  1
  Te  Te79  1  0.08113912  0.77105635  0.42435730  1
  Te  Te80  1  0.06916716  0.74931180  0.76703718  1
  Te  Te81  1  0.41135438  0.11443675  0.08862161  1
  Te  Te82  1  0.47194720  0.11885987  0.45451106  1
  Te  Te83  1  0.44970208  0.08434966  0.75149573  1
  Te  Te84  1  0.43370157  0.39761055  0.07245673  1
  Te  Te85  1  0.42376334  0.41359161  0.40563916  1
  Te  Te86  1  0.43306142  0.40448523  0.77693870  1
  Te  Te87  1  0.40019920  0.73576444  0.07880047  1
  Te  Te88  1  0.42066488  0.75884949  0.42230037  1
  Te  Te89  1  0.41313167  0.74601121  0.74318039  1
  Te  Te90  1  0.74874160  0.05902308  0.07082571  1
  Te  Te91  1  0.71568468  0.12792379  0.44024770  1
  Te  Te92  1  0.79752517  0.09325055  0.72663483  1
  Te  Te93  1  0.76815593  0.42161806  0.07253195  1
  Te  Te94  1  0.73887038  0.39818227  0.41339090  1
  Te  Te95  1  0.73596847  0.39758529  0.73941823  1
  Te  Te96  1  0.75640264  0.76801314  0.07785353  1
  Te  Te97  1  0.76956677  0.74639933  0.41626329  1
  Te  Te98  1  0.73450499  0.73405480  0.75343953  1
  Te  Te99  1  0.06197458  0.29214743  0.23957692  1
  Te  Te100  1  0.06979180  0.27952147  0.60259774  1
  Te  Te101  1  0.10012635  0.23694605  0.92047737  1
  Te  Te102  1  0.07988651  0.56043747  0.22584208  1
  Te  Te103  1  0.08165651  0.56485723  0.60491932  1
  Te  Te104  1  0.07819013  0.56473897  0.94548075  1
  Te  Te105  1  0.04649582  0.93021683  0.25940203  1
  Te  Te106  1  0.06685976  0.91773324  0.59481071  1
  Te  Te107  1  0.06930164  0.92354666  0.90048825  1
  Te  Te108  1  0.41026841  0.23698011  0.27090756  1
  Te  Te109  1  0.40108368  0.24503011  0.58901843  1
  Te  Te110  1  0.45448388  0.24871661  0.91085078  1
  Te  Te111  1  0.43770356  0.58407205  0.23868722  1
  Te  Te112  1  0.40940780  0.56261312  0.59439204  1
  Te  Te113  1  0.41767690  0.59249302  0.91844104  1
  Te  Te114  1  0.39500347  0.92310192  0.24875764  1
  Te  Te115  1  0.41202910  0.92650661  0.57325172  1
  Te  Te116  1  0.42835245  0.92914582  0.90052095  1
  Te  Te117  1  0.74226418  0.27041671  0.25693525  1
  Te  Te118  1  0.76979140  0.21522637  0.62664278  1
  Te  Te119  1  0.69935775  0.20567891  0.86653865  1
  Te  Te120  1  0.74434112  0.56707877  0.25291026  1
  Te  Te121  1  0.77520142  0.56620445  0.57821950  1
  Te  Te122  1  0.77135321  0.57528658  0.92722924  1
  Te  Te123  1  0.76465574  0.91199918  0.26562231  1
  Te  Te124  1  0.74517908  0.93183240  0.57193678  1
  Te  Te125  1  0.72598133  0.96850185  0.92952289  1
  Te  Te126  1  0.24816226  0.27524377  0.10096320  1
  Te  Te127  1  0.26463615  0.23393309  0.41244904  1
  Te  Te128  1  0.24069860  0.25322681  0.75961767  1
  Te  Te129  1  0.25108754  0.55184158  0.07285837  1
  Te  Te130  1  0.23083648  0.57541244  0.41447658  1
  Te  Te131  1  0.23903998  0.56827629  0.74533464  1
  Te  Te132  1  0.23229418  0.92122992  0.05885659  1
  Te  Te133  1  0.23812151  0.93173729  0.40837695  1
  Te  Te134  1  0.24827010  0.91608460  0.73622310  1
  Te  Te135  1  0.60978457  0.24995777  0.07428239  1
  Te  Te136  1  0.58462897  0.21959842  0.42934234  1
  Te  Te137  1  0.62781514  0.26621263  0.74178027  1
  Te  Te138  1  0.59043553  0.58606599  0.08731695  1
  Te  Te139  1  0.58484536  0.57996167  0.41654062  1
  Te  Te140  1  0.57567238  0.56942348  0.73203450  1
  Te  Te141  1  0.57070689  0.92765272  0.08650075  1
  Te  Te142  1  0.57585777  0.93714394  0.40714066  1
  Te  Te143  1  0.60305648  0.90952906  0.74994478  1
  Te  Te144  1  0.90517750  0.22181603  0.08300090  1
  Te  Te145  1  0.92048598  0.27120587  0.42560968  1
  Te  Te146  1  0.89713376  0.24633850  0.71745623  1
  Te  Te147  1  0.91739329  0.57118361  0.09190417  1
  Te  Te148  1  0.92915206  0.59040960  0.41119495  1
  Te  Te149  1  0.91670733  0.56143725  0.76512050  1
  Te  Te150  1  0.91047788  0.94162806  0.07910975  1
  Te  Te151  1  0.89947211  0.97622792  0.41873305  1
  Te  Te152  1  0.89293455  0.89780628  0.75656333  1
  Te  Te153  1  0.24995589  0.08712953  0.24723472  1
  Te  Te154  1  0.24243165  0.08130656  0.56556597  1
  Te  Te155  1  0.26503216  0.08936925  0.91633959  1
  Te  Te156  1  0.29362640  0.39843343  0.27461977  1
  Te  Te157  1  0.23289291  0.41249173  0.59288140  1
  Te  Te158  1  0.23932434  0.41369760  0.92167473  1
  Te  Te159  1  0.26217156  0.73986430  0.27588849  1
  Te  Te160  1  0.25685472  0.72530867  0.58872082  1
  Te  Te161  1  0.24544064  0.73483267  0.91481406  1
  Te  Te162  1  0.58861773  0.09934455  0.25349934  1
  Te  Te163  1  0.57277779  0.08027037  0.58139552  1
  Te  Te164  1  0.61371816  0.07110340  0.89565713  1
  Te  Te165  1  0.57392906  0.40335308  0.26370108  1
  Te  Te166  1  0.58585137  0.39764208  0.59108934  1
  Te  Te167  1  0.60557857  0.41667514  0.91112725  1
  Te  Te168  1  0.57748923  0.74528939  0.23442633  1
  Te  Te169  1  0.58971800  0.75738035  0.57269804  1
  Te  Te170  1  0.58716076  0.76374477  0.91745659  1
  Te  Te171  1  0.85984133  0.05293605  0.28577296  1
  Te  Te172  1  0.90766610  0.07430438  0.54074271  1
  Te  Te173  1  0.91689626  0.08749937  0.90334559  1
  Te  Te174  1  0.93598512  0.40787390  0.25832606  1
  Te  Te175  1  0.87956051  0.43141441  0.58935437  1
  Te  Te176  1  0.92341606  0.39464980  0.91099590  1
  Te  Te177  1  0.91616854  0.74911235  0.25364903  1
  Te  Te178  1  0.91880559  0.74561448  0.57309081  1
  Te  Te179  1  0.90716145  0.76684928  0.93247562  1
