# generated using pymatgen
data_In2Te3
_symmetry_space_group_name_H-M   'P 1'
_cell_length_a   18.81737944
_cell_length_b   18.83415329
_cell_length_c   18.81530527
_cell_angle_alpha   89.85940925
_cell_angle_beta   90.04739207
_cell_angle_gamma   89.96333729
_symmetry_Int_Tables_number   1
_chemical_formula_structural   In2Te3
_chemical_formula_sum   'In72 Te108'
_cell_volume   6668.29748704
_cell_formula_units_Z   36
loop_
 _symmetry_equiv_pos_site_id
 _symmetry_equiv_pos_as_xyz
  1  'x, y, z'
loop_
 _atom_site_type_symbol
 _atom_site_label
 _atom_site_symmetry_multiplicity
 _atom_site_fract_x
 _atom_site_fract_y
 _atom_site_fract_z
 _atom_site_occupancy
  In  In0  1  0.18599311  0.83475337  -0.00943096  1
  In  In1  1  0.84614135  0.31679607  0.80715813  1
  In  In2  1  0.65561933  0.15487346  0.85195027  1
  In  In3  1  0.02064570  0.49332021  0.82689011  1
  In  In4  1  0.84348904  0.83647899  0.62543181  1
  In  In5  1  0.31957009  0.66682135  0.67180599  1
  In  In6  1  0.83392618  0.02375127  0.83049095  1
  In  In7  1  0.82059017  0.16904360  0.31730932  1
  In  In8  1  0.64325346  0.00576185  0.68421302  1
  In  In9  1  0.17783443  0.34561832  0.80962068  1
  In  In10  1  0.63801069  0.46059739  0.51320778  1
  In  In11  1  0.65806013  0.63240359  0.68270363  1
  In  In12  1  0.84222975  0.83777742  -0.01616942  1
  In  In13  1  0.01919052  0.34681853  -0.01019445  1
  In  In14  1  0.33463908  0.19657481  0.51621295  1
  In  In15  1  0.50440148  -0.00588310  0.15344752  1
  In  In16  1  -0.00436448  0.34288373  0.33618419  1
  In  In17  1  0.85492328  0.00256650  0.48809842  1
  In  In18  1  0.84530075  0.66670894  0.16971688  1
  In  In19  1  0.32476820  0.81952518  0.16167223  1
  In  In20  1  0.67276064  0.20405265  0.53217208  1
  In  In21  1  0.84300542  0.68184632  0.83124380  1
  In  In22  1  0.83180146  0.15600971  -0.01897869  1
  In  In23  1  0.65910821  0.83176760  0.48201231  1
  In  In24  1  0.00346580  0.82165245  0.83417068  1
  In  In25  1  0.36389584  0.15792062  0.15417651  1
  In  In26  1  0.16804844  -0.00701969  0.82030807  1
  In  In27  1  -0.00572676  0.16379934  0.16468646  1
  In  In28  1  0.62827607  0.30769860  0.03483016  1
  In  In29  1  0.82425533  0.33750124  0.18207440  1
  In  In30  1  0.14438792  0.50994627  0.63333197  1
  In  In31  1  0.64211085  0.49713070  0.80817815  1
  In  In32  1  0.50528107  0.66640395  0.50678490  1
  In  In33  1  0.32386165  0.01948614  0.33383872  1
  In  In34  1  0.33897456  0.18822453  0.84160208  1
  In  In35  1  0.17712316  0.82485189  0.68709014  1
  In  In36  1  0.17024699  0.81848825  0.32646684  1
  In  In37  1  0.48883057  0.85714437  0.69648342  1
  In  In38  1  0.84493459  0.49626256  0.63990820  1
  In  In39  1  0.34969213  0.47901035  0.48137192  1
  In  In40  1  0.17802988  -0.02073217  0.15442367  1
  In  In41  1  0.00050225  0.17726392  0.49573298  1
  In  In42  1  0.00199275  0.81871559  0.15324027  1
  In  In43  1  0.34817476  0.48408409  0.84120304  1
  In  In44  1  0.20389888  0.50566210  0.02680031  1
  In  In45  1  0.63003529  0.46448601  0.18154565  1
  In  In46  1  0.47987952  0.66701249  0.16788270  1
  In  In47  1  0.48102203  0.18922752  0.33722478  1
  In  In48  1  0.66147863  0.00204756  0.33364534  1
  In  In49  1  0.15204747  0.51611627  0.31632895  1
  In  In50  1  0.18076461  0.02893746  0.51387699  1
  In  In51  1  0.00499248  0.00936725  0.66229819  1
  In  In52  1  0.67022336  0.66962823  -0.00667030  1
  In  In53  1  0.18166604  0.32015828  0.50080026  1
  In  In54  1  0.82356045  0.49371654  0.36602801  1
  In  In55  1  0.85602552  0.66738752  0.50355427  1
  In  In56  1  0.81737388  -0.00756635  0.16830478  1
  In  In57  1  0.18335447  0.66513274  0.85940470  1
  In  In58  1  0.64444623  0.81604709  0.82902873  1
  In  In59  1  0.51530368  0.82618847  0.33090326  1
  In  In60  1  0.65690689  0.01366233  0.01130845  1
  In  In61  1  0.47208968  0.48318348  0.01381796  1
  In  In62  1  0.00831257  0.82552973  0.47972890  1
  In  In63  1  0.49806436  0.32310749  0.83195982  1
  In  In64  1  0.33278134  0.83773472  0.53936038  1
  In  In65  1  0.67286790  0.64999476  0.34412344  1
  In  In66  1  0.17295679  0.16293627  0.37538048  1
  In  In67  1  0.84659129  0.51999490  0.02388605  1
  In  In68  1  0.35391609  0.63249039  0.33670740  1
  In  In69  1  0.19641232  0.32913587  0.17843817  1
  In  In70  1  0.48635387  0.18304148  0.66955444  1
  In  In71  1  0.15607739  0.17559673  -0.01319696  1
  Te  Te72  1  0.08339954  0.07647812  0.07798331  1
  Te  Te73  1  0.06690958  0.06212893  0.41677737  1
  Te  Te74  1  0.09666649  0.09462208  0.73834148  1
  Te  Te75  1  0.09708132  0.41561942  0.09896610  1
  Te  Te76  1  0.09271765  0.41715305  0.42350225  1
  Te  Te77  1  0.06942495  0.40301195  0.71623549  1
  Te  Te78  1  0.11548239  0.74165518  0.08702575  1
  Te  Te79  1  0.08319547  0.72594436  0.40171660  1
  Te  Te80  1  0.08606439  0.72249765  0.75430787  1
  Te  Te81  1  0.42106947  0.06623757  0.05143923  1
  Te  Te82  1  0.41192982  0.09041507  0.43251282  1
  Te  Te83  1  0.42904320  0.09189409  0.77055351  1
  Te  Te84  1  0.39453141  0.42706197  0.12727084  1
  Te  Te85  1  0.46206338  0.42916901  0.39815912  1
  Te  Te86  1  0.43169171  0.41800689  0.73596511  1
  Te  Te87  1  0.42463049  0.76211049  0.06892013  1
  Te  Te88  1  0.40851448  0.75725509  0.41993122  1
  Te  Te89  1  0.41304804  0.74303018  0.75866774  1
  Te  Te90  1  0.74467169  0.10633155  0.09525243  1
  Te  Te91  1  0.74236821  0.09273903  0.43027808  1
  Te  Te92  1  0.74732646  0.10514017  0.73682452  1
  Te  Te93  1  0.74420856  0.41784443  0.07716194  1
  Te  Te94  1  0.72192358  0.39500761  0.40934871  1
  Te  Te95  1  0.74931306  0.41844536  0.73776587  1
  Te  Te96  1  0.75692946  0.75832541  0.08161971  1
  Te  Te97  1  0.76554369  0.75156891  0.40935837  1
  Te  Te98  1  0.75337849  0.75623219  0.73088841  1
  Te  Te99  1  0.08443167  0.24530738  0.25956053  1
  Te  Te100  1  0.10325146  0.22939299  0.58811656  1
  Te  Te101  1  0.07545448  0.25563145  0.88328251  1
  Te  Te102  1  0.07295302  0.58205265  0.21109013  1
  Te  Te103  1  0.03098251  0.56658525  0.55712611  1
  Te  Te104  1  0.09223429  0.56981383  0.93579699  1
  Te  Te105  1  0.08007399  0.91500138  0.24978828  1
  Te  Te106  1  0.09418914  0.91148868  0.58653619  1
  Te  Te107  1  0.07845194  0.91937832  0.92143197  1
  Te  Te108  1  0.42461544  0.27799434  0.22225489  1
  Te  Te109  1  0.44384674  0.28787125  0.56695876  1
  Te  Te110  1  0.41489639  0.26967051  0.94052031  1
  Te  Te111  1  0.41314987  0.54392274  0.22761913  1
  Te  Te112  1  0.41083763  0.57997623  0.58577774  1
  Te  Te113  1  0.39285740  0.58352034  0.94024764  1
  Te  Te114  1  0.40686839  0.91599258  0.25800408  1
  Te  Te115  1  0.42139603  0.93947628  0.59316457  1
  Te  Te116  1  0.41907855  0.91089007  0.82781269  1
  Te  Te117  1  0.72336307  0.25049200  0.24266907  1
  Te  Te118  1  0.78349870  0.28777588  0.59339303  1
  Te  Te119  1  0.74449169  0.26529726  0.91873317  1
  Te  Te120  1  0.74869526  0.56596323  0.24257715  1
  Te  Te121  1  0.73335076  0.58296403  0.55940640  1
  Te  Te122  1  0.75207688  0.57969733  0.90100326  1
  Te  Te123  1  0.73119952  0.90484993  0.24903475  1
  Te  Te124  1  0.73493079  0.93354772  0.57866561  1
  Te  Te125  1  0.74460884  0.92334667  0.90407316  1
  Te  Te126  1  0.26252566  0.24307420  0.07281637  1
  Te  Te127  1  0.27843718  0.27001354  0.39261887  1
  Te  Te128  1  0.27141954  0.26319493  0.73216591  1
  Te  Te129  1  0.22505982  0.62962863  0.10390124  1
  Te  Te130  1  0.24563340  0.57774680  0.42830977  1
  Te  Te131  1  0.23835964  0.56132492  0.75406577  1
  Te  Te132  1  0.28486605  0.92999874  0.05997034  1
  Te  Te133  1  0.24892904  0.91786896  0.42124167  1
  Te  Te134  1  0.27760033  0.91431846  0.75188345  1
  Te  Te135  1  0.53890230  0.23365254  0.12392852  1
  Te  Te136  1  0.59071373  0.25619736  0.41702536  1
  Te  Te137  1  0.60143916  0.25184403  0.74690829  1
  Te  Te138  1  0.58582980  0.57686712  0.08494764  1
  Te  Te139  1  0.56319371  0.56656295  0.40781300  1
  Te  Te140  1  0.54245120  0.59837350  0.76787096  1
  Te  Te141  1  0.58568197  0.90079555  0.07359267  1
  Te  Te142  1  0.55984041  0.93454253  0.42841635  1
  Te  Te143  1  0.56663184  0.95180550  0.80727959  1
  Te  Te144  1  0.91931389  0.26368588  0.07524175  1
  Te  Te145  1  0.89716382  0.25794601  0.41401125  1
  Te  Te146  1  0.90838597  0.25443704  0.68811156  1
  Te  Te147  1  0.95601417  0.58408461  0.10439119  1
  Te  Te148  1  0.94036044  0.56985832  0.42690822  1
  Te  Te149  1  0.91767067  0.57738553  0.74836795  1
  Te  Te150  1  0.92061963  0.92902701  0.07602945  1
  Te  Te151  1  0.90590026  0.89773645  0.40081093  1
  Te  Te152  1  0.90987991  0.91010135  0.74880863  1
  Te  Te153  1  0.23724405  0.09792761  0.23672534  1
  Te  Te154  1  0.26516896  0.10274674  0.60829118  1
  Te  Te155  1  0.25008411  0.08132733  0.91349477  1
  Te  Te156  1  0.26451386  0.43789676  0.25397401  1
  Te  Te157  1  0.25865180  0.41677660  0.58943945  1
  Te  Te158  1  0.25572493  0.40050194  0.92942985  1
  Te  Te159  1  0.25482749  0.71517851  0.25028622  1
  Te  Te160  1  0.22502461  0.73433758  0.57228404  1
  Te  Te161  1  0.28443866  0.75802339  0.91054326  1
  Te  Te162  1  0.56688094  0.09118591  0.25315203  1
  Te  Te163  1  0.57609581  0.09487447  0.58022142  1
  Te  Te164  1  0.55601165  0.10750537  0.95131656  1
  Te  Te165  1  0.57193447  0.38743364  0.29379317  1
  Te  Te166  1  0.54221940  0.40372264  0.60922383  1
  Te  Te167  1  0.58650913  0.41955268  0.92858034  1
  Te  Te168  1  0.59670069  0.73649057  0.24159300  1
  Te  Te169  1  0.58701316  0.75859995  0.59529747  1
  Te  Te170  1  0.56140553  0.74893437  0.93022585  1
  Te  Te171  1  0.91765396  0.06989463  0.25710719  1
  Te  Te172  1  0.90142637  0.09795083  0.59412478  1
  Te  Te173  1  0.93975946  0.09599468  0.90197819  1
  Te  Te174  1  0.91541634  0.43718674  0.24935372  1
  Te  Te175  1  0.90899058  0.37941310  0.57359660  1
  Te  Te176  1  0.90817734  0.42187692  0.91233341  1
  Te  Te177  1  0.92491622  0.75143433  0.26017303  1
  Te  Te178  1  0.95202070  0.73628339  0.59967049  1
  Te  Te179  1  0.93946262  0.72905939  0.93957253  1
