# generated using pymatgen
data_In2Te3
_symmetry_space_group_name_H-M   'P 1'
_cell_length_a   18.75648316
_cell_length_b   18.75586157
_cell_length_c   18.76533011
_cell_angle_alpha   89.97682965
_cell_angle_beta   89.94827427
_cell_angle_gamma   89.97917627
_symmetry_Int_Tables_number   1
_chemical_formula_structural   In2Te3
_chemical_formula_sum   'In72 Te108'
_cell_volume   6601.52690733
_cell_formula_units_Z   36
loop_
 _symmetry_equiv_pos_site_id
 _symmetry_equiv_pos_as_xyz
  1  'x, y, z'
loop_
 _atom_site_type_symbol
 _atom_site_label
 _atom_site_symmetry_multiplicity
 _atom_site_fract_x
 _atom_site_fract_y
 _atom_site_fract_z
 _atom_site_occupancy
  In  In0  1  -0.03218613  0.19379133  0.78706859  1
  In  In1  1  0.32269845  0.32135957  0.32744324  1
  In  In2  1  0.66984772  0.50399913  0.16944460  1
  In  In3  1  0.14822655  0.50666062  0.64634373  1
  In  In4  1  0.16860857  0.33822617  0.17834542  1
  In  In5  1  0.66187167  0.34435756  0.33889353  1
  In  In6  1  0.47844277  0.47236238  0.02050008  1
  In  In7  1  0.50369399  -0.00020913  0.18142028  1
  In  In8  1  0.01611509  0.83516688  0.79841369  1
  In  In9  1  0.47063575  0.51872134  0.29146043  1
  In  In10  1  0.16564982  0.00125456  0.49925577  1
  In  In11  1  0.14068988  0.66655613  0.81863993  1
  In  In12  1  0.85697229  0.35141707  0.21176553  1
  In  In13  1  0.50628005  0.66660472  0.50095837  1
  In  In14  1  0.65238719  0.02724168  0.00487499  1
  In  In15  1  0.16445164  0.17830365  0.33071166  1
  In  In16  1  0.19171631  0.83586058  0.01393847  1
  In  In17  1  0.34839455  0.15813194  0.17636611  1
  In  In18  1  0.51682162  0.15789177  0.66344128  1
  In  In19  1  0.32993132  0.34310082  0.65497518  1
  In  In20  1  0.83846842  0.19915760  0.35635975  1
  In  In21  1  0.66603645  0.81613974  0.84081574  1
  In  In22  1  0.34598869  0.66840890  0.03959816  1
  In  In23  1  0.33052480  0.84186711  0.81599139  1
  In  In24  1  0.37470404  0.18256816  0.83445778  1
  In  In25  1  0.83149782  0.51049065  0.00302736  1
  In  In26  1  0.64839545  0.31898620  0.00563622  1
  In  In27  1  -0.01058425  -0.01303147  0.01029898  1
  In  In28  1  0.14110696  0.48855987  0.35896526  1
  In  In29  1  0.15997058  0.16055155  0.64618797  1
  In  In30  1  -0.00431512  0.16358134  0.18627839  1
  In  In31  1  0.83231398  0.66094689  0.18806890  1
  In  In32  1  0.81260327  0.18136816  0.65441410  1
  In  In33  1  0.69767743  0.50850643  0.48254809  1
  In  In34  1  0.65521557  0.65914431  0.64450498  1
  In  In35  1  -0.01136416  -0.01794015  0.33852703  1
  In  In36  1  0.84271515  0.66460775  0.80790838  1
  In  In37  1  -0.00946589  0.50743977  0.82604086  1
  In  In38  1  0.50730003  0.84050940  0.34018697  1
  In  In39  1  0.19490623  0.00570480  0.17155866  1
  In  In40  1  0.51868678  0.33459217  0.50138661  1
  In  In41  1  -0.02447689  0.81643134  0.18285000  1
  In  In42  1  0.18597587  0.19847846  0.01812564  1
  In  In43  1  0.84651054  0.01299893  0.81191234  1
  In  In44  1  0.83692756  0.83873144  0.00224537  1
  In  In45  1  0.17804066  0.34001903  0.84564255  1
  In  In46  1  0.52414377  0.32781856  0.83668446  1
  In  In47  1  0.33339917  0.83745189  0.50161287  1
  In  In48  1  0.17037186  0.64704391  0.18048075  1
  In  In49  1  0.01566173  0.34467634  0.00404420  1
  In  In50  1  -0.01322488  0.35235037  0.61990104  1
  In  In51  1  0.32502831  0.49518864  0.50487937  1
  In  In52  1  -0.00773687  0.00711542  0.63759982  1
  In  In53  1  0.15977537  0.81937545  0.68517212  1
  In  In54  1  0.66134033  0.65498381  -0.01594453  1
  In  In55  1  0.50283179  0.01251467  0.85056528  1
  In  In56  1  0.67529183  0.68276958  0.34810929  1
  In  In57  1  0.33657674  0.01163383  0.01668379  1
  In  In58  1  0.32173818  0.50318691  0.83924617  1
  In  In59  1  0.15982383  0.79952616  0.33263139  1
  In  In60  1  0.19045842  -0.00978489  0.81758540  1
  In  In61  1  0.82339440  0.82602111  0.35439596  1
  In  In62  1  0.67341490  0.01895246  0.36300579  1
  In  In63  1  0.00456628  0.64555253  -0.00336603  1
  In  In64  1  0.68701475  -0.00366000  0.64702189  1
  In  In65  1  0.48816458  0.84919493  0.65207133  1
  In  In66  1  0.80990174  0.17230785  0.00533439  1
  In  In67  1  0.15757689  0.66058303  0.49306724  1
  In  In68  1  0.65354526  0.84372706  0.17818486  1
  In  In69  1  0.51911235  0.66189063  0.81876162  1
  In  In70  1  0.51793206  0.48805184  0.63634328  1
  In  In71  1  0.48877491  0.14067895  0.35869424  1
  Te  Te72  1  0.09089552  0.08538992  0.08650720  1
  Te  Te73  1  0.07149764  0.08601199  0.41307316  1
  Te  Te74  1  0.07643222  0.07183903  0.75342354  1
  Te  Te75  1  0.08598978  0.43181764  0.09886042  1
  Te  Te76  1  0.04659050  0.39566719  0.43044444  1
  Te  Te77  1  0.08086867  0.40150550  0.74409540  1
  Te  Te78  1  0.07714666  0.75624667  0.08234770  1
  Te  Te79  1  0.05946780  0.75458390  0.43010397  1
  Te  Te80  1  0.04475106  0.71452317  0.70926544  1
  Te  Te81  1  0.44759167  0.10502830  0.06818447  1
  Te  Te82  1  0.40141856  0.06666339  0.45115649  1
  Te  Te83  1  0.41364315  0.07042667  0.73958985  1
  Te  Te84  1  0.39182913  0.40243979  0.11522408  1
  Te  Te85  1  0.42490856  0.42049860  0.41420696  1
  Te  Te86  1  0.42444266  0.41878943  0.74812270  1
  Te  Te87  1  0.43374952  0.74285691  0.12967024  1
  Te  Te88  1  0.41044024  0.74056081  0.40956483  1
  Te  Te89  1  0.41688090  0.74189189  0.73687002  1
  Te  Te90  1  0.74867842  0.08024816  0.10215276  1
  Te  Te91  1  0.77739660  0.09265764  0.44427044  1
  Te  Te92  1  0.73363363  0.09594281  0.75668667  1
  Te  Te93  1  0.75802948  0.40666487  0.08969202  1
  Te  Te94  1  0.77912175  0.39381178  0.42256600  1
  Te  Te95  1  0.73150390  0.35053847  0.76747321  1
  Te  Te96  1  0.74824643  0.74146694  0.08493034  1
  Te  Te97  1  0.77361538  0.72300202  0.45505044  1
  Te  Te98  1  0.74702768  0.75381946  0.72967497  1
  Te  Te99  1  0.06190274  0.27416504  0.26760779  1
  Te  Te100  1  0.05351508  0.22873152  0.56680764  1
  Te  Te101  1  0.07787622  0.23857035  0.90800939  1
  Te  Te102  1  0.06873739  0.58493379  0.26974682  1
  Te  Te103  1  0.05193421  0.57824797  0.56062595  1
  Te  Te104  1  0.10177007  0.55764682  0.91941327  1
  Te  Te105  1  0.08636066  0.91739308  0.23607081  1
  Te  Te106  1  0.08226208  0.89950863  0.57704650  1
  Te  Te107  1  0.09042934  0.91247317  0.91695237  1
  Te  Te108  1  0.43872657  0.24873339  0.26099541  1
  Te  Te109  1  0.41946731  0.24732000  0.57856706  1
  Te  Te110  1  0.42760585  0.27284349  0.93821977  1
  Te  Te111  1  0.39408984  0.61153738  0.20005756  1
  Te  Te112  1  0.41094032  0.58759669  0.59262029  1
  Te  Te113  1  0.42157385  0.59034431  0.91659148  1
  Te  Te114  1  0.41156283  0.93199508  0.27402472  1
  Te  Te115  1  0.43521808  0.94220012  0.54442937  1
  Te  Te116  1  0.41194828  0.91294838  0.92375377  1
  Te  Te117  1  0.74411345  0.25475629  0.24272342  1
  Te  Te118  1  0.73382707  0.27722355  0.57406670  1
  Te  Te119  1  0.75050419  0.26699534  0.90468686  1
  Te  Te120  1  0.75355190  0.56740580  0.27917523  1
  Te  Te121  1  0.77247483  0.58192675  0.59048379  1
  Te  Te122  1  0.74943154  0.57316853  0.89020004  1
  Te  Te123  1  0.74835283  0.92276034  0.26377270  1
  Te  Te124  1  0.77604077  0.91051815  0.55848804  1
  Te  Te125  1  0.75283571  0.92518759  0.90873708  1
  Te  Te126  1  0.29316036  0.28006802  0.09498412  1
  Te  Te127  1  0.24523518  0.25193882  0.43164736  1
  Te  Te128  1  0.25222839  0.24231288  0.74973799  1
  Te  Te129  1  0.23642875  0.57499613  0.06877033  1
  Te  Te130  1  0.25733455  0.58562157  0.40431109  1
  Te  Te131  1  0.24416003  0.58579163  0.73678476  1
  Te  Te132  1  0.28935842  0.90027476  0.11209091  1
  Te  Te133  1  0.24166117  0.90911302  0.40275457  1
  Te  Te134  1  0.26988640  0.92772546  0.70449698  1
  Te  Te135  1  0.55055305  0.22681566  0.06445537  1
  Te  Te136  1  0.59863076  0.23257452  0.42260700  1
  Te  Te137  1  0.60781234  0.26262348  0.72807895  1
  Te  Te138  1  0.57166690  0.58067222  0.08249082  1
  Te  Te139  1  0.57415452  0.56468410  0.40737455  1
  Te  Te140  1  0.60181870  0.55602569  0.74544943  1
  Te  Te141  1  0.57125955  0.91490365  0.07198159  1
  Te  Te142  1  0.60465338  0.90561663  0.43136092  1
  Te  Te143  1  0.58647429  0.91751779  0.75298262  1
  Te  Te144  1  0.91907844  0.25500563  0.08897046  1
  Te  Te145  1  0.94990995  0.27095429  0.42470212  1
  Te  Te146  1  0.87880764  0.30848906  0.73019772  1
  Te  Te147  1  0.92724726  0.57154296  0.10515519  1
  Te  Te148  1  0.92585553  0.51724211  0.41783053  1
  Te  Te149  1  0.89746132  0.55563247  0.72195907  1
  Te  Te150  1  0.89334985  0.92743559  0.11312367  1
  Te  Te151  1  0.91144109  0.91032883  0.44792362  1
  Te  Te152  1  0.90409982  0.90601415  0.72257845  1
  Te  Te153  1  0.27122584  0.07847965  0.28110707  1
  Te  Te154  1  0.26498484  0.09405695  0.56311008  1
  Te  Te155  1  0.25398541  0.09152729  0.91549556  1
  Te  Te156  1  0.25196509  0.43779444  0.26012798  1
  Te  Te157  1  0.22135329  0.39848669  0.56343514  1
  Te  Te158  1  0.26072743  0.41508808  0.94121831  1
  Te  Te159  1  0.26514741  0.74226853  0.24502417  1
  Te  Te160  1  0.24909468  0.74162886  0.58627301  1
  Te  Te161  1  0.24655999  0.74537874  0.90277963  1
  Te  Te162  1  0.59693297  0.09455782  0.25392010  1
  Te  Te163  1  0.59562050  0.07927863  0.56588645  1
  Te  Te164  1  0.59180533  0.11764875  0.90458459  1
  Te  Te165  1  0.56768148  0.41193716  0.23654216  1
  Te  Te166  1  0.63568502  0.40099797  0.58307749  1
  Te  Te167  1  0.59086124  0.43519967  0.92262097  1
  Te  Te168  1  0.57453131  0.73153089  0.24390813  1
  Te  Te169  1  0.59230151  0.77540879  0.56559907  1
  Te  Te170  1  0.55952650  0.75757230  0.93304273  1
  Te  Te171  1  0.89728711  0.08239528  0.26673998  1
  Te  Te172  1  0.89673630  0.09471485  0.56188057  1
  Te  Te173  1  0.92128142  0.09214295  0.91983273  1
  Te  Te174  1  0.93593376  0.46061063  0.27394725  1
  Te  Te175  1  0.88503398  0.43414035  0.54231881  1
  Te  Te176  1  0.91063471  0.41238504  0.91544090  1
  Te  Te177  1  0.92451403  0.72461219  0.29245025  1
  Te  Te178  1  0.87530469  0.79784995  0.56150689  1
  Te  Te179  1  0.92455258  0.74959366  0.91235053  1
