# generated using pymatgen
data_In2Te3
_symmetry_space_group_name_H-M   'P 1'
_cell_length_a   18.78476079
_cell_length_b   18.78900235
_cell_length_c   18.77023256
_cell_angle_alpha   89.90075803
_cell_angle_beta   90.00079650
_cell_angle_gamma   89.95719928
_symmetry_Int_Tables_number   1
_chemical_formula_structural   In2Te3
_chemical_formula_sum   'In72 Te108'
_cell_volume   6624.88388266
_cell_formula_units_Z   36
loop_
 _symmetry_equiv_pos_site_id
 _symmetry_equiv_pos_as_xyz
  1  'x, y, z'
loop_
 _atom_site_type_symbol
 _atom_site_label
 _atom_site_symmetry_multiplicity
 _atom_site_fract_x
 _atom_site_fract_y
 _atom_site_fract_z
 _atom_site_occupancy
  In  In0  1  0.82980011  -0.00036893  0.49114480  1
  In  In1  1  0.48868273  0.31205973  0.53855501  1
  In  In2  1  0.19551407  0.85356902  0.68302192  1
  In  In3  1  0.65570170  0.00398033  -0.00596247  1
  In  In4  1  0.18616328  0.87615802  0.35073052  1
  In  In5  1  0.48120423  0.00866145  0.15380715  1
  In  In6  1  0.83914528  0.30999938  0.17430725  1
  In  In7  1  0.19363007  0.16104141  0.66867309  1
  In  In8  1  0.66036177  0.47515349  0.51699520  1
  In  In9  1  0.49381786  0.85995748  0.67317843  1
  In  In10  1  0.49017244  0.00473831  0.83076478  1
  In  In11  1  0.00727370  0.36936896  0.70103840  1
  In  In12  1  0.65445186  0.50816829  0.83729752  1
  In  In13  1  0.48366081  0.50613736  0.30475266  1
  In  In14  1  0.82977351  0.32209304  0.85008813  1
  In  In15  1  0.66783118  0.69165866  0.33102980  1
  In  In16  1  0.00814716  0.66256722  -0.02340199  1
  In  In17  1  0.14167587  0.14664409  0.31142725  1
  In  In18  1  0.30684925  0.51392958  0.18236965  1
  In  In19  1  0.32265326  0.50172591  0.51641642  1
  In  In20  1  0.34707235  0.67008508  0.00296243  1
  In  In21  1  0.52468167  0.33800613  0.14791516  1
  In  In22  1  0.67655760  0.67965979  0.69406341  1
  In  In23  1  0.82751883  0.17466846  0.67153776  1
  In  In24  1  0.82042746  0.85605009  0.33521686  1
  In  In25  1  0.32392035  0.33912335  0.67292486  1
  In  In26  1  0.17055090  0.83918198  0.00599214  1
  In  In27  1  0.48518484  0.65900345  0.48865001  1
  In  In28  1  0.51417198  0.15830737  0.34235365  1
  In  In29  1  0.19136615  0.48648851  0.32948362  1
  In  In30  1  0.67765975  0.14952106  0.50328862  1
  In  In31  1  0.15448824  0.02530243  0.13563796  1
  In  In32  1  0.01310964  0.17558281  0.48602725  1
  In  In33  1  0.19578197  0.64714633  0.15258310  1
  In  In34  1  0.66352672  0.17189398  0.14841265  1
  In  In35  1  0.34165798  0.82270060  0.14493374  1
  In  In36  1  0.18784228  0.02748872  0.86652584  1
  In  In37  1  0.79968307  0.68187547  0.14351360  1
  In  In38  1  0.49017343  0.51253271  -0.00006340  1
  In  In39  1  0.32323370  0.48982033  0.84528322  1
  In  In40  1  0.00553351  0.49765324  0.51850895  1
  In  In41  1  -0.01543120  0.83503023  0.84035075  1
  In  In42  1  0.84229515  0.50845664  0.36488965  1
  In  In43  1  0.35242544  0.69306163  0.68357413  1
  In  In44  1  0.13060328  0.67211335  0.52738386  1
  In  In45  1  0.34295532  0.31770724  -0.02011330  1
  In  In46  1  0.66721696  -0.01018934  0.68372302  1
  In  In47  1  0.50597486  0.83585052  0.32461734  1
  In  In48  1  0.83930835  0.01911408  0.19165407  1
  In  In49  1  0.18471231  0.32380567  0.51266532  1
  In  In50  1  0.84019935  0.84011238  0.00622954  1
  In  In51  1  0.33864338  0.16342277  0.14095044  1
  In  In52  1  0.00209440  0.65417928  0.33521571  1
  In  In53  1  -0.03196819  0.81005778  0.52830423  1
  In  In54  1  0.85121306  0.02341999  0.86392134  1
  In  In55  1  -0.01144884  0.84265231  0.17194745  1
  In  In56  1  0.01896153  -0.01021671  0.66869427  1
  In  In57  1  0.67347026  0.31356937  0.00698901  1
  In  In58  1  0.49111444  -0.01169548  0.49941283  1
  In  In59  1  0.33358193  0.15572057  0.50563286  1
  In  In60  1  0.84114544  0.29239504  0.50246950  1
  In  In61  1  0.16506505  0.66411474  0.84312156  1
  In  In62  1  -0.00453250  0.32023287  -0.01303083  1
  In  In63  1  0.65961479  0.84051514  0.50292441  1
  In  In64  1  0.82740259  0.52075336  0.69566297  1
  In  In65  1  0.35293050  0.67329879  0.32622354  1
  In  In66  1  0.33706547  0.34639313  0.31696714  1
  In  In67  1  0.51605289  0.30128603  0.81465403  1
  In  In68  1  0.00172000  0.30036017  0.33047794  1
  In  In69  1  0.81905223  0.51677339  -0.02173025  1
  In  In70  1  -0.00310912  0.47135421  0.13688233  1
  In  In71  1  0.64979405  0.50562137  0.16121425  1
  Te  Te72  1  0.07031256  0.09793958  0.03579579  1
  Te  Te73  1  0.10034290  0.07076173  0.43102914  1
  Te  Te74  1  0.09212566  0.08697724  0.75762473  1
  Te  Te75  1  0.09830266  0.40648601  0.05489975  1
  Te  Te76  1  0.08459521  0.40915154  0.41766474  1
  Te  Te77  1  0.10451098  0.41961508  0.79959168  1
  Te  Te78  1  0.07916066  0.74430960  0.08936275  1
  Te  Te79  1  0.09011535  0.75743548  0.40532984  1
  Te  Te80  1  0.09196838  0.76646152  0.75548188  1
  Te  Te81  1  0.40389324  0.07118168  0.03834555  1
  Te  Te82  1  0.40480023  0.07077378  0.39924192  1
  Te  Te83  1  0.41854636  0.10166866  0.74325939  1
  Te  Te84  1  0.40536168  0.41693288  0.09240886  1
  Te  Te85  1  0.41696419  0.42311079  0.42311089  1
  Te  Te86  1  0.42514609  0.41413881  0.75919254  1
  Te  Te87  1  0.45052818  0.77487372  0.04672722  1
  Te  Te88  1  0.40685529  0.77426236  0.42600467  1
  Te  Te89  1  0.43173869  0.77386823  0.78169109  1
  Te  Te90  1  0.76144851  0.08363085  0.07393885  1
  Te  Te91  1  0.73684949  0.06579142  0.39663401  1
  Te  Te92  1  0.74748385  0.08862423  0.76776590  1
  Te  Te93  1  0.76053857  0.42128957  0.08345340  1
  Te  Te94  1  0.75644717  0.39869554  0.42468362  1
  Te  Te95  1  0.74303274  0.41122417  0.75852045  1
  Te  Te96  1  0.71515430  0.77760753  0.06582932  1
  Te  Te97  1  0.76337381  0.75134445  0.43304957  1
  Te  Te98  1  0.79378146  0.75549347  0.73715084  1
  Te  Te99  1  0.07459834  0.23887749  0.21794417  1
  Te  Te100  1  0.07606650  0.25811049  0.59867925  1
  Te  Te101  1  0.07688196  0.21012414  0.92202057  1
  Te  Te102  1  0.08790241  0.56959962  0.24083762  1
  Te  Te103  1  0.07288952  0.57742082  0.62863422  1
  Te  Te104  1  0.08227237  0.55498670  0.90460393  1
  Te  Te105  1  0.09003050  0.93145494  0.24326937  1
  Te  Te106  1  0.08702166  0.89397848  0.57544755  1
  Te  Te107  1  0.08310750  0.92481101  0.91570752  1
  Te  Te108  1  0.43052733  0.24796893  0.24372147  1
  Te  Te109  1  0.41203534  0.21016651  0.62876094  1
  Te  Te110  1  0.40286739  0.22194798  0.87630639  1
  Te  Te111  1  0.42671101  0.60976664  0.20853782  1
  Te  Te112  1  0.42190457  0.57838132  0.60162102  1
  Te  Te113  1  0.42427578  0.59643057  0.89166273  1
  Te  Te114  1  0.40181914  0.91779520  0.24919256  1
  Te  Te115  1  0.38981167  0.92174997  0.58669881  1
  Te  Te116  1  0.38699236  0.90445281  0.87363789  1
  Te  Te117  1  0.72675395  0.25648719  0.25243455  1
  Te  Te118  1  0.72263930  0.26606687  0.60406158  1
  Te  Te119  1  0.74838069  0.22098201  0.92053880  1
  Te  Te120  1  0.75569802  0.57647534  0.25637546  1
  Te  Te121  1  0.74144497  0.58342477  0.58546569  1
  Te  Te122  1  0.73652163  0.61401655  0.90418229  1
  Te  Te123  1  0.74587226  0.90783018  0.22007465  1
  Te  Te124  1  0.76112698  0.90853101  0.59400938  1
  Te  Te125  1  0.75096404  0.91728252  0.90795510  1
  Te  Te126  1  0.24042181  0.23192460  0.05147421  1
  Te  Te127  1  0.25422613  0.24645599  0.40095204  1
  Te  Te128  1  0.23759002  0.26205538  0.76843985  1
  Te  Te129  1  0.24780964  0.55845791  0.04300077  1
  Te  Te130  1  0.25040434  0.59676689  0.41932907  1
  Te  Te131  1  0.25797630  0.58968370  0.74762792  1
  Te  Te132  1  0.26500975  0.93525154  0.07349129  1
  Te  Te133  1  0.26526474  0.94476800  0.45251629  1
  Te  Te134  1  0.27765901  0.94647723  0.77114926  1
  Te  Te135  1  0.55493694  0.22394978  0.05254827  1
  Te  Te136  1  0.58417037  0.25675584  0.43388675  1
  Te  Te137  1  0.60706257  0.24811747  0.71294018  1
  Te  Te138  1  0.60116518  0.60052280  0.05467784  1
  Te  Te139  1  0.58468973  0.57680153  0.40651985  1
  Te  Te140  1  0.57041983  0.59941865  0.75631210  1
  Te  Te141  1  0.55354251  0.91656484  0.06103836  1
  Te  Te142  1  0.59680993  0.93254804  0.40021090  1
  Te  Te143  1  0.59918768  0.89338061  0.77790091  1
  Te  Te144  1  0.91900017  0.22972997  0.08129638  1
  Te  Te145  1  0.89253184  0.20188829  0.38295010  1
  Te  Te146  1  0.92893985  0.24928989  0.75752119  1
  Te  Te147  1  0.91464124  0.59237360  0.08794400  1
  Te  Te148  1  0.91721931  0.60634319  0.45361697  1
  Te  Te149  1  0.94761066  0.59872663  0.72963882  1
  Te  Te150  1  0.92597258  0.94214099  0.07833823  1
  Te  Te151  1  0.93420019  0.91411923  0.41727073  1
  Te  Te152  1  0.90609556  0.93026503  0.75129433  1
  Te  Te153  1  0.25740258  0.07785671  0.23892481  1
  Te  Te154  1  0.23854021  0.05632507  0.56974207  1
  Te  Te155  1  0.28942960  0.11185841  0.93849499  1
  Te  Te156  1  0.22604080  0.38510325  0.22056380  1
  Te  Te157  1  0.22102647  0.43641569  0.60869637  1
  Te  Te158  1  0.22856869  0.38098194  0.89462980  1
  Te  Te159  1  0.24103154  0.75883713  0.25063165  1
  Te  Te160  1  0.25013906  0.74926323  0.58195038  1
  Te  Te161  1  0.26071006  0.76122279  0.91225415  1
  Te  Te162  1  0.58894973  0.07368519  0.24033806  1
  Te  Te163  1  0.57866357  0.07358921  0.59147869  1
  Te  Te164  1  0.58063809  0.09691174  0.90545320  1
  Te  Te165  1  0.59410328  0.40653575  0.26553739  1
  Te  Te166  1  0.56109459  0.41877332  0.61071040  1
  Te  Te167  1  0.57504861  0.40424067  0.92789335  1
  Te  Te168  1  0.57261083  0.74231460  0.23188425  1
  Te  Te169  1  0.57037221  0.74710842  0.58274419  1
  Te  Te170  1  0.57997370  0.73014667  0.96922954  1
  Te  Te171  1  0.93346037  0.10089589  0.26861979  1
  Te  Te172  1  0.91909344  0.08502523  0.58511377  1
  Te  Te173  1  0.95501633  0.10955387  0.92586449  1
  Te  Te174  1  0.92025972  0.42159558  0.26311014  1
  Te  Te175  1  0.90194984  0.40742600  0.58663502  1
  Te  Te176  1  0.91906870  0.43323071  0.90375438  1
  Te  Te177  1  0.90530756  0.74194879  0.25221321  1
  Te  Te178  1  0.91164478  0.72751039  0.63955712  1
  Te  Te179  1  0.89269329  0.73215759  0.90605455  1
