# generated using pymatgen
data_In2Te3
_symmetry_space_group_name_H-M   'P 1'
_cell_length_a   18.84712688
_cell_length_b   18.83385913
_cell_length_c   18.84119100
_cell_angle_alpha   90.03514172
_cell_angle_beta   89.94890763
_cell_angle_gamma   90.00920566
_symmetry_Int_Tables_number   1
_chemical_formula_structural   In2Te3
_chemical_formula_sum   'In72 Te108'
_cell_volume   6687.94301823
_cell_formula_units_Z   36
loop_
 _symmetry_equiv_pos_site_id
 _symmetry_equiv_pos_as_xyz
  1  'x, y, z'
loop_
 _atom_site_type_symbol
 _atom_site_label
 _atom_site_symmetry_multiplicity
 _atom_site_fract_x
 _atom_site_fract_y
 _atom_site_fract_z
 _atom_site_occupancy
  In  In0  1  0.85608406  0.04516289  0.47268222  1
  In  In1  1  0.00024938  0.65182968  0.34179446  1
  In  In2  1  0.17310881  0.63963261  0.46666203  1
  In  In3  1  0.68728026  0.65365240  0.34026628  1
  In  In4  1  0.64543709  0.64749803  -0.00369580  1
  In  In5  1  0.17012607  0.83060961  0.32489684  1
  In  In6  1  0.48152263  0.82477180  -0.01687062  1
  In  In7  1  0.68363047  0.50194897  0.53641798  1
  In  In8  1  0.82613770  0.84914850  0.00181384  1
  In  In9  1  0.15668465  0.46983111  0.00180237  1
  In  In10  1  0.67491337  0.82480606  0.49568045  1
  In  In11  1  0.83143888  0.03182619  0.83169759  1
  In  In12  1  0.17776234  0.66824389  0.83308954  1
  In  In13  1  0.37348073  0.83951544  0.83471250  1
  In  In14  1  0.81219599  0.30992841  0.84601565  1
  In  In15  1  -0.01465895  0.32779878  0.00495060  1
  In  In16  1  0.53044691  0.30278468  0.13600459  1
  In  In17  1  0.49848791  0.65840337  0.49915124  1
  In  In18  1  0.01362283  0.30467791  0.62075007  1
  In  In19  1  0.85934308  0.03070248  0.19842802  1
  In  In20  1  0.32240976  0.16577294  0.49122274  1
  In  In21  1  0.30575024  0.01584407  0.65694842  1
  In  In22  1  0.83689286  0.32697352  0.49713589  1
  In  In23  1  0.00249948  0.47870987  0.20669204  1
  In  In24  1  0.18057430  0.33300061  0.80880134  1
  In  In25  1  -0.00964449  0.17002028  0.83087545  1
  In  In26  1  0.51932948  0.50688230  0.00211672  1
  In  In27  1  0.30114338  0.83255006  0.48775692  1
  In  In28  1  0.82413188  0.33850072  0.14751433  1
  In  In29  1  0.50473292  0.16214219  0.33734102  1
  In  In30  1  0.81829813  0.84515116  0.35287339  1
  In  In31  1  0.01662375  0.85650185  0.83286897  1
  In  In32  1  0.32361081  0.30746128  0.00561827  1
  In  In33  1  0.51146096  0.32796724  0.82425825  1
  In  In34  1  0.67125268  0.33352002  0.32133839  1
  In  In35  1  -0.01431611  0.67334115  0.03199192  1
  In  In36  1  0.00634542  0.46514779  0.46357010  1
  In  In37  1  0.14982701  0.03074535  0.18544014  1
  In  In38  1  0.49404720  0.47861802  0.31509187  1
  In  In39  1  0.48887827  -0.00011743  0.16951098  1
  In  In40  1  -0.02366329  0.52876478  0.82490001  1
  In  In41  1  0.33404704  0.15111227  0.18223004  1
  In  In42  1  0.84720005  0.62960307  0.17230023  1
  In  In43  1  0.13492604  0.86624721  0.64762540  1
  In  In44  1  0.53048561  0.65447959  0.83698402  1
  In  In45  1  0.67883724  0.47892756  0.82647403  1
  In  In46  1  0.17338240  0.00694364  0.83569952  1
  In  In47  1  0.34098786  0.66392296  0.01050386  1
  In  In48  1  0.16433048  0.16780113  0.02554375  1
  In  In49  1  -0.00183485  0.83548443  0.16955382  1
  In  In50  1  0.51272623  0.16739864  0.67627211  1
  In  In51  1  0.30874240  0.82836405  0.16086743  1
  In  In52  1  0.30987415  0.32582108  0.33147676  1
  In  In53  1  0.33857727  0.34992621  0.65482529  1
  In  In54  1  -0.03315599  0.65689759  0.66251663  1
  In  In55  1  0.68063509  0.02002290  0.34745347  1
  In  In56  1  0.52191010  0.00773905  0.85915353  1
  In  In57  1  0.83085619  0.82086317  0.66255462  1
  In  In58  1  0.00134888  0.02458493  0.63638876  1
  In  In59  1  0.33296458  0.48717171  0.17732750  1
  In  In60  1  0.66197469  0.81498155  0.15946455  1
  In  In61  1  0.34092538  0.18923074  0.82262988  1
  In  In62  1  0.68561478  0.01701239  0.00131422  1
  In  In63  1  0.51227654  0.81212656  0.65486849  1
  In  In64  1  0.16228093  0.50271128  0.65934479  1
  In  In65  1  0.32463956  0.63858250  0.62902441  1
  In  In66  1  0.47603377  0.82981970  0.34506422  1
  In  In67  1  0.81203914  0.66520087  0.84477636  1
  In  In68  1  0.50605298  0.36010861  0.48938413  1
  In  In69  1  0.68018239  0.00865431  0.67451971  1
  In  In70  1  0.48396576  0.01194515  0.51807581  1
  In  In71  1  0.15056804  0.85331579  0.00577236  1
  Te  Te72  1  0.05341981  0.11889167  0.11164561  1
  Te  Te73  1  0.02667769  0.12161373  0.42350553  1
  Te  Te74  1  0.08909484  0.09253903  0.74226729  1
  Te  Te75  1  0.08221177  0.39005224  0.10554057  1
  Te  Te76  1  0.09531640  0.39563215  0.36558391  1
  Te  Te77  1  0.07116572  0.42599232  0.75540613  1
  Te  Te78  1  0.10103269  0.74502894  0.10150408  1
  Te  Te79  1  0.08100857  0.75166942  0.42327553  1
  Te  Te80  1  0.07579157  0.74337599  0.74738229  1
  Te  Te81  1  0.43265702  0.10553567  0.08304554  1
  Te  Te82  1  0.40408653  0.06894887  0.40296734  1
  Te  Te83  1  0.41775403  0.06844605  0.74874735  1
  Te  Te84  1  0.41906619  0.40544613  0.07747552  1
  Te  Te85  1  0.38830219  0.43273242  0.42357497  1
  Te  Te86  1  0.41985682  0.42007770  0.75443021  1
  Te  Te87  1  0.42868166  0.74838231  0.10202553  1
  Te  Te88  1  0.38895823  0.72810958  0.41758719  1
  Te  Te89  1  0.41509374  0.72887987  0.73892828  1
  Te  Te90  1  0.75553568  0.09281000  0.10896957  1
  Te  Te91  1  0.76047130  0.13447143  0.39955450  1
  Te  Te92  1  0.74552171  0.11919307  0.74838373  1
  Te  Te93  1  0.77748814  0.45606912  0.06837229  1
  Te  Te94  1  0.74707109  0.42272664  0.42016361  1
  Te  Te95  1  0.74283806  0.38044840  0.73371082  1
  Te  Te96  1  0.76383102  0.73297464  0.07929835  1
  Te  Te97  1  0.77781696  0.72630307  0.43936849  1
  Te  Te98  1  0.73770394  0.75750460  0.75708420  1
  Te  Te99  1  0.02632417  0.28522435  0.28464086  1
  Te  Te100  1  0.08850204  0.20780753  0.53808240  1
  Te  Te101  1  0.09758638  0.25635596  0.91313062  1
  Te  Te102  1  0.08974319  0.59200902  0.24239378  1
  Te  Te103  1  0.06819093  0.58307317  0.57093346  1
  Te  Te104  1  0.08238345  0.58814812  0.92285012  1
  Te  Te105  1  0.06776110  0.92914927  0.26534235  1
  Te  Te106  1  0.07205870  0.93985609  0.53675376  1
  Te  Te107  1  0.06663920  0.95899092  0.93461229  1
  Te  Te108  1  0.43059705  0.26820640  0.25550621  1
  Te  Te109  1  0.42721667  0.24444614  0.57295239  1
  Te  Te110  1  0.43759519  0.23995254  0.92758676  1
  Te  Te111  1  0.41694005  0.58491957  0.24931826  1
  Te  Te112  1  0.43846825  0.55707023  0.58921155  1
  Te  Te113  1  0.41945192  0.57972531  0.91140022  1
  Te  Te114  1  0.39268122  0.91894453  0.25421249  1
  Te  Te115  1  0.40550226  0.89985437  0.58617182  1
  Te  Te116  1  0.40338268  0.94804335  0.93835435  1
  Te  Te117  1  0.76071489  0.24251663  0.24712989  1
  Te  Te118  1  0.77111531  0.21277211  0.56407766  1
  Te  Te119  1  0.74031358  0.22911207  0.94753531  1
  Te  Te120  1  0.74868872  0.55445478  0.25011474  1
  Te  Te121  1  0.77600631  0.59655062  0.59801785  1
  Te  Te122  1  0.75953156  0.55721575  0.94466981  1
  Te  Te123  1  0.74371277  0.91849543  0.24050856  1
  Te  Te124  1  0.75795876  0.93202742  0.56625712  1
  Te  Te125  1  0.74603965  0.92060537  0.89626910  1
  Te  Te126  1  0.23978424  0.25910618  0.12195123  1
  Te  Te127  1  0.22446096  0.26686875  0.43982129  1
  Te  Te128  1  0.24708663  0.23596842  0.71301447  1
  Te  Te129  1  0.24345378  0.57001585  0.07893841  1
  Te  Te130  1  0.26591708  0.53494463  0.42855871  1
  Te  Te131  1  0.26043649  0.56897945  0.75525298  1
  Te  Te132  1  0.23848665  0.94434060  0.09000581  1
  Te  Te133  1  0.23823392  0.93579039  0.40562132  1
  Te  Te134  1  0.24653452  0.90078264  0.75387631  1
  Te  Te135  1  0.65153925  0.24335398  0.07611019  1
  Te  Te136  1  0.59045708  0.25117528  0.42399680  1
  Te  Te137  1  0.61341706  0.25527395  0.74167034  1
  Te  Te138  1  0.57260689  0.59157010  0.11086894  1
  Te  Te139  1  0.58444940  0.56424547  0.41328540  1
  Te  Te140  1  0.59394931  0.56420365  0.74183172  1
  Te  Te141  1  0.58271916  0.91473514  0.07487950  1
  Te  Te142  1  0.57782164  0.92073417  0.41770561  1
  Te  Te143  1  0.57588965  0.91880492  0.74365725  1
  Te  Te144  1  0.91726118  0.23187472  0.09347625  1
  Te  Te145  1  0.94131775  0.25310349  0.41135113  1
  Te  Te146  1  0.92275409  0.26773463  0.73857113  1
  Te  Te147  1  0.92634854  0.54101367  0.07567828  1
  Te  Te148  1  0.91016153  0.56795795  0.42027510  1
  Te  Te149  1  0.85738677  0.56578501  0.72931320  1
  Te  Te150  1  0.91746221  0.93391406  0.08675244  1
  Te  Te151  1  0.92339883  0.92573688  0.41594806  1
  Te  Te152  1  0.92000550  0.93064558  0.74217551  1
  Te  Te153  1  0.23209352  0.11069026  0.27979914  1
  Te  Te154  1  0.22074573  0.07341117  0.55273560  1
  Te  Te155  1  0.25588279  0.10369213  0.91840079  1
  Te  Te156  1  0.22524684  0.43354522  0.26876496  1
  Te  Te157  1  0.23439238  0.41168766  0.56708987  1
  Te  Te158  1  0.26428529  0.41097616  0.91018205  1
  Te  Te159  1  0.25187606  0.72990702  0.25414914  1
  Te  Te160  1  0.22436355  0.74733968  0.59139997  1
  Te  Te161  1  0.25351813  0.76480742  0.92564107  1
  Te  Te162  1  0.59334811  0.08722087  0.23985479  1
  Te  Te163  1  0.59802853  0.09204861  0.57101172  1
  Te  Te164  1  0.61494236  0.11263261  0.90885967  1
  Te  Te165  1  0.59462554  0.41508549  0.21795125  1
  Te  Te166  1  0.60324955  0.39225068  0.59411070  1
  Te  Te167  1  0.59917196  0.40091152  0.92996809  1
  Te  Te168  1  0.58506462  0.74879271  0.27299552  1
  Te  Te169  1  0.61014913  0.71998246  0.58607777  1
  Te  Te170  1  0.60154446  0.76650316  0.91077783  1
  Te  Te171  1  0.94950593  0.10627320  0.28841014  1
  Te  Te172  1  0.88964804  0.12023817  0.60110443  1
  Te  Te173  1  0.91065011  0.10158885  0.93386849  1
  Te  Te174  1  0.90290689  0.38727656  0.27089809  1
  Te  Te175  1  0.92289561  0.41993485  0.58461800  1
  Te  Te176  1  0.91142672  0.41206111  0.90298575  1
  Te  Te177  1  0.89939698  0.75280090  0.25146962  1
  Te  Te178  1  0.93566283  0.76965782  0.57369185  1
  Te  Te179  1  0.92760533  0.75337076  0.91399078  1
