# generated using pymatgen
data_In2Te3
_symmetry_space_group_name_H-M   'P 1'
_cell_length_a   18.77702550
_cell_length_b   18.78337762
_cell_length_c   18.78081325
_cell_angle_alpha   89.96664718
_cell_angle_beta   89.94675437
_cell_angle_gamma   89.89717451
_symmetry_Int_Tables_number   1
_chemical_formula_structural   In2Te3
_chemical_formula_sum   'In72 Te108'
_cell_volume   6623.90232695
_cell_formula_units_Z   36
loop_
 _symmetry_equiv_pos_site_id
 _symmetry_equiv_pos_as_xyz
  1  'x, y, z'
loop_
 _atom_site_type_symbol
 _atom_site_label
 _atom_site_symmetry_multiplicity
 _atom_site_fract_x
 _atom_site_fract_y
 _atom_site_fract_z
 _atom_site_occupancy
  In  In0  1  0.00282895  0.35580548  0.65484735  1
  In  In1  1  -0.01476574  -0.00821735  0.33586618  1
  In  In2  1  0.83051959  -0.00216714  0.17757622  1
  In  In3  1  0.15445358  0.15814411  0.33045220  1
  In  In4  1  0.67393094  0.33622853  0.00733492  1
  In  In5  1  0.15255041  0.35698124  0.15044126  1
  In  In6  1  0.32325732  0.49210424  0.16696890  1
  In  In7  1  0.31387772  0.83290848  0.51054729  1
  In  In8  1  0.33555781  0.83491677  0.81504483  1
  In  In9  1  0.34160439  0.02748702  0.00284581  1
  In  In10  1  0.68658335  0.85112661  0.84115602  1
  In  In11  1  0.49451694  0.32566221  0.48120984  1
  In  In12  1  0.31417754  0.33693270  0.00288680  1
  In  In13  1  0.46783151  0.31419386  0.18028229  1
  In  In14  1  0.01417992  -0.00116601  0.65638961  1
  In  In15  1  0.30535516  0.68096025  0.34227521  1
  In  In16  1  -0.00465728  0.82236764  0.18276724  1
  In  In17  1  0.32174602  0.15077431  0.82575666  1
  In  In18  1  0.33564705  0.66391754  0.01488817  1
  In  In19  1  0.00562233  0.00971848  0.01347407  1
  In  In20  1  0.13565147  0.64662040  0.19818115  1
  In  In21  1  0.64020737  0.01039068  0.31217093  1
  In  In22  1  0.48186521  0.83598487  0.64845111  1
  In  In23  1  0.16381583  0.34320097  0.49714991  1
  In  In24  1  -0.00068652  0.49515120  0.84008426  1
  In  In25  1  0.15445113  0.00465793  0.17351149  1
  In  In26  1  0.16465165  0.64640754  0.83922764  1
  In  In27  1  0.49077718  0.66934135  0.82134333  1
  In  In28  1  0.87505288  0.64059407  0.16637400  1
  In  In29  1  0.83168961  0.16619376  0.02293308  1
  In  In30  1  0.50084551  0.16340365  0.01659437  1
  In  In31  1  0.81108686  -0.01859679  0.83699312  1
  In  In32  1  0.85113738  -0.01525640  0.50617639  1
  In  In33  1  0.83913126  0.32183951  0.17280548  1
  In  In34  1  0.65956902  0.17312518  0.49287408  1
  In  In35  1  0.67374773  0.83850282  0.16935378  1
  In  In36  1  0.00384757  0.19078133  0.84396409  1
  In  In37  1  0.32174536  0.49753508  0.81887231  1
  In  In38  1  0.83819622  0.16123962  0.32215296  1
  In  In39  1  0.16167127  0.83607862  0.02766301  1
  In  In40  1  -0.00255082  0.81482672  0.84544987  1
  In  In41  1  0.67600718  0.84611265  0.47897798  1
  In  In42  1  0.86038127  0.79863587  0.64490490  1
  In  In43  1  0.68120441  0.69536673  0.32569922  1
  In  In44  1  0.66231744  0.49193155  0.15719631  1
  In  In45  1  0.48588411  0.35344246  0.82762918  1
  In  In46  1  0.00220911  0.34731825  0.33686762  1
  In  In47  1  0.49655694  0.03203113  0.84144191  1
  In  In48  1  0.49713131  0.50217365  0.33447718  1
  In  In49  1  0.31701076  0.49969281  0.49933633  1
  In  In50  1  0.84933234  0.50869177  0.35735477  1
  In  In51  1  0.50861832  0.83172643  0.02521499  1
  In  In52  1  0.85658875  0.65774633  0.83346441  1
  In  In53  1  0.67909505  0.64228228  0.64920637  1
  In  In54  1  0.36305516  -0.02211286  0.31750899  1
  In  In55  1  0.65472936  0.01157599  0.67403400  1
  In  In56  1  0.84583788  0.35037922  0.50608082  1
  In  In57  1  0.67011352  0.14253458  0.84066754  1
  In  In58  1  0.85404026  0.36005214  0.83493786  1
  In  In59  1  0.52419737  0.67920752  0.17115603  1
  In  In60  1  0.48008481  0.66417963  0.49618178  1
  In  In61  1  0.68400136  0.65520660  0.00334980  1
  In  In62  1  0.67787196  0.50714746  0.83198302  1
  In  In63  1  0.15136126  0.34140890  0.83915535  1
  In  In64  1  0.66669668  0.34512144  0.66468532  1
  In  In65  1  0.14753564  0.79957536  0.64305722  1
  In  In66  1  0.49571684  0.17386318  0.64974414  1
  In  In67  1  0.16508815  0.19004451  0.67118083  1
  In  In68  1  0.32552689  0.16387059  0.48285593  1
  In  In69  1  0.20794823  -0.00086694  0.83781131  1
  In  In70  1  0.17170660  -0.00237096  0.49261886  1
  In  In71  1  0.68985863  0.49369570  0.49633919  1
  Te  Te72  1  0.09075840  0.10504289  0.08504835  1
  Te  Te73  1  0.06413274  0.08528103  0.42867033  1
  Te  Te74  1  0.09315233  0.08602018  0.76239626  1
  Te  Te75  1  0.05753510  0.44222809  0.07370422  1
  Te  Te76  1  0.08125009  0.44379312  0.41935489  1
  Te  Te77  1  0.10047678  0.44068863  0.73451969  1
  Te  Te78  1  0.06609945  0.73377323  0.08066237  1
  Te  Te79  1  0.08664604  0.71137614  0.43707204  1
  Te  Te80  1  0.06582651  0.72176440  0.74726235  1
  Te  Te81  1  0.42586632  0.07928172  0.11485357  1
  Te  Te82  1  0.42560977  0.08137199  0.40856263  1
  Te  Te83  1  0.40677089  0.07196920  0.72649466  1
  Te  Te84  1  0.42185796  0.41787035  0.07577192  1
  Te  Te85  1  0.39668023  0.40955285  0.39863747  1
  Te  Te86  1  0.41337032  0.42631665  0.72395851  1
  Te  Te87  1  0.40074106  0.76405708  0.11057119  1
  Te  Te88  1  0.41296969  0.76698860  0.41017375  1
  Te  Te89  1  0.39510410  0.73137056  0.71971661  1
  Te  Te90  1  0.73815676  0.08836696  0.10459656  1
  Te  Te91  1  0.75033912  0.07199956  0.41564400  1
  Te  Te92  1  0.76801120  0.09221610  0.73512756  1
  Te  Te93  1  0.77388925  0.42701019  0.07609635  1
  Te  Te94  1  0.74971743  0.39692187  0.39505371  1
  Te  Te95  1  0.76860379  0.43671083  0.73085537  1
  Te  Te96  1  0.76434240  0.73361641  0.10460764  1
  Te  Te97  1  0.76611489  0.73464459  0.44060837  1
  Te  Te98  1  0.74552423  0.74107215  0.75204950  1
  Te  Te99  1  0.07601156  0.25397427  0.24230071  1
  Te  Te100  1  0.06876966  0.24624471  0.56939963  1
  Te  Te101  1  0.09265154  0.25362995  0.94358930  1
  Te  Te102  1  0.05744043  0.55164300  0.28307199  1
  Te  Te103  1  0.09117458  0.63623486  0.56236394  1
  Te  Te104  1  0.05840473  0.59873338  0.93311787  1
  Te  Te105  1  0.09140888  0.90267674  0.26844629  1
  Te  Te106  1  0.07145075  0.89976444  0.55471352  1
  Te  Te107  1  0.09054881  0.91852885  0.91209036  1
  Te  Te108  1  0.44304043  0.21561480  0.29263609  1
  Te  Te109  1  0.39506122  0.26316053  0.57994757  1
  Te  Te110  1  0.42007004  0.24085451  0.91170920  1
  Te  Te111  1  0.41495666  0.59747117  0.24717470  1
  Te  Te112  1  0.42224755  0.56400318  0.58530452  1
  Te  Te113  1  0.41357941  0.57809296  0.91633587  1
  Te  Te114  1  0.43787391  0.88688209  0.22799818  1
  Te  Te115  1  0.40655028  0.93263451  0.56869921  1
  Te  Te116  1  0.41670452  0.91543843  0.91817239  1
  Te  Te117  1  0.73965921  0.23881032  0.24421231  1
  Te  Te118  1  0.75414215  0.25002363  0.58382212  1
  Te  Te119  1  0.75505586  0.25525202  0.90317082  1
  Te  Te120  1  0.74875286  0.57785758  0.25144237  1
  Te  Te121  1  0.78435940  0.59086796  0.55772443  1
  Te  Te122  1  0.78062361  0.56298554  0.92978304  1
  Te  Te123  1  0.75694829  0.90860907  0.27563939  1
  Te  Te124  1  0.74781531  0.91016847  0.60599295  1
  Te  Te125  1  0.75222438  0.91535791  0.95573814  1
  Te  Te126  1  0.26697576  0.26200985  0.12004854  1
  Te  Te127  1  0.24554615  0.26099486  0.39689173  1
  Te  Te128  1  0.26145613  0.27164843  0.75553085  1
  Te  Te129  1  0.23027591  0.58344500  0.08741911  1
  Te  Te130  1  0.22498244  0.57393258  0.40572386  1
  Te  Te131  1  0.24540677  0.58970187  0.73057305  1
  Te  Te132  1  0.26061922  0.92889814  0.09097864  1
  Te  Te133  1  0.24633138  0.90856901  0.39590861  1
  Te  Te134  1  0.23734500  0.90501629  0.72173246  1
  Te  Te135  1  0.58985143  0.25287874  0.10120114  1
  Te  Te136  1  0.58415424  0.24875825  0.38893076  1
  Te  Te137  1  0.58466713  0.24453814  0.75473737  1
  Te  Te138  1  0.56956628  0.57630703  0.06866086  1
  Te  Te139  1  0.59445120  0.59162799  0.41244404  1
  Te  Te140  1  0.57581309  0.57196084  0.73845960  1
  Te  Te141  1  0.57688413  0.93330077  0.10784586  1
  Te  Te142  1  0.57222334  0.92997437  0.41753895  1
  Te  Te143  1  0.56812943  0.91190996  0.76083015  1
  Te  Te144  1  0.93350724  0.25608918  0.07736447  1
  Te  Te145  1  0.91958784  0.24772737  0.41843232  1
  Te  Te146  1  0.91734054  0.25909439  0.73839149  1
  Te  Te147  1  0.96394010  0.56777134  0.07157626  1
  Te  Te148  1  0.95526477  0.61659516  0.38067984  1
  Te  Te149  1  0.92162820  0.56885918  0.73565440  1
  Te  Te150  1  0.91587465  0.90962892  0.08502574  1
  Te  Te151  1  0.91430014  0.88810594  0.41443405  1
  Te  Te152  1  0.91910045  0.90740928  0.74675874  1
  Te  Te153  1  0.25978302  0.07953949  0.25496363  1
  Te  Te154  1  0.24625215  0.08719841  0.59048873  1
  Te  Te155  1  0.23013404  0.11098448  0.94133596  1
  Te  Te156  1  0.24412801  0.40785363  0.25714922  1
  Te  Te157  1  0.23171503  0.42678776  0.59869252  1
  Te  Te158  1  0.23029255  0.43886124  0.92819628  1
  Te  Te159  1  0.22667727  0.75546372  0.24153964  1
  Te  Te160  1  0.24077436  0.71230241  0.56163667  1
  Te  Te161  1  0.24940117  0.75896079  0.91788105  1
  Te  Te162  1  0.53606990  0.09767831  0.24643182  1
  Te  Te163  1  0.56902722  0.07065279  0.56358433  1
  Te  Te164  1  0.59901820  0.06339639  0.94860046  1
  Te  Te165  1  0.57633776  0.40557253  0.24763050  1
  Te  Te166  1  0.57658142  0.42256904  0.57000331  1
  Te  Te167  1  0.58368694  0.42469928  0.92027412  1
  Te  Te168  1  0.56465837  0.78366024  0.27455815  1
  Te  Te169  1  0.58971905  0.74967955  0.57980487  1
  Te  Te170  1  0.58395097  0.74366750  0.91849584  1
  Te  Te171  1  0.93885898  0.09099245  0.23025561  1
  Te  Te172  1  0.92060777  0.08777930  0.58524051  1
  Te  Te173  1  0.91169948  0.08043948  0.90890754  1
  Te  Te174  1  0.91881956  0.43397138  0.24189308  1
  Te  Te175  1  0.93276115  0.45354119  0.56687351  1
  Te  Te176  1  0.95423252  0.39232931  0.94262740  1
  Te  Te177  1  0.91257785  0.73774018  0.27468712  1
  Te  Te178  1  0.96506648  0.73253881  0.56233569  1
  Te  Te179  1  0.89644463  0.75720220  0.93501627  1
