# generated using pymatgen
data_In2Te3
_symmetry_space_group_name_H-M   'P 1'
_cell_length_a   18.75356801
_cell_length_b   18.75544170
_cell_length_c   18.75780484
_cell_angle_alpha   90.00519000
_cell_angle_beta   89.98147881
_cell_angle_gamma   90.01412459
_symmetry_Int_Tables_number   1
_chemical_formula_structural   In2Te3
_chemical_formula_sum   'In72 Te108'
_cell_volume   6597.70935086
_cell_formula_units_Z   36
loop_
 _symmetry_equiv_pos_site_id
 _symmetry_equiv_pos_as_xyz
  1  'x, y, z'
loop_
 _atom_site_type_symbol
 _atom_site_label
 _atom_site_symmetry_multiplicity
 _atom_site_fract_x
 _atom_site_fract_y
 _atom_site_fract_z
 _atom_site_occupancy
  In  In0  1  0.20163665  0.51750246  0.31846037  1
  In  In1  1  0.49740797  0.49204438  0.33296811  1
  In  In2  1  0.00178820  0.31608645  -0.00508634  1
  In  In3  1  0.81529682  0.35333435  0.47688477  1
  In  In4  1  0.63928621  0.65015642  0.31688958  1
  In  In5  1  0.02383324  -0.00235141  0.68655989  1
  In  In6  1  0.19233707  0.47419775  -0.01983675  1
  In  In7  1  0.48896074  0.16152606  -0.01202242  1
  In  In8  1  0.65655911  0.49790570  0.15530734  1
  In  In9  1  -0.00142593  0.31593428  0.31726177  1
  In  In10  1  0.83475811  0.68743024  0.15175261  1
  In  In11  1  0.16616569  0.67604241  0.49127873  1
  In  In12  1  0.49039633  0.31823337  0.83987990  1
  In  In13  1  0.32908721  0.66307490  0.35574131  1
  In  In14  1  0.82999356  0.47682215  0.69849852  1
  In  In15  1  0.33643557  0.33853464  0.33182693  1
  In  In16  1  0.17432122  0.14890619  0.33113675  1
  In  In17  1  0.83116761  0.47951685  0.34670036  1
  In  In18  1  0.00684774  0.67787843  0.00757000  1
  In  In19  1  0.02237044  0.84171315  0.51271718  1
  In  In20  1  0.03450481  0.70495575  0.69533022  1
  In  In21  1  0.65990313  0.68282399  0.68127431  1
  In  In22  1  0.03361641  -0.02528318  0.29704925  1
  In  In23  1  0.20388025  0.48865995  0.67244580  1
  In  In24  1  0.65342197  0.34529190  -0.00030557  1
  In  In25  1  0.46000850  0.17788311  0.66517065  1
  In  In26  1  0.83729289  0.83468088  0.68537955  1
  In  In27  1  0.83984427  0.82782229  0.30364449  1
  In  In28  1  0.65495303  0.34455026  0.67491986  1
  In  In29  1  0.49519749  0.65994914  0.84952572  1
  In  In30  1  0.32859800  0.15230824  0.15392901  1
  In  In31  1  0.05027889  0.18622538  0.48603813  1
  In  In32  1  0.67630666  -0.01205520  0.32800657  1
  In  In33  1  0.66017634  0.18170304  0.14414866  1
  In  In34  1  0.49000471  0.85310140  0.67905622  1
  In  In35  1  0.18153655  0.33557376  0.51145603  1
  In  In36  1  0.18396083  0.15301821  -0.00122231  1
  In  In37  1  0.83461490  0.14931388  0.67171617  1
  In  In38  1  0.03063337  0.32424492  0.65051980  1
  In  In39  1  0.48668365  0.50072147  0.67755536  1
  In  In40  1  0.47301558  0.15119446  0.35394960  1
  In  In41  1  0.35638402  0.46470906  0.14230783  1
  In  In42  1  0.82352897  0.31791230  0.85128809  1
  In  In43  1  0.00773536  0.51233492  0.14937802  1
  In  In44  1  0.83808550  0.00215704  0.50216781  1
  In  In45  1  0.48979524  0.68377878  0.16288273  1
  In  In46  1  0.80843991  0.17769615  0.30904297  1
  In  In47  1  0.64088978  0.49676665  0.50993396  1
  In  In48  1  0.63601001  0.83824570  0.50514287  1
  In  In49  1  0.00618879  0.71192695  0.34535363  1
  In  In50  1  0.32436358  0.84554497  0.14253236  1
  In  In51  1  0.63603793  0.00671722  0.68770667  1
  In  In52  1  0.65155819  0.00572275  -0.00723504  1
  In  In53  1  0.80884252  0.66982686  0.49446721  1
  In  In54  1  0.82698142  0.66590368  0.85492290  1
  In  In55  1  0.32392795  0.66236476  0.67733820  1
  In  In56  1  0.32809486  0.67803767  -0.01282537  1
  In  In57  1  0.00383028  0.15204574  0.14178685  1
  In  In58  1  0.63058737  0.18104737  0.51865067  1
  In  In59  1  0.66208487  0.67200877  -0.00348531  1
  In  In60  1  0.01925960  0.14699134  0.82663938  1
  In  In61  1  0.48875665  0.82763395  0.32322836  1
  In  In62  1  0.02059675  0.50244609  0.49717270  1
  In  In63  1  0.17766222  0.81600314  0.69250416  1
  In  In64  1  0.17243194  -0.01915727  0.86925412  1
  In  In65  1  0.49738334  0.00192459  0.16103041  1
  In  In66  1  0.00445273  0.50744443  0.83462497  1
  In  In67  1  0.83493862  0.17639719  -0.01678946  1
  In  In68  1  0.34388729  0.01214780  0.65519139  1
  In  In69  1  0.83989503  -0.00970457  0.84897045  1
  In  In70  1  0.87647010  -0.01666173  0.14251155  1
  In  In71  1  0.16951386  0.68339785  0.15912569  1
  Te  Te72  1  0.10866114  0.05528079  0.09119794  1
  Te  Te73  1  0.08778816  0.05041999  0.41831072  1
  Te  Te74  1  0.13332641  0.08103254  0.75162801  1
  Te  Te75  1  0.09335369  0.40746259  0.07805718  1
  Te  Te76  1  0.09354597  0.40576611  0.39937986  1
  Te  Te77  1  0.09815623  0.41037968  0.75980491  1
  Te  Te78  1  0.11818074  0.77185483  0.04950971  1
  Te  Te79  1  0.12095637  0.79478268  0.40334404  1
  Te  Te80  1  0.10790191  0.75927483  0.81251471  1
  Te  Te81  1  0.40011575  0.05543161  0.05663523  1
  Te  Te82  1  0.38846493  0.06254425  0.44128019  1
  Te  Te83  1  0.40853438  0.08409392  0.77000878  1
  Te  Te84  1  0.44393974  0.39918694  0.04370790  1
  Te  Te85  1  0.41204319  0.41991177  0.42902351  1
  Te  Te86  1  0.40043023  0.40843474  0.75842320  1
  Te  Te87  1  0.42798874  0.77401461  0.05622064  1
  Te  Te88  1  0.40503585  0.76649464  0.42921233  1
  Te  Te89  1  0.40674114  0.75659096  0.76698061  1
  Te  Te90  1  0.76308631  0.08290380  0.08843240  1
  Te  Te91  1  0.73964453  0.09450521  0.42911059  1
  Te  Te92  1  0.74251422  0.08171734  0.77028182  1
  Te  Te93  1  0.75502997  0.41954722  0.07674660  1
  Te  Te94  1  0.70076842  0.41384461  0.39515216  1
  Te  Te95  1  0.72334583  0.41955514  0.78956884  1
  Te  Te96  1  0.75005334  0.77235586  0.06642951  1
  Te  Te97  1  0.73285072  0.77004194  0.40531144  1
  Te  Te98  1  0.73755572  0.76879870  0.77956097  1
  Te  Te99  1  0.09551476  0.23804834  0.23002197  1
  Te  Te100  1  0.13392843  0.22210835  0.60955772  1
  Te  Te101  1  0.10401448  0.25368237  0.89965681  1
  Te  Te102  1  0.08082187  0.59250115  0.26087829  1
  Te  Te103  1  0.09337164  0.59003842  0.60257161  1
  Te  Te104  1  0.10016270  0.58355003  0.92428813  1
  Te  Te105  1  0.12094480  0.91045130  0.19835982  1
  Te  Te106  1  0.12004564  0.92315564  0.59461375  1
  Te  Te107  1  0.06268824  0.92355253  0.95066510  1
  Te  Te108  1  0.41694354  0.24278355  0.24414842  1
  Te  Te109  1  0.38072025  0.25938574  0.57276862  1
  Te  Te110  1  0.38323022  0.24514428  0.91883076  1
  Te  Te111  1  0.40388219  0.58467626  0.24251006  1
  Te  Te112  1  0.41058266  0.58585841  0.58395836  1
  Te  Te113  1  0.39696547  0.56882033  0.91534844  1
  Te  Te114  1  0.39870201  0.92956480  0.25328187  1
  Te  Te115  1  0.40703784  0.90706749  0.56826084  1
  Te  Te116  1  0.35344962  0.87773070  0.89097791  1
  Te  Te117  1  0.73469886  0.27742821  0.23184147  1
  Te  Te118  1  0.75663759  0.25480793  0.59189502  1
  Te  Te119  1  0.71226433  0.23193436  0.91304714  1
  Te  Te120  1  0.76444733  0.59074095  0.25442124  1
  Te  Te121  1  0.74731888  0.56745558  0.59637827  1
  Te  Te122  1  0.74140646  0.56826761  0.92317237  1
  Te  Te123  1  0.75324289  0.91911550  0.21704315  1
  Te  Te124  1  0.74381600  0.91788107  0.59144207  1
  Te  Te125  1  0.75562805  0.91041709  0.94076428  1
  Te  Te126  1  0.25565311  0.25681322  0.07683587  1
  Te  Te127  1  0.26160583  0.23924561  0.42110049  1
  Te  Te128  1  0.22464889  0.29874209  0.79313877  1
  Te  Te129  1  0.25410176  0.57611609  0.08905108  1
  Te  Te130  1  0.26069842  0.56059666  0.45036485  1
  Te  Te131  1  0.24511168  0.58446133  0.77676344  1
  Te  Te132  1  0.22490832  0.94173596  0.08437473  1
  Te  Te133  1  0.25651107  0.98323106  0.43548551  1
  Te  Te134  1  0.27648296  0.91411780  0.76162074  1
  Te  Te135  1  0.54614062  0.26492589  0.08684746  1
  Te  Te136  1  0.56597714  0.25313208  0.40877512  1
  Te  Te137  1  0.58050373  0.23430448  0.74704862  1
  Te  Te138  1  0.56031102  0.58293031  0.07365766  1
  Te  Te139  1  0.55849934  0.60071867  0.43279100  1
  Te  Te140  1  0.59131743  0.57454065  0.76224223  1
  Te  Te141  1  0.57220347  0.90930541  0.07399721  1
  Te  Te142  1  0.56245002  0.93490185  0.41371974  1
  Te  Te143  1  0.57865338  0.91059223  0.78470829  1
  Te  Te144  1  0.90205192  0.25671612  0.09492987  1
  Te  Te145  1  0.91462409  0.24201560  0.42299133  1
  Te  Te146  1  0.92458582  0.25210901  0.75236787  1
  Te  Te147  1  0.90113599  0.57981220  0.06456982  1
  Te  Te148  1  0.92207542  0.59319359  0.41067927  1
  Te  Te149  1  0.91963290  0.59721050  0.74008117  1
  Te  Te150  1  0.93786542  0.89425843  0.04131784  1
  Te  Te151  1  0.91818643  0.90944652  0.41091185  1
  Te  Te152  1  0.94315658  0.90224325  0.77253573  1
  Te  Te153  1  0.26464721  0.05980173  0.25416506  1
  Te  Te154  1  0.26322732  0.08462442  0.54856995  1
  Te  Te155  1  0.27754964  0.08185867  0.90487046  1
  Te  Te156  1  0.24352769  0.40333375  0.22772537  1
  Te  Te157  1  0.29295029  0.38699688  0.60270950  1
  Te  Te158  1  0.28521548  0.38591012  0.89586968  1
  Te  Te159  1  0.26102073  0.75878037  0.25405779  1
  Te  Te160  1  0.26091973  0.76066254  0.57508987  1
  Te  Te161  1  0.24163193  0.78224822  0.92140656  1
  Te  Te162  1  0.58936777  0.09177600  0.25028811  1
  Te  Te163  1  0.54959284  0.07126833  0.58208087  1
  Te  Te164  1  0.55418304  0.06365480  0.89504121  1
  Te  Te165  1  0.56779957  0.40897859  0.23345694  1
  Te  Te166  1  0.55113545  0.39406962  0.57711688  1
  Te  Te167  1  0.54871568  0.42867868  0.92871664  1
  Te  Te168  1  0.59782416  0.76835604  0.23115929  1
  Te  Te169  1  0.55633252  0.73917408  0.58800049  1
  Te  Te170  1  0.57611487  0.76484469  0.91649040  1
  Te  Te171  1  0.91947228  0.08257923  0.26210913  1
  Te  Te172  1  0.94199690  0.08309703  0.58394126  1
  Te  Te173  1  0.93908971  0.07593356  0.93414867  1
  Te  Te174  1  0.91839255  0.41774199  0.23668026  1
  Te  Te175  1  0.91750625  0.41611433  0.58438455  1
  Te  Te176  1  0.91526896  0.42014646  0.92281897  1
  Te  Te177  1  0.95017435  0.76975435  0.21521020  1
  Te  Te178  1  0.91765387  0.75115576  0.58088127  1
  Te  Te179  1  0.91284559  0.76386524  0.92800219  1
