# generated using pymatgen
data_In2Te3
_symmetry_space_group_name_H-M   'P 1'
_cell_length_a   18.97103629
_cell_length_b   18.99223466
_cell_length_c   18.97011241
_cell_angle_alpha   90.00575933
_cell_angle_beta   90.19336802
_cell_angle_gamma   89.71731693
_symmetry_Int_Tables_number   1
_chemical_formula_structural   In2Te3
_chemical_formula_sum   'In72 Te108'
_cell_volume   6834.85437843
_cell_formula_units_Z   36
loop_
 _symmetry_equiv_pos_site_id
 _symmetry_equiv_pos_as_xyz
  1  'x, y, z'
loop_
 _atom_site_type_symbol
 _atom_site_label
 _atom_site_symmetry_multiplicity
 _atom_site_fract_x
 _atom_site_fract_y
 _atom_site_fract_z
 _atom_site_occupancy
  In  In0  1  0.01494384  0.17790802  0.84796003  1
  In  In1  1  -0.00900605  0.82549345  0.82508097  1
  In  In2  1  0.49191812  0.67054571  0.82556714  1
  In  In3  1  0.01150400  0.12050001  0.19102340  1
  In  In4  1  0.68859413  0.01509695  0.65444557  1
  In  In5  1  0.01975151  0.34040217  0.66103838  1
  In  In6  1  0.16742542  0.30877497  0.14317413  1
  In  In7  1  0.02180987  0.32130068  0.35745420  1
  In  In8  1  0.83553267  0.65759312  0.83263850  1
  In  In9  1  0.18768276  0.49315957  0.63371354  1
  In  In10  1  0.49026077  0.00408490  0.17409238  1
  In  In11  1  0.16431664  0.83517281  -0.02408116  1
  In  In12  1  0.66922704  0.49821570  0.83489284  1
  In  In13  1  0.84167534  0.81087752  0.68108618  1
  In  In14  1  0.01644681  0.86638004  0.15827526  1
  In  In15  1  0.33651459  0.82534136  0.18537202  1
  In  In16  1  0.00780265  0.48644703  0.48324993  1
  In  In17  1  0.32257999  0.00576731  0.00226984  1
  In  In18  1  0.32200393  0.66478607  0.01194936  1
  In  In19  1  0.31796295  0.29383954  0.31179629  1
  In  In20  1  0.84262876  0.66960868  0.51252328  1
  In  In21  1  0.68517835  0.68210232  0.67102255  1
  In  In22  1  0.18614570  0.02439340  0.18784729  1
  In  In23  1  0.84042112  0.84574042  0.00210895  1
  In  In24  1  0.65546037  0.15165650  0.84054999  1
  In  In25  1  0.00076874  0.68227369  0.35023661  1
  In  In26  1  0.05894980  0.62995735  -0.04538740  1
  In  In27  1  0.67401494  0.33065547  0.32037096  1
  In  In28  1  0.85483975  0.01329360  0.49593515  1
  In  In29  1  0.47702727  0.84038280  0.34814166  1
  In  In30  1  0.64678178  0.84130599  0.49272899  1
  In  In31  1  0.03546280  0.14633209  0.48861513  1
  In  In32  1  0.65208148  0.64172182  0.32520368  1
  In  In33  1  0.66300933  0.32597450  0.01928928  1
  In  In34  1  0.00809170  0.66653934  0.68032882  1
  In  In35  1  0.00081101  0.49758587  0.18971755  1
  In  In36  1  0.49457286  0.00044950  0.82850186  1
  In  In37  1  0.82635225  0.15707794  0.02803545  1
  In  In38  1  0.29211979  0.48965853  0.81603166  1
  In  In39  1  0.30367312  0.85876902  0.48718902  1
  In  In40  1  0.84413182  0.31946811  0.17452968  1
  In  In41  1  0.82646873  0.84081082  0.33236616  1
  In  In42  1  0.84652435  0.34291731  0.83311820  1
  In  In43  1  0.40843028  0.31174264  0.82815908  1
  In  In44  1  0.35307481  0.81985666  0.82681053  1
  In  In45  1  0.33365519  0.01834169  0.64485544  1
  In  In46  1  0.39794444  0.49569271  0.61258117  1
  In  In47  1  0.19305916  0.67571525  0.49238519  1
  In  In48  1  0.81847815  0.65771380  0.18851182  1
  In  In49  1  0.84201978  0.31085999  0.48615089  1
  In  In50  1  0.85346939  0.47240769  0.01249989  1
  In  In51  1  0.20071958  0.16892486  -0.01765433  1
  In  In52  1  0.64525622  0.17311491  0.16004312  1
  In  In53  1  0.33998883  0.49640680  0.18016265  1
  In  In54  1  0.50060363  0.49273432  0.34898591  1
  In  In55  1  0.83862685  -0.00725220  0.84360955  1
  In  In56  1  0.65126732  0.34169449  0.64279145  1
  In  In57  1  0.50732879  0.84291027  0.67536223  1
  In  In58  1  0.50424891  0.49076884  0.02292439  1
  In  In59  1  0.16037014  0.69161739  0.18910880  1
  In  In60  1  0.48269815  0.33005511  0.49755976  1
  In  In61  1  0.64308021  0.67673591  -0.00915366  1
  In  In62  1  0.00661411  0.34311485  -0.01523690  1
  In  In63  1  0.47068790  0.02486993  0.45711972  1
  In  In64  1  0.47473811  0.32534683  0.17400056  1
  In  In65  1  0.66730718  0.85334900  0.17959149  1
  In  In66  1  0.14020439  -0.02660273  0.78064643  1
  In  In67  1  0.19423448  0.19705602  0.66499934  1
  In  In68  1  0.07795341  0.91122206  0.49018760  1
  In  In69  1  0.68232307  0.16838593  0.49555463  1
  In  In70  1  0.49964109  0.18378666  0.65724136  1
  In  In71  1  0.48379278  0.65905044  0.16539015  1
  Te  Te72  1  0.10201397  0.08509465  0.07778891  1
  Te  Te73  1  0.08253893  0.03251101  0.40009125  1
  Te  Te74  1  0.08992062  0.10961888  0.73598012  1
  Te  Te75  1  0.08437295  0.42535858  0.08593042  1
  Te  Te76  1  0.11881227  0.41577069  0.41667720  1
  Te  Te77  1  0.10617663  0.43001007  0.73872614  1
  Te  Te78  1  0.08043946  0.74833245  0.07091974  1
  Te  Te79  1  0.09665408  0.77182814  0.42027508  1
  Te  Te80  1  0.09662752  0.73848230  0.77193149  1
  Te  Te81  1  0.38806909  0.09085739  0.10388046  1
  Te  Te82  1  0.38309803  0.13832962  0.42379459  1
  Te  Te83  1  0.41169581  0.09778898  0.74739697  1
  Te  Te84  1  0.38815114  0.40490777  0.06800081  1
  Te  Te85  1  0.39316073  0.39878546  0.39653220  1
  Te  Te86  1  0.42613680  0.44021630  0.75753824  1
  Te  Te87  1  0.42004592  0.76222195  0.07547417  1
  Te  Te88  1  0.40135069  0.75453162  0.44143278  1
  Te  Te89  1  0.40867650  0.73482654  0.71387089  1
  Te  Te90  1  0.71605542  0.07610679  0.07461995  1
  Te  Te91  1  0.74863638  0.06916551  0.41244827  1
  Te  Te92  1  0.76698436  0.09647000  0.75448339  1
  Te  Te93  1  0.74845301  0.41587722  0.10535619  1
  Te  Te94  1  0.73881523  0.40042052  0.43146130  1
  Te  Te95  1  0.74993946  0.41366073  0.74011602  1
  Te  Te96  1  0.74676032  0.74906871  0.08812944  1
  Te  Te97  1  0.74093207  0.74567738  0.41353462  1
  Te  Te98  1  0.74213761  0.76623344  0.78532610  1
  Te  Te99  1  0.08871786  0.23527783  0.25106343  1
  Te  Te100  1  0.10228953  0.26319784  0.56142402  1
  Te  Te101  1  0.11336836  0.27531467  0.90556022  1
  Te  Te102  1  0.09024259  0.58560657  0.27413350  1
  Te  Te103  1  0.07934380  0.59302566  0.56611729  1
  Te  Te104  1  0.16124174  0.53172310  0.89342027  1
  Te  Te105  1  0.10743584  0.92050175  0.25773780  1
  Te  Te106  1  0.11692675  0.91583305  0.63345900  1
  Te  Te107  1  0.06310517  0.92534280  0.91177664  1
  Te  Te108  1  0.43973673  0.21638329  0.26938771  1
  Te  Te109  1  0.39038799  0.26067921  0.59230232  1
  Te  Te110  1  0.33392042  0.22521079  0.92226733  1
  Te  Te111  1  0.40636161  0.59389337  0.27467625  1
  Te  Te112  1  0.35869342  0.60369588  0.51299209  1
  Te  Te113  1  0.42577634  0.58586094  0.93380217  1
  Te  Te114  1  0.39130850  0.93745479  0.27019115  1
  Te  Te115  1  0.43028950  0.92298815  0.56971344  1
  Te  Te116  1  0.41717411  0.91336685  0.92543090  1
  Te  Te117  1  0.75894571  0.22426168  0.25212079  1
  Te  Te118  1  0.75966552  0.24384278  0.59859319  1
  Te  Te119  1  0.75953874  0.25674307  0.92290483  1
  Te  Te120  1  0.75546558  0.55503609  0.26915296  1
  Te  Te121  1  0.75747366  0.58262256  0.59212352  1
  Te  Te122  1  0.75397296  0.57207287  0.93840836  1
  Te  Te123  1  0.76049617  0.94580608  0.24919488  1
  Te  Te124  1  0.75474143  0.89760857  0.58325012  1
  Te  Te125  1  0.74219594  0.92633064  0.92987897  1
  Te  Te126  1  0.27828925  0.21768983  0.10276148  1
  Te  Te127  1  0.24347051  0.20930801  0.41030008  1
  Te  Te128  1  0.27404200  0.26048655  0.77575007  1
  Te  Te129  1  0.23920151  0.58711669  0.10827174  1
  Te  Te130  1  0.24571885  0.55044333  0.43397956  1
  Te  Te131  1  0.27562979  0.58828870  0.70630392  1
  Te  Te132  1  0.24116481  0.90258065  0.08782128  1
  Te  Te133  1  0.22954806  0.97044487  0.42205337  1
  Te  Te134  1  0.27344713  0.91151501  0.73692574  1
  Te  Te135  1  0.54518892  0.24537635  0.06564166  1
  Te  Te136  1  0.58476530  0.25302881  0.41731486  1
  Te  Te137  1  0.58627013  0.25868646  0.75689468  1
  Te  Te138  1  0.59709615  0.58265478  0.10022763  1
  Te  Te139  1  0.57438838  0.58557656  0.43404958  1
  Te  Te140  1  0.58925756  0.58804692  0.74422917  1
  Te  Te141  1  0.57131967  0.91565381  0.08954086  1
  Te  Te142  1  0.58318038  0.93785173  0.39610216  1
  Te  Te143  1  0.60487694  0.93116344  0.75000235  1
  Te  Te144  1  0.94065273  0.24778736  0.08289508  1
  Te  Te145  1  0.92497860  0.21462780  0.40366497  1
  Te  Te146  1  0.92927601  0.25204239  0.74624393  1
  Te  Te147  1  0.91747529  0.58265923  0.09493355  1
  Te  Te148  1  0.90892239  0.57904388  0.41006080  1
  Te  Te149  1  0.90612841  0.57664063  0.73471790  1
  Te  Te150  1  0.91059648  0.94489484  0.08933216  1
  Te  Te151  1  0.92700724  0.90244202  0.42472656  1
  Te  Te152  1  0.92156583  0.92721391  0.73448644  1
  Te  Te153  1  0.25078826  0.10039219  0.29990684  1
  Te  Te154  1  0.23387895  0.09219789  0.56685368  1
  Te  Te155  1  0.22913787  0.04895665  0.89222978  1
  Te  Te156  1  0.23829191  0.40293005  0.24137952  1
  Te  Te157  1  0.29330261  0.39378021  0.59131781  1
  Te  Te158  1  0.26043571  0.43043607  0.94646535  1
  Te  Te159  1  0.26111407  0.74463917  0.28082467  1
  Te  Te160  1  0.21543029  0.79088694  0.58662150  1
  Te  Te161  1  0.24954718  0.73595836  0.89829747  1
  Te  Te162  1  0.56276738  0.10197098  0.26052274  1
  Te  Te163  1  0.57464727  0.07918547  0.57413981  1
  Te  Te164  1  0.55540959  0.09204727  0.92632321  1
  Te  Te165  1  0.57460379  0.41614064  0.23992863  1
  Te  Te166  1  0.54677243  0.43316882  0.58531332  1
  Te  Te167  1  0.58160407  0.40958461  0.92009459  1
  Te  Te168  1  0.56767250  0.75675584  0.25527484  1
  Te  Te169  1  0.57680040  0.74335859  0.58209383  1
  Te  Te170  1  0.56847336  0.76715998  0.90533813  1
  Te  Te171  1  0.90532541  0.03078892  0.23015247  1
  Te  Te172  1  0.93977148  0.09083535  0.58399651  1
  Te  Te173  1  0.92016440  0.09140058  0.92690782  1
  Te  Te174  1  0.92015480  0.40314217  0.27455736  1
  Te  Te175  1  0.91566782  0.41098387  0.57526568  1
  Te  Te176  1  0.94227946  0.44493950  0.89222072  1
  Te  Te177  1  0.92528450  0.76145106  0.23780970  1
  Te  Te178  1  0.94197465  0.76091850  0.57987329  1
  Te  Te179  1  0.92349134  0.73424334  0.92906767  1
