# generated using pymatgen
data_In2Te3
_symmetry_space_group_name_H-M   'P 1'
_cell_length_a   18.94118396
_cell_length_b   18.94527208
_cell_length_c   18.93704418
_cell_angle_alpha   89.96550636
_cell_angle_beta   90.05069682
_cell_angle_gamma   90.01608025
_symmetry_Int_Tables_number   1
_chemical_formula_structural   In2Te3
_chemical_formula_sum   'In72 Te108'
_cell_volume   6795.47619332
_cell_formula_units_Z   36
loop_
 _symmetry_equiv_pos_site_id
 _symmetry_equiv_pos_as_xyz
  1  'x, y, z'
loop_
 _atom_site_type_symbol
 _atom_site_label
 _atom_site_symmetry_multiplicity
 _atom_site_fract_x
 _atom_site_fract_y
 _atom_site_fract_z
 _atom_site_occupancy
  In  In0  1  0.46898936  0.01287809  0.50330453  1
  In  In1  1  0.33025316  0.62552532  0.01993017  1
  In  In2  1  0.84728487  0.33148239  0.18982271  1
  In  In3  1  0.82628984  -0.00715225  0.47525857  1
  In  In4  1  0.47308812  0.64738049  0.84365118  1
  In  In5  1  0.63816696  -0.02366792  0.65567970  1
  In  In6  1  0.17398767  0.49614260  0.67398088  1
  In  In7  1  0.16598558  0.32436383  0.81079349  1
  In  In8  1  0.16704765  0.51146993  0.01741529  1
  In  In9  1  0.31423122  0.51382997  0.86078348  1
  In  In10  1  0.00396882  -0.02029952  0.64835177  1
  In  In11  1  0.64323358  0.18453883  0.12553205  1
  In  In12  1  0.47533463  0.32447451  0.52430770  1
  In  In13  1  0.50173936  0.32160184  0.90254286  1
  In  In14  1  0.46906924  0.51994103  0.66487390  1
  In  In15  1  0.00605911  0.66904221  0.64034010  1
  In  In16  1  0.02035870  0.16569465  0.17317768  1
  In  In17  1  0.83611748  0.83043008  0.32690875  1
  In  In18  1  0.83440782  0.34253552  0.51104442  1
  In  In19  1  0.85503664  0.50732745  0.62535325  1
  In  In20  1  0.32768613  0.85561882  0.83413443  1
  In  In21  1  0.19515375  -0.00154103  0.51401134  1
  In  In22  1  0.36011835  0.12886208  0.83948345  1
  In  In23  1  0.14740250  0.68544528  0.85332725  1
  In  In24  1  -0.00114226  0.36574098  0.34085969  1
  In  In25  1  0.83513354  0.50717814  0.01900852  1
  In  In26  1  0.15535128  0.00363424  0.83237006  1
  In  In27  1  0.51537211  0.49758070  0.32886757  1
  In  In28  1  0.63870526  0.64879812  0.68208918  1
  In  In29  1  0.34508429  0.15484277  0.15856648  1
  In  In30  1  0.85837532  0.85748459  -0.00467543  1
  In  In31  1  0.83658895  0.65393424  0.18189960  1
  In  In32  1  0.82046200  0.15608453  0.67746756  1
  In  In33  1  0.18762911  0.81243371  0.30762999  1
  In  In34  1  0.17268133  0.17195497  0.35492035  1
  In  In35  1  0.50632347  0.16688272  0.31133193  1
  In  In36  1  0.77244795  0.35002282  0.86505492  1
  In  In37  1  0.17857503  0.17477662  0.00941576  1
  In  In38  1  0.02477216  0.53419770  0.19117102  1
  In  In39  1  0.00894443  -0.00750822  0.30706400  1
  In  In40  1  0.66769065  0.31502525  0.70178087  1
  In  In41  1  0.00294814  0.35625645  0.00857203  1
  In  In42  1  0.83356202  0.67417070  0.83106568  1
  In  In43  1  0.49196834  0.64014096  0.16057587  1
  In  In44  1  0.68585976  0.68777623  0.00185171  1
  In  In45  1  0.02384130  0.31316962  0.66810091  1
  In  In46  1  0.01183133  0.80444592  0.16691559  1
  In  In47  1  0.48047349  0.81100695  0.01787817  1
  In  In48  1  0.33248603  0.35322409  0.04706215  1
  In  In49  1  0.64526805  0.17834710  0.86904121  1
  In  In50  1  0.16387306  0.34377691  0.47985255  1
  In  In51  1  -0.01870924  0.15058276  0.83704990  1
  In  In52  1  0.50210507  0.85166940  0.65475333  1
  In  In53  1  0.00498786  0.18878077  0.49749433  1
  In  In54  1  0.18337445  0.68664401  0.48802715  1
  In  In55  1  0.61857785  0.82236142  0.45147463  1
  In  In56  1  0.66081859  0.82133046  0.20375825  1
  In  In57  1  0.34428627  0.66475207  0.63920450  1
  In  In58  1  0.62779909  0.10378379  0.47098366  1
  In  In59  1  0.65011966  0.00613299  0.00285153  1
  In  In60  1  0.19825749  0.84252410  0.02335154  1
  In  In61  1  0.66144390  0.33257495  0.33742805  1
  In  In62  1  0.31532047  0.49798762  0.46377510  1
  In  In63  1  0.66309789  0.00405467  0.32475241  1
  In  In64  1  0.63691887  0.84942460  0.80203012  1
  In  In65  1  0.33701380  0.00542601  0.30626299  1
  In  In66  1  0.66561676  0.48192090  0.51096179  1
  In  In67  1  0.81893216  0.02703830  0.85970890  1
  In  In68  1  0.85505916  0.81897735  0.63918385  1
  In  In69  1  0.68728225  0.50081378  0.18775299  1
  In  In70  1  -0.00093382  0.84247931  0.81528364  1
  In  In71  1  0.33399616  0.30936713  0.68851768  1
  Te  Te72  1  0.08740405  0.08061086  0.07373779  1
  Te  Te73  1  0.07698784  0.07535586  0.42674570  1
  Te  Te74  1  0.07220084  0.08514992  0.73363715  1
  Te  Te75  1  0.09015466  0.42004959  0.11434463  1
  Te  Te76  1  0.10598224  0.45566217  0.39620119  1
  Te  Te77  1  0.06921219  0.42961369  0.75983487  1
  Te  Te78  1  0.11888542  0.73731674  0.08817700  1
  Te  Te79  1  0.08691290  0.75239717  0.39797392  1
  Te  Te80  1  0.09378635  0.75877998  0.73171720  1
  Te  Te81  1  0.40703041  0.04181965  0.08394025  1
  Te  Te82  1  0.40238689  0.10537125  0.40172238  1
  Te  Te83  1  0.36699801  0.02663661  0.73136829  1
  Te  Te84  1  0.43085321  0.45176607  0.09710774  1
  Te  Te85  1  0.42006965  0.40222443  0.40713660  1
  Te  Te86  1  0.39405736  0.42748402  0.76150347  1
  Te  Te87  1  0.37931756  0.74346787  0.11198082  1
  Te  Te88  1  0.48129590  0.79130547  0.40214934  1
  Te  Te89  1  0.41997256  0.75266295  0.74847274  1
  Te  Te90  1  0.74619685  0.09180049  0.07350774  1
  Te  Te91  1  0.75956259  0.10300950  0.39697560  1
  Te  Te92  1  0.71915966  0.07180526  0.75244686  1
  Te  Te93  1  0.75470266  0.40276798  0.09193801  1
  Te  Te94  1  0.76007840  0.42516294  0.40618018  1
  Te  Te95  1  0.76704032  0.42332814  0.72983769  1
  Te  Te96  1  0.77483317  0.76489513  0.09672342  1
  Te  Te97  1  0.73326940  0.74746089  0.39461197  1
  Te  Te98  1  0.74612418  0.75616982  0.73661862  1
  Te  Te99  1  0.08558230  0.26574719  0.26915109  1
  Te  Te100  1  0.12173102  0.23698011  0.58147148  1
  Te  Te101  1  0.07293286  0.24987599  0.91220540  1
  Te  Te102  1  0.11809364  0.57850127  0.29803737  1
  Te  Te103  1  0.10567553  0.57965650  0.56892910  1
  Te  Te104  1  0.07999143  0.57225709  0.91480711  1
  Te  Te105  1  0.10550961  0.91293850  0.22453993  1
  Te  Te106  1  0.09928046  0.90181059  0.57181321  1
  Te  Te107  1  0.09324732  0.89774597  0.92105134  1
  Te  Te108  1  0.42982781  0.25586587  0.22433670  1
  Te  Te109  1  0.38577276  0.21723001  0.58163751  1
  Te  Te110  1  0.37601029  0.24819760  0.93757767  1
  Te  Te111  1  0.40593042  0.58318021  0.27006695  1
  Te  Te112  1  0.42037284  0.58490838  0.53567926  1
  Te  Te113  1  0.43893521  0.54099059  0.94882849  1
  Te  Te114  1  0.40604597  0.93191010  0.19671767  1
  Te  Te115  1  0.39521729  0.89937822  0.56316109  1
  Te  Te116  1  0.41337395  0.91498085  0.93792291  1
  Te  Te117  1  0.73359864  0.24329120  0.23901629  1
  Te  Te118  1  0.74076414  0.24710869  0.58545722  1
  Te  Te119  1  0.77599125  0.21471309  0.92456741  1
  Te  Te120  1  0.73221756  0.61003419  0.27710155  1
  Te  Te121  1  0.73943669  0.60193323  0.57869200  1
  Te  Te122  1  0.74802776  0.58117923  0.91381427  1
  Te  Te123  1  0.76273569  0.92948951  0.23754909  1
  Te  Te124  1  0.74724983  0.90708590  0.57219867  1
  Te  Te125  1  0.73820546  0.90199195  0.90989064  1
  Te  Te126  1  0.23719824  0.26242476  0.11866105  1
  Te  Te127  1  0.26386167  0.28071736  0.39359490  1
  Te  Te128  1  0.24865963  0.20913676  0.76290106  1
  Te  Te129  1  0.22974536  0.59338291  0.12786050  1
  Te  Te130  1  0.25585308  0.60760629  0.37983295  1
  Te  Te131  1  0.25426227  0.60334066  0.74697043  1
  Te  Te132  1  0.28677891  0.93865862  0.09395946  1
  Te  Te133  1  0.25692380  0.91889116  0.40025886  1
  Te  Te134  1  0.24559475  0.93118539  0.73375189  1
  Te  Te135  1  0.56771284  0.27775881  0.03716254  1
  Te  Te136  1  0.58182949  0.25016028  0.43741144  1
  Te  Te137  1  0.55076150  0.25042144  0.77239404  1
  Te  Te138  1  0.61068657  0.58461515  0.08337985  1
  Te  Te139  1  0.58566944  0.57575604  0.43165583  1
  Te  Te140  1  0.57282460  0.55235467  0.77625109  1
  Te  Te141  1  0.59138221  0.88974000  0.08663961  1
  Te  Te142  1  0.53570544  0.93489170  0.37946762  1
  Te  Te143  1  0.53231483  0.95304307  0.76689427  1
  Te  Te144  1  0.92432139  0.25358039  0.08558287  1
  Te  Te145  1  0.90932173  0.25996086  0.40548640  1
  Te  Te146  1  0.90983956  0.25477768  0.74983804  1
  Te  Te147  1  0.93761664  0.59809451  0.08136816  1
  Te  Te148  1  0.89012014  0.58203661  0.50200333  1
  Te  Te149  1  0.92072980  0.59289195  0.73907341  1
  Te  Te150  1  0.93081395  0.91380700  0.10830163  1
  Te  Te151  1  0.93380872  0.91003810  0.41339878  1
  Te  Te152  1  0.89269257  0.92866800  0.74791814  1
  Te  Te153  1  0.23042139  0.09139469  0.24139712  1
  Te  Te154  1  0.28710575  0.09542741  0.57354669  1
  Te  Te155  1  0.25226338  0.06757630  0.92918690  1
  Te  Te156  1  0.31266649  0.46946280  0.18398747  1
  Te  Te157  1  0.26549449  0.41211124  0.58745291  1
  Te  Te158  1  0.23397398  0.40028230  0.92505592  1
  Te  Te159  1  0.30779913  0.75200209  0.25041686  1
  Te  Te160  1  0.28448197  0.77198524  0.55782886  1
  Te  Te161  1  0.27308718  0.73524006  0.92188545  1
  Te  Te162  1  0.58100686  0.07599639  0.21847949  1
  Te  Te163  1  0.55699217  0.09518279  0.60330548  1
  Te  Te164  1  0.55041942  0.08602516  0.93100227  1
  Te  Te165  1  0.57954025  0.40169401  0.23005592  1
  Te  Te166  1  0.56873243  0.40956942  0.61082295  1
  Te  Te167  1  0.63604046  0.38304651  0.92755141  1
  Te  Te168  1  0.54497918  0.74523584  0.25733122  1
  Te  Te169  1  0.57864583  0.74411615  0.58196450  1
  Te  Te170  1  0.57853432  0.74282730  0.90572509  1
  Te  Te171  1  0.92096534  0.09750373  0.25778188  1
  Te  Te172  1  0.90899034  0.08728170  0.57446212  1
  Te  Te173  1  0.93764713  0.05473578  0.93984237  1
  Te  Te174  1  0.91067317  0.45444793  0.25538935  1
  Te  Te175  1  0.95976083  0.40638732  0.56814437  1
  Te  Te176  1  0.90425478  0.42094127  0.91499465  1
  Te  Te177  1  0.93410224  0.72627296  0.27352729  1
  Te  Te178  1  0.92130421  0.73590874  0.53527455  1
  Te  Te179  1  0.93204044  0.74975213  0.91773622  1
