# generated using pymatgen
data_In2Te3
_symmetry_space_group_name_H-M   'P 1'
_cell_length_a   18.77589137
_cell_length_b   18.78051211
_cell_length_c   18.78508812
_cell_angle_alpha   90.00903513
_cell_angle_beta   90.04345328
_cell_angle_gamma   90.02252415
_symmetry_Int_Tables_number   1
_chemical_formula_structural   In2Te3
_chemical_formula_sum   'In72 Te108'
_cell_volume   6624.01134100
_cell_formula_units_Z   36
loop_
 _symmetry_equiv_pos_site_id
 _symmetry_equiv_pos_as_xyz
  1  'x, y, z'
loop_
 _atom_site_type_symbol
 _atom_site_label
 _atom_site_symmetry_multiplicity
 _atom_site_fract_x
 _atom_site_fract_y
 _atom_site_fract_z
 _atom_site_occupancy
  In  In0  1  0.66050834  0.12432403  0.51894967  1
  In  In1  1  0.35157322  -0.01964042  0.65612116  1
  In  In2  1  0.82082789  0.17095078  0.36201256  1
  In  In3  1  0.38773054  0.84573650  0.16247150  1
  In  In4  1  0.00589793  0.18855826  0.16144975  1
  In  In5  1  0.82550459  0.65527918  0.15087817  1
  In  In6  1  0.80607205  -0.01320941  0.19122872  1
  In  In7  1  0.50149870  0.51395927  -0.00126325  1
  In  In8  1  0.14768614  0.32637139  0.83649150  1
  In  In9  1  0.15961167  0.81934117  0.33388396  1
  In  In10  1  0.51050025  -0.02461017  0.80973724  1
  In  In11  1  0.35246278  0.02363474  0.33261213  1
  In  In12  1  0.35788197  0.67849400  0.34073952  1
  In  In13  1  0.14801627  0.16715089  0.32454236  1
  In  In14  1  -0.01314365  0.34462566  0.66094127  1
  In  In15  1  0.81855485  0.82851081  0.35634272  1
  In  In16  1  0.32754074  -0.00352481  -0.00075154  1
  In  In17  1  0.32658182  0.48995832  0.82138213  1
  In  In18  1  0.00797745  0.33941175  0.01077171  1
  In  In19  1  -0.03822799  0.65782242  0.36395518  1
  In  In20  1  0.65989620  0.32996896  0.67145703  1
  In  In21  1  0.82628760  0.82642583  -0.01954480  1
  In  In22  1  0.52098602  0.15406040  -0.01377688  1
  In  In23  1  0.66508043  0.50949068  0.81316868  1
  In  In24  1  0.82539983  0.14997091  0.00166437  1
  In  In25  1  0.85111038  0.49563584  0.01303695  1
  In  In26  1  0.33903451  0.34713640  0.34785039  1
  In  In27  1  0.83119839  0.15308799  0.66968012  1
  In  In28  1  0.53456135  0.65396584  0.52723028  1
  In  In29  1  0.68476428  0.33456263  0.01310541  1
  In  In30  1  0.36873728  0.16654340  0.48581280  1
  In  In31  1  0.15669297  0.16096689  0.66912574  1
  In  In32  1  0.66738125  0.50697770  0.19755810  1
  In  In33  1  0.81812904  -0.01355026  0.81480111  1
  In  In34  1  0.35288327  0.33721221  0.66192818  1
  In  In35  1  0.48187868  0.14717353  0.33427273  1
  In  In36  1  -0.02516814  -0.01362589  0.33937972  1
  In  In37  1  0.16659769  -0.00842724  0.50246805  1
  In  In38  1  0.34405828  0.51676070  0.19590398  1
  In  In39  1  0.50206545  0.32303075  0.81519996  1
  In  In40  1  0.17281895  0.49110647  0.65176992  1
  In  In41  1  0.15865346  0.67477650  0.48647707  1
  In  In42  1  0.11621489  0.52439084  -0.01823192  1
  In  In43  1  0.00497087  -0.00204617  -0.01131555  1
  In  In44  1  0.51696456  -0.00517459  0.15584556  1
  In  In45  1  0.83807585  0.34675546  0.49017366  1
  In  In46  1  0.36679328  0.85165919  0.51978188  1
  In  In47  1  0.18338637  0.17018314  -0.00074576  1
  In  In48  1  -0.01837872  -0.00030438  0.66955677  1
  In  In49  1  0.35120570  0.65300961  0.65881297  1
  In  In50  1  0.16817736  0.65408757  0.17064522  1
  In  In51  1  0.33629116  0.84743845  0.83233747  1
  In  In52  1  0.65797431  0.84893536  0.49674013  1
  In  In53  1  0.52382231  0.67067199  0.82636194  1
  In  In54  1  0.14267064  0.34863715  0.48887807  1
  In  In55  1  0.70405354  0.50779697  0.49076278  1
  In  In56  1  0.82708607  0.32988000  0.84355228  1
  In  In57  1  0.00970280  0.83440780  0.16082067  1
  In  In58  1  0.32300811  0.68813585  0.02048680  1
  In  In59  1  0.33282572  0.14314195  0.84579791  1
  In  In60  1  -0.01754560  0.66530978  0.65928302  1
  In  In61  1  0.14687417  0.49795001  0.33925943  1
  In  In62  1  0.16931874  0.84386100  -0.01138865  1
  In  In63  1  0.68007435  0.17120340  0.16085187  1
  In  In64  1  0.15175155  0.81796206  0.68180593  1
  In  In65  1  0.66773749  0.34307472  0.34534616  1
  In  In66  1  0.81171750  0.83493743  0.65634753  1
  In  In67  1  0.50221715  0.34397732  0.48465132  1
  In  In68  1  0.32018591  0.18808390  0.17504892  1
  In  In69  1  0.67224117  0.68829498  -0.00304767  1
  In  In70  1  0.32556965  0.33802272  0.02639644  1
  In  In71  1  0.83864339  0.67884917  0.81764686  1
  Te  Te72  1  0.08815331  0.08294188  0.08512878  1
  Te  Te73  1  0.07032749  0.07885218  0.42173618  1
  Te  Te74  1  0.07673668  0.07571643  0.75624736  1
  Te  Te75  1  0.07727449  0.43619329  0.10521930  1
  Te  Te76  1  0.04152383  0.42854887  0.41738974  1
  Te  Te77  1  0.07578515  0.43124157  0.75378977  1
  Te  Te78  1  0.08919662  0.74074978  0.07259517  1
  Te  Te79  1  0.05170796  0.76621283  0.42762628  1
  Te  Te80  1  0.06992043  0.72699048  0.76948401  1
  Te  Te81  1  0.41097308  0.09398911  0.08959425  1
  Te  Te82  1  0.45957673  0.04354017  0.45334384  1
  Te  Te83  1  0.42625017  0.08717277  0.74360106  1
  Te  Te84  1  0.42711189  0.42478536  0.09816617  1
  Te  Te85  1  0.42969732  0.44794209  0.40761409  1
  Te  Te86  1  0.44181840  0.43837055  0.73488425  1
  Te  Te87  1  0.45034917  0.74799399  0.06508327  1
  Te  Te88  1  0.44855291  0.75183781  0.43847086  1
  Te  Te89  1  0.42173385  0.75658232  0.74378273  1
  Te  Te90  1  0.73105532  0.05551771  0.07464688  1
  Te  Te91  1  0.75019238  0.05549986  0.42130492  1
  Te  Te92  1  0.72637746  0.07075518  0.73313450  1
  Te  Te93  1  0.76248059  0.41977331  0.11198964  1
  Te  Te94  1  0.78497788  0.43533593  0.37613023  1
  Te  Te95  1  0.76380486  0.42083501  0.73735873  1
  Te  Te96  1  0.74532800  0.77599399  0.10325602  1
  Te  Te97  1  0.71280482  0.73502741  0.41144271  1
  Te  Te98  1  0.72771205  0.75121602  0.74952682  1
  Te  Te99  1  0.06255522  0.28013870  0.27001971  1
  Te  Te100  1  0.07000878  0.24577224  0.57676715  1
  Te  Te101  1  0.06691351  0.22892871  0.91784037  1
  Te  Te102  1  0.05954233  0.59602600  0.26028698  1
  Te  Te103  1  0.07761842  0.57824148  0.57033387  1
  Te  Te104  1  0.06056984  0.62133465  0.88779081  1
  Te  Te105  1  0.08843142  0.92782444  0.25236934  1
  Te  Te106  1  0.07276492  0.90283757  0.58236074  1
  Te  Te107  1  0.06918724  0.90155854  0.89728026  1
  Te  Te108  1  0.42582994  0.26499964  0.25156562  1
  Te  Te109  1  0.44935492  0.24402527  0.59067526  1
  Te  Te110  1  0.40792599  0.25392960  0.92574571  1
  Te  Te111  1  0.44791921  0.60779200  0.24618495  1
  Te  Te112  1  0.41597972  0.56821315  0.55837050  1
  Te  Te113  1  0.40769751  0.59074973  0.90556709  1
  Te  Te114  1  0.45110061  0.90990745  0.29171497  1
  Te  Te115  1  0.48399156  0.91202346  0.61019855  1
  Te  Te116  1  0.43210768  0.91228009  0.93164056  1
  Te  Te117  1  0.76148286  0.26007303  0.25322241  1
  Te  Te118  1  0.74611690  0.25086501  0.56983810  1
  Te  Te119  1  0.73131161  0.23097078  0.91047142  1
  Te  Te120  1  0.74668898  0.61209112  0.26823289  1
  Te  Te121  1  0.77463627  0.60886607  0.57794986  1
  Te  Te122  1  0.74848162  0.57462237  0.92344135  1
  Te  Te123  1  0.71791663  0.90568120  0.27646109  1
  Te  Te124  1  0.75333782  0.94142486  0.56815450  1
  Te  Te125  1  0.72862834  0.90941152  0.90736015  1
  Te  Te126  1  0.21329975  0.27418235  0.10772730  1
  Te  Te127  1  0.24731267  0.23860224  0.41993025  1
  Te  Te128  1  0.25887038  0.25553633  0.75399997  1
  Te  Te129  1  0.25046237  0.56506914  0.07509826  1
  Te  Te130  1  0.25362405  0.58584473  0.40842519  1
  Te  Te131  1  0.24076773  0.59149608  0.74554491  1
  Te  Te132  1  0.25460904  0.90856746  0.09784547  1
  Te  Te133  1  0.26229691  0.91247501  0.41210098  1
  Te  Te134  1  0.23926029  0.92772999  0.74558248  1
  Te  Te135  1  0.57568017  0.25581779  0.08675012  1
  Te  Te136  1  0.58989752  0.23029850  0.41866126  1
  Te  Te137  1  0.59683260  0.22700562  0.75782960  1
  Te  Te138  1  0.59618681  0.59155073  0.08794294  1
  Te  Te139  1  0.61440223  0.59965453  0.41082852  1
  Te  Te140  1  0.58658963  0.59021887  0.71790868  1
  Te  Te141  1  0.59559078  0.88159537  0.10314025  1
  Te  Te142  1  0.56006338  0.92760916  0.41180046  1
  Te  Te143  1  0.58759149  0.88127085  0.72175027  1
  Te  Te144  1  0.89485584  0.25972577  0.08089930  1
  Te  Te145  1  0.92909578  0.25540449  0.41529667  1
  Te  Te146  1  0.91927934  0.24498659  0.75553971  1
  Te  Te147  1  0.93994445  0.59145506  0.08405165  1
  Te  Te148  1  0.88027836  0.58335693  0.46526487  1
  Te  Te149  1  0.90133246  0.56999083  0.74010752  1
  Te  Te150  1  0.90886762  0.92303001  0.08499444  1
  Te  Te151  1  0.89693767  0.91955407  0.44550652  1
  Te  Te152  1  0.91806246  0.88795709  0.75357992  1
  Te  Te153  1  0.23996790  0.07693524  0.24190161  1
  Te  Te154  1  0.26216146  0.08856159  0.57900807  1
  Te  Te155  1  0.22377946  0.05613356  0.90418492  1
  Te  Te156  1  0.24208496  0.41601910  0.25222247  1
  Te  Te157  1  0.26570962  0.41087830  0.56092242  1
  Te  Te158  1  0.23742842  0.41652808  0.92366647  1
  Te  Te159  1  0.26369042  0.75365258  0.23882016  1
  Te  Te160  1  0.25216628  0.75698770  0.57806276  1
  Te  Te161  1  0.24743266  0.74280023  0.90129471  1
  Te  Te162  1  0.59628686  0.08221344  0.25274801  1
  Te  Te163  1  0.56613722  0.04764146  0.60150992  1
  Te  Te164  1  0.59056728  0.04599453  0.91599769  1
  Te  Te165  1  0.57048499  0.41528630  0.26112542  1
  Te  Te166  1  0.59804562  0.42602392  0.57073327  1
  Te  Te167  1  0.58648429  0.41314950  0.91670928  1
  Te  Te168  1  0.53288520  0.78971655  0.20761362  1
  Te  Te169  1  0.61068235  0.75588229  0.61024694  1
  Te  Te170  1  0.59615345  0.77539986  0.90324571  1
  Te  Te171  1  0.90988862  0.09003240  0.24008072  1
  Te  Te172  1  0.91441574  0.08445267  0.56920465  1
  Te  Te173  1  0.91024021  0.07865811  0.89897689  1
  Te  Te174  1  0.96977586  0.38432508  0.19720316  1
  Te  Te175  1  0.91057067  0.44272158  0.57951349  1
  Te  Te176  1  0.93121718  0.42270629  0.90590732  1
  Te  Te177  1  0.91564674  0.75917200  0.25314381  1
  Te  Te178  1  0.87930640  0.73099803  0.56681551  1
  Te  Te179  1  0.92354269  0.72407874  0.93311438  1
