# generated using pymatgen
data_In2Te3
_symmetry_space_group_name_H-M   'P 1'
_cell_length_a   18.99873557
_cell_length_b   19.03254080
_cell_length_c   18.99993592
_cell_angle_alpha   89.97341317
_cell_angle_beta   90.02312837
_cell_angle_gamma   89.96270706
_symmetry_Int_Tables_number   1
_chemical_formula_structural   In2Te3
_chemical_formula_sum   'In72 Te108'
_cell_volume   6870.26405848
_cell_formula_units_Z   36
loop_
 _symmetry_equiv_pos_site_id
 _symmetry_equiv_pos_as_xyz
  1  'x, y, z'
loop_
 _atom_site_type_symbol
 _atom_site_label
 _atom_site_symmetry_multiplicity
 _atom_site_fract_x
 _atom_site_fract_y
 _atom_site_fract_z
 _atom_site_occupancy
  In  In0  1  0.34619146  0.36621813  0.66393797  1
  In  In1  1  0.82423860  0.81111047  0.34065265  1
  In  In2  1  0.16651781  0.82921470  0.67126883  1
  In  In3  1  0.66810808  0.48874976  0.49138988  1
  In  In4  1  0.18507253  0.00713270  0.85269391  1
  In  In5  1  0.34374325  0.16792493  0.84036376  1
  In  In6  1  -0.00342498  0.82638692  0.50028290  1
  In  In7  1  0.32018370  0.83819917  0.15410129  1
  In  In8  1  0.51350357  0.18689886  0.70254541  1
  In  In9  1  0.19260539  0.16003884  0.65305480  1
  In  In10  1  0.13051101  0.33881477  0.48550398  1
  In  In11  1  0.69449879  0.47251492  0.16059724  1
  In  In12  1  0.49325109  0.01349317  0.50798338  1
  In  In13  1  0.51971265  0.84449621  -0.02061679  1
  In  In14  1  0.82962922  0.18032360  0.34732337  1
  In  In15  1  0.50073945  -0.02163733  0.15550201  1
  In  In16  1  0.52710134  0.66774075  0.17571027  1
  In  In17  1  0.34919593  0.49158199  0.15863982  1
  In  In18  1  -0.01388961  0.66490681  0.64266324  1
  In  In19  1  0.54241642  0.34325948  0.85486556  1
  In  In20  1  0.00685542  0.17174891  0.48710946  1
  In  In21  1  0.84950438  -0.00807199  0.49758328  1
  In  In22  1  0.52588245  0.02979629  0.84752035  1
  In  In23  1  0.32058175  0.69205126  0.34454876  1
  In  In24  1  0.48796715  0.81645928  0.34133049  1
  In  In25  1  0.67105485  -0.00974394  0.34132094  1
  In  In26  1  0.16561521  0.01110019  0.16095544  1
  In  In27  1  0.35164976  0.82801722  0.81993120  1
  In  In28  1  0.20653577  0.49254535  0.67779314  1
  In  In29  1  0.78643308  0.01628555  0.84728112  1
  In  In30  1  -0.01868973  0.47761113  0.83564119  1
  In  In31  1  -0.00399001  0.17386264  0.83141786  1
  In  In32  1  0.13391308  0.63918817  0.15877642  1
  In  In33  1  0.15207078  0.32634401  0.85274124  1
  In  In34  1  0.67536557  0.63122080  0.00941896  1
  In  In35  1  0.15311932  0.14280929  0.31923242  1
  In  In36  1  0.84175761  0.18466305  0.00420114  1
  In  In37  1  0.83090557  0.47128346  0.65307666  1
  In  In38  1  0.81290129  0.21443176  0.64157558  1
  In  In39  1  0.17602223  0.48389270  0.02032989  1
  In  In40  1  0.51453284  0.34279690  0.48814311  1
  In  In41  1  -0.01165393  0.81285628  0.17046887  1
  In  In42  1  0.14389361  0.67575646  0.82671098  1
  In  In43  1  -0.01125849  0.65189494  -0.00330691  1
  In  In44  1  0.15428690  0.84029913  0.34346211  1
  In  In45  1  0.65204182  0.01279627  0.68100697  1
  In  In46  1  0.52385273  0.33857451  0.15880235  1
  In  In47  1  0.52040845  0.50077697  0.31727605  1
  In  In48  1  0.82274247  0.49749457  0.34384628  1
  In  In49  1  0.80411195  0.84298128  0.67621103  1
  In  In50  1  -0.03174057  0.49844841  0.16958050  1
  In  In51  1  0.65982014  0.82951020  0.13757664  1
  In  In52  1  0.33860286  0.16559884  0.49997744  1
  In  In53  1  -0.01944387  0.50397427  0.49218330  1
  In  In54  1  0.50717208  0.19217166  0.33787944  1
  In  In55  1  0.51080934  0.63171526  0.82590220  1
  In  In56  1  0.67958515  0.65023656  0.66783978  1
  In  In57  1  0.33261879  0.03352642  0.00744911  1
  In  In58  1  0.32874653  0.33817486  0.33292799  1
  In  In59  1  0.01312171  -0.01462906  0.00853408  1
  In  In60  1  0.68005749  0.17028992  0.17637118  1
  In  In61  1  0.17818083  0.31112313  0.15745460  1
  In  In62  1  0.86137880  0.00176532  0.16869322  1
  In  In63  1  0.34102779  0.83465652  0.49375148  1
  In  In64  1  0.35364618  0.68398269  -0.02327276  1
  In  In65  1  0.31527128  0.49849542  0.85511460  1
  In  In66  1  -0.01119355  0.18199415  0.18500228  1
  In  In67  1  0.54155475  0.81761362  0.65693953  1
  In  In68  1  0.81905369  0.65623197  0.85190396  1
  In  In69  1  0.17352470  0.66290415  0.49323550  1
  In  In70  1  0.81167033  0.33254668  0.84420183  1
  In  In71  1  -0.00655436  -0.01028863  0.66838613  1
  Te  Te72  1  0.07066713  0.10183832  0.08535570  1
  Te  Te73  1  0.08982281  0.06909924  0.42743741  1
  Te  Te74  1  0.08960992  0.07941019  0.74830960  1
  Te  Te75  1  0.07528499  0.40811753  0.09751344  1
  Te  Te76  1  0.07655326  0.44283393  0.39809443  1
  Te  Te77  1  0.09067930  0.41655592  0.74949780  1
  Te  Te78  1  0.08277343  0.74692677  0.06832494  1
  Te  Te79  1  0.06964307  0.73246219  0.40722627  1
  Te  Te80  1  0.05129320  0.76099021  0.74153879  1
  Te  Te81  1  0.43537214  0.09190019  0.09191328  1
  Te  Te82  1  0.41767145  0.08613929  0.39827458  1
  Te  Te83  1  0.42093505  0.07611555  0.74763920  1
  Te  Te84  1  0.42090162  0.40006725  0.07270273  1
  Te  Te85  1  0.42061387  0.43203638  0.40805242  1
  Te  Te86  1  0.41796821  0.40757151  0.79046707  1
  Te  Te87  1  0.43601163  0.76293368  0.08631740  1
  Te  Te88  1  0.43211660  0.72040374  0.44389915  1
  Te  Te89  1  0.44049634  0.73674251  0.73906563  1
  Te  Te90  1  0.76491936  0.08207998  0.08584443  1
  Te  Te91  1  0.74707932  0.08382166  0.43160389  1
  Te  Te92  1  0.74561622  0.11435945  0.74011062  1
  Te  Te93  1  0.74937051  0.40441861  0.04154954  1
  Te  Te94  1  0.77265151  0.38992314  0.44495725  1
  Te  Te95  1  0.73185467  0.40597002  0.74051650  1
  Te  Te96  1  0.75231036  0.73674255  0.07540619  1
  Te  Te97  1  0.73618738  0.78711989  0.45260457  1
  Te  Te98  1  0.73059951  0.75042869  0.76943300  1
  Te  Te99  1  0.08236982  0.26545078  0.26822005  1
  Te  Te100  1  0.08271885  0.24618266  0.59694032  1
  Te  Te101  1  0.04197163  0.27084964  0.93056213  1
  Te  Te102  1  0.06222762  0.56697899  0.26160906  1
  Te  Te103  1  0.10139442  0.57880427  0.59851637  1
  Te  Te104  1  0.09435239  0.55903191  0.91080661  1
  Te  Te105  1  0.07559743  0.91727159  0.23908079  1
  Te  Te106  1  0.08969648  0.91888428  0.57514728  1
  Te  Te107  1  0.08272361  0.91601444  0.90086219  1
  Te  Te108  1  0.41482043  0.25917726  0.23947838  1
  Te  Te109  1  0.42518512  0.25467403  0.58708222  1
  Te  Te110  1  0.45676163  0.23088009  0.91338542  1
  Te  Te111  1  0.41133225  0.60325440  0.24948320  1
  Te  Te112  1  0.34820973  0.51270805  0.62785350  1
  Te  Te113  1  0.43006844  0.56234120  0.93422578  1
  Te  Te114  1  0.40683519  0.91129259  0.25388627  1
  Te  Te115  1  0.43344137  0.90457896  0.59427798  1
  Te  Te116  1  0.41097382  0.93105981  0.91772642  1
  Te  Te117  1  0.77282855  0.26733572  0.24033927  1
  Te  Te118  1  0.72465817  0.28657115  0.54802241  1
  Te  Te119  1  0.72980126  0.22541147  0.91287046  1
  Te  Te120  1  0.72714935  0.57732645  0.26059541  1
  Te  Te121  1  0.76778905  0.57775765  0.56770921  1
  Te  Te122  1  0.72069680  0.55082401  0.89097537  1
  Te  Te123  1  0.74963327  0.91859003  0.23409497  1
  Te  Te124  1  0.73370935  0.93487008  0.57938835  1
  Te  Te125  1  0.70905460  0.92434489  0.92636554  1
  Te  Te126  1  0.24749992  0.24133582  0.05048067  1
  Te  Te127  1  0.24104246  0.24595781  0.41687670  1
  Te  Te128  1  0.25554875  0.25716552  0.75153903  1
  Te  Te129  1  0.26235194  0.59873220  0.07208245  1
  Te  Te130  1  0.25340220  0.57878434  0.40503506  1
  Te  Te131  1  0.26412255  0.60946151  0.76490594  1
  Te  Te132  1  0.24031005  0.92408590  0.06069416  1
  Te  Te133  1  0.26035727  0.91813147  0.40525781  1
  Te  Te134  1  0.25764495  0.92278292  0.74778292  1
  Te  Te135  1  0.59812626  0.24108606  0.07748906  1
  Te  Te136  1  0.61176268  0.25021523  0.42462172  1
  Te  Te137  1  0.60875846  0.29649577  0.72935972  1
  Te  Te138  1  0.57750882  0.55361923  0.09571791  1
  Te  Te139  1  0.61884766  0.58552597  0.38775914  1
  Te  Te140  1  0.57235844  0.55836138  0.71351082  1
  Te  Te141  1  0.61019774  0.94964022  0.04472604  1
  Te  Te142  1  0.57116104  0.91376463  0.42432780  1
  Te  Te143  1  0.58431336  0.91306112  0.77087249  1
  Te  Te144  1  0.89422194  0.27026946  0.11287255  1
  Te  Te145  1  0.91260339  0.26854841  0.43144962  1
  Te  Te146  1  0.90992466  0.26602857  0.74764076  1
  Te  Te147  1  0.89058943  0.57272272  0.06925202  1
  Te  Te148  1  0.89197551  0.59851917  0.42603925  1
  Te  Te149  1  0.91058551  0.58194652  0.74636685  1
  Te  Te150  1  0.90699303  0.89740064  0.07029704  1
  Te  Te151  1  0.92559540  0.91075739  0.39674238  1
  Te  Te152  1  0.88936941  0.93314494  0.76129346  1
  Te  Te153  1  0.25955436  0.09508604  0.23287570  1
  Te  Te154  1  0.27293737  0.06325106  0.58132033  1
  Te  Te155  1  0.22761501  0.13068362  0.94118910  1
  Te  Te156  1  0.24397458  0.42415260  0.24180867  1
  Te  Te157  1  0.24854780  0.40587729  0.54994083  1
  Te  Te158  1  0.26089684  0.38382906  0.94360290  1
  Te  Te159  1  0.22656269  0.74948313  0.23361458  1
  Te  Te160  1  0.25920643  0.74567276  0.58670345  1
  Te  Te161  1  0.24564297  0.76187545  0.90714449  1
  Te  Te162  1  0.57920396  0.07578032  0.25420071  1
  Te  Te163  1  0.57918926  0.10757014  0.58825301  1
  Te  Te164  1  0.59723768  0.14127519  0.91008944  1
  Te  Te165  1  0.61219050  0.39435242  0.26720424  1
  Te  Te166  1  0.55952928  0.44649997  0.58342990  1
  Te  Te167  1  0.63509770  0.42458854  0.94048830  1
  Te  Te168  1  0.60559386  0.76132702  0.26299618  1
  Te  Te169  1  0.63009218  0.74553648  0.55999597  1
  Te  Te170  1  0.58503244  0.72409092  0.92251586  1
  Te  Te171  1  0.92486772  0.08267659  0.27856854  1
  Te  Te172  1  0.90881543  0.09398329  0.59599055  1
  Te  Te173  1  0.91767736  0.07626655  0.91862947  1
  Te  Te174  1  0.88892332  0.40330564  0.25087407  1
  Te  Te175  1  0.94075892  0.40137307  0.58814825  1
  Te  Te176  1  0.88759577  0.42232915  0.93668463  1
  Te  Te177  1  0.89837207  0.72817080  0.24707620  1
  Te  Te178  1  0.88640481  0.75914313  0.57813924  1
  Te  Te179  1  0.91774040  0.74566642  0.90985935  1
