# generated using pymatgen
data_In2Te3
_symmetry_space_group_name_H-M   'P 1'
_cell_length_a   18.92461317
_cell_length_b   18.92735238
_cell_length_c   18.93514205
_cell_angle_alpha   89.95522765
_cell_angle_beta   90.05609429
_cell_angle_gamma   90.02064368
_symmetry_Int_Tables_number   1
_chemical_formula_structural   In2Te3
_chemical_formula_sum   'In72 Te108'
_cell_volume   6782.42620983
_cell_formula_units_Z   36
loop_
 _symmetry_equiv_pos_site_id
 _symmetry_equiv_pos_as_xyz
  1  'x, y, z'
loop_
 _atom_site_type_symbol
 _atom_site_label
 _atom_site_symmetry_multiplicity
 _atom_site_fract_x
 _atom_site_fract_y
 _atom_site_fract_z
 _atom_site_occupancy
  In  In0  1  0.84570063  0.82317404  0.63382684  1
  In  In1  1  0.66743468  0.17955579  0.82168319  1
  In  In2  1  0.65202420  0.48884295  0.17423002  1
  In  In3  1  0.02324560  0.81381238  0.81917994  1
  In  In4  1  0.33064708  0.78245597  0.18502454  1
  In  In5  1  0.46480653  0.36503348  0.50024729  1
  In  In6  1  0.67935550  0.19292543  0.49157288  1
  In  In7  1  0.66787868  0.66155532  -0.00947227  1
  In  In8  1  0.45525091  0.61790598  0.18546341  1
  In  In9  1  0.66290876  0.50325901  0.80505233  1
  In  In10  1  0.67246021  -0.01032895  0.68487910  1
  In  In11  1  0.31238852  0.01265010  0.01222600  1
  In  In12  1  -0.01127706  0.14669347  0.14991149  1
  In  In13  1  0.18163675  0.50536910  -0.03382422  1
  In  In14  1  0.64610015  0.83477029  0.49978987  1
  In  In15  1  -0.00000802  0.82815531  0.17952077  1
  In  In16  1  0.15206384  0.82012493  0.00932698  1
  In  In17  1  0.53401002  -0.00006579  0.83956870  1
  In  In18  1  0.62960766  0.35441998  0.35624010  1
  In  In19  1  0.14671166  -0.00884175  0.17297196  1
  In  In20  1  0.13819467  0.16064152  0.66054337  1
  In  In21  1  0.15652491  0.32809892  0.14835107  1
  In  In22  1  0.65016666  0.82802281  0.17568024  1
  In  In23  1  -0.02254049  0.00987397  0.64985088  1
  In  In24  1  0.52643445  0.85130523  -0.00772058  1
  In  In25  1  0.18472459  0.51567396  0.36143747  1
  In  In26  1  0.06091280  0.63063778  0.65499393  1
  In  In27  1  0.35466588  0.81433973  0.82727831  1
  In  In28  1  0.64563916  0.66757570  0.35633510  1
  In  In29  1  0.83337465  0.16057870  0.31155958  1
  In  In30  1  -0.00713059  0.64122874  -0.00574355  1
  In  In31  1  0.86402911  0.67676242  0.80545357  1
  In  In32  1  0.31084926  -0.01870344  0.36292788  1
  In  In33  1  0.48390636  0.65141515  0.49963446  1
  In  In34  1  0.47972162  0.81637689  0.36610482  1
  In  In35  1  0.35015201  0.19378384  0.81882682  1
  In  In36  1  0.85369172  0.33138898  0.50428402  1
  In  In37  1  0.68436232  0.81692074  0.81084098  1
  In  In38  1  0.83493377  0.33028127  0.17932881  1
  In  In39  1  0.85569454  0.19548739  -0.02808836  1
  In  In40  1  0.00224835  0.48911529  0.16069351  1
  In  In41  1  0.18729153  0.16758792  0.35127094  1
  In  In42  1  0.80165089  0.67442147  0.18157788  1
  In  In43  1  0.02987184  0.34860272  0.33184602  1
  In  In44  1  0.48588446  0.00735720  0.17459921  1
  In  In45  1  0.02730290  0.82336130  0.50208907  1
  In  In46  1  0.67954756  0.01607505  0.29188128  1
  In  In47  1  0.30433208  0.36071846  0.68304408  1
  In  In48  1  0.19980894  0.65229050  0.19494325  1
  In  In49  1  0.51896584  0.33800437  0.84168119  1
  In  In50  1  0.14049733  0.20181842  -0.03634025  1
  In  In51  1  0.49839344  0.01123192  0.48267241  1
  In  In52  1  0.46077852  0.47111784  0.00337839  1
  In  In53  1  0.50310793  0.50309269  0.65425423  1
  In  In54  1  0.31862726  0.19447537  0.15891626  1
  In  In55  1  0.02088844  0.17872967  0.51193694  1
  In  In56  1  0.82879838  -0.01029862  0.14616358  1
  In  In57  1  0.69813532  0.04171423  -0.01732257  1
  In  In58  1  0.86344424  0.80414721  0.37087641  1
  In  In59  1  0.84390060  0.00723746  0.84314532  1
  In  In60  1  0.33678981  0.65546403  -0.00149687  1
  In  In61  1  0.16718136  -0.01028199  0.51458034  1
  In  In62  1  0.35557854  -0.01160187  0.63709930  1
  In  In63  1  0.85246952  0.51004146  0.63691680  1
  In  In64  1  0.18184121  -0.00310874  0.80360637  1
  In  In65  1  0.84937910  0.33686207  0.81105250  1
  In  In66  1  0.83230775  0.47778190  -0.01913660  1
  In  In67  1  0.63160309  0.20534795  0.14898897  1
  In  In68  1  0.27595905  0.65802280  0.67137067  1
  In  In69  1  0.31369265  0.33942035  0.34660848  1
  In  In70  1  0.49494940  0.18130412  0.65041179  1
  In  In71  1  0.84073129  0.54063326  0.42252147  1
  Te  Te72  1  0.10214810  0.09201247  0.06586665  1
  Te  Te73  1  0.08723983  0.07555490  0.41806196  1
  Te  Te74  1  0.05921999  0.07770351  0.76087749  1
  Te  Te75  1  0.08265378  0.42180598  0.05440383  1
  Te  Te76  1  0.08404032  0.43392172  0.43839540  1
  Te  Te77  1  0.14289883  0.46104643  0.79892355  1
  Te  Te78  1  0.08539908  0.71359174  0.09416937  1
  Te  Te79  1  0.07128928  0.71061525  0.41472014  1
  Te  Te80  1  0.12215185  0.73746216  0.74033471  1
  Te  Te81  1  0.41575397  0.10082493  0.07815041  1
  Te  Te82  1  0.39196484  0.08920718  0.41957437  1
  Te  Te83  1  0.43227642  0.07676826  0.74882894  1
  Te  Te84  1  0.43108954  0.40351607  0.13002931  1
  Te  Te85  1  0.40073945  0.45330805  0.39620337  1
  Te  Te86  1  0.42498529  0.42012959  0.75515950  1
  Te  Te87  1  0.43033400  0.76169899  0.06972827  1
  Te  Te88  1  0.38727018  0.70466090  0.39520289  1
  Te  Te89  1  0.39889068  0.71827325  0.72767248  1
  Te  Te90  1  0.75448726  0.12082974  0.09750479  1
  Te  Te91  1  0.74871825  0.08137086  0.40948609  1
  Te  Te92  1  0.76549438  0.09311675  0.74577002  1
  Te  Te93  1  0.74468991  0.40734161  0.08436429  1
  Te  Te94  1  0.75219213  0.41210369  0.42461118  1
  Te  Te95  1  0.75859117  0.42151201  0.72327070  1
  Te  Te96  1  0.74485136  0.76443616  0.07315920  1
  Te  Te97  1  0.75162717  0.73529556  0.44466628  1
  Te  Te98  1  0.75518653  0.72751406  0.71089005  1
  Te  Te99  1  0.08581898  0.22986083  0.24259020  1
  Te  Te100  1  0.06664453  0.28154430  0.60973461  1
  Te  Te101  1  0.04177477  0.27514873  0.87867371  1
  Te  Te102  1  0.08425684  0.57159794  0.25621436  1
  Te  Te103  1  0.13425214  0.52130290  0.58070124  1
  Te  Te104  1  0.08909042  0.59651727  0.89128169  1
  Te  Te105  1  0.09036901  0.89898168  0.27349028  1
  Te  Te106  1  0.08499967  0.91076977  0.61412557  1
  Te  Te107  1  0.09750979  0.91662528  0.90544797  1
  Te  Te108  1  0.39833679  0.24549595  0.26942745  1
  Te  Te109  1  0.38828301  0.26648650  0.58977814  1
  Te  Te110  1  0.42440020  0.26123919  0.92506822  1
  Te  Te111  1  0.36984921  0.57820488  0.29832317  1
  Te  Te112  1  0.37882635  0.56761810  0.58257876  1
  Te  Te113  1  0.43004486  0.58146254  0.91357287  1
  Te  Te114  1  0.40960746  0.90687891  0.25921215  1
  Te  Te115  1  0.43588318  0.89712110  0.55377059  1
  Te  Te116  1  0.41428047  0.93419021  0.92062678  1
  Te  Te117  1  0.72575706  0.26578020  0.26624243  1
  Te  Te118  1  0.77315445  0.24282789  0.59154799  1
  Te  Te119  1  0.74352343  0.27431271  0.91163964  1
  Te  Te120  1  0.73757152  0.57112362  0.27133167  1
  Te  Te121  1  0.76066096  0.57495956  0.54173631  1
  Te  Te122  1  0.76944660  0.59211327  0.89894845  1
  Te  Te123  1  0.76385749  0.89257269  0.25635051  1
  Te  Te124  1  0.74884816  0.92258046  0.57245425  1
  Te  Te125  1  0.74385925  0.91600893  0.91424820  1
  Te  Te126  1  0.25136161  0.27152720  0.04427940  1
  Te  Te127  1  0.22213465  0.27438475  0.44340652  1
  Te  Te128  1  0.22636256  0.24958952  0.75320557  1
  Te  Te129  1  0.25987931  0.56155648  0.08877733  1
  Te  Te130  1  0.19897922  0.63139720  0.46528885  1
  Te  Te131  1  0.25950584  0.55297980  0.78425482  1
  Te  Te132  1  0.25311737  0.89917686  0.09499580  1
  Te  Te133  1  0.25343496  0.88134884  0.45717918  1
  Te  Te134  1  0.27181487  0.90153711  0.72916870  1
  Te  Te135  1  0.54334365  0.30364346  0.08672623  1
  Te  Te136  1  0.55311274  0.25037975  0.43446706  1
  Te  Te137  1  0.59231306  0.26945428  0.72577960  1
  Te  Te138  1  0.57766685  0.59411517  0.09251205  1
  Te  Te139  1  0.57250023  0.56083639  0.42431885  1
  Te  Te140  1  0.58801942  0.60037421  0.72703118  1
  Te  Te141  1  0.59878311  0.94806534  0.08662655  1
  Te  Te142  1  0.59165376  0.92292671  0.38415596  1
  Te  Te143  1  0.56977154  0.89196500  0.73974628  1
  Te  Te144  1  0.93263166  0.26956525  0.08069270  1
  Te  Te145  1  0.92934341  0.24455880  0.39370988  1
  Te  Te146  1  0.93904459  0.22572392  0.77722211  1
  Te  Te147  1  0.88848703  0.57752119  0.09272322  1
  Te  Te148  1  0.96405418  0.60917358  0.46383062  1
  Te  Te149  1  0.94640158  0.56890601  0.74358166  1
  Te  Te150  1  0.93286807  0.91184207  0.07888907  1
  Te  Te151  1  0.92551017  0.91381478  0.44291268  1
  Te  Te152  1  0.90774614  0.90044389  0.74994396  1
  Te  Te153  1  0.25466603  0.07398679  0.24174798  1
  Te  Te154  1  0.25467131  0.08968296  0.58766496  1
  Te  Te155  1  0.25015161  0.09486205  0.90009755  1
  Te  Te156  1  0.22612581  0.41675789  0.24673611  1
  Te  Te157  1  0.27390303  0.45353592  0.56952992  1
  Te  Te158  1  0.26743997  0.42124090  0.87827280  1
  Te  Te159  1  0.21613341  0.77453235  0.27748607  1
  Te  Te160  1  0.23078432  0.74644639  0.55897091  1
  Te  Te161  1  0.24915484  0.74876092  0.91639052  1
  Te  Te162  1  0.56761105  0.11056489  0.25177342  1
  Te  Te163  1  0.59287820  0.08090677  0.58781947  1
  Te  Te164  1  0.57830956  0.11554137  0.92869844  1
  Te  Te165  1  0.54452916  0.41795864  0.25076061  1
  Te  Te166  1  0.58399428  0.41241146  0.57103199  1
  Te  Te167  1  0.59249938  0.44333814  0.92377046  1
  Te  Te168  1  0.55653405  0.73514812  0.25118721  1
  Te  Te169  1  0.56724277  0.74299096  0.58194185  1
  Te  Te170  1  0.58036669  0.74506339  0.89798274  1
  Te  Te171  1  0.92287401  0.05421304  0.25037954  1
  Te  Te172  1  0.90438056  0.10791910  0.56975646  1
  Te  Te173  1  0.92756788  0.07102787  0.94520995  1
  Te  Te174  1  0.91354607  0.42556962  0.26787222  1
  Te  Te175  1  0.94737939  0.40247901  0.59453323  1
  Te  Te176  1  0.93975549  0.41494635  0.90244718  1
  Te  Te177  1  0.92310570  0.72190124  0.25946987  1
  Te  Te178  1  0.94655033  0.71923627  0.58936767  1
  Te  Te179  1  0.92370104  0.75604631  0.92140442  1
