# generated using pymatgen
data_In2Te3
_symmetry_space_group_name_H-M   'P 1'
_cell_length_a   18.77987820
_cell_length_b   18.79059649
_cell_length_c   18.78364002
_cell_angle_alpha   89.99936357
_cell_angle_beta   90.01450174
_cell_angle_gamma   90.03542259
_symmetry_Int_Tables_number   1
_chemical_formula_structural   In2Te3
_chemical_formula_sum   'In72 Te108'
_cell_volume   6628.46545768
_cell_formula_units_Z   36
loop_
 _symmetry_equiv_pos_site_id
 _symmetry_equiv_pos_as_xyz
  1  'x, y, z'
loop_
 _atom_site_type_symbol
 _atom_site_label
 _atom_site_symmetry_multiplicity
 _atom_site_fract_x
 _atom_site_fract_y
 _atom_site_fract_z
 _atom_site_occupancy
  In  In0  1  0.84002011  -0.01121898  0.49026022  1
  In  In1  1  0.35240394  -0.00764348  0.33403710  1
  In  In2  1  0.83394936  0.50930981  0.66032419  1
  In  In3  1  0.32039477  0.18443152  0.12515353  1
  In  In4  1  -0.01149474  0.49716684  0.85535087  1
  In  In5  1  0.16658002  0.67040281  0.84543049  1
  In  In6  1  0.34633675  0.33404921  0.66051107  1
  In  In7  1  0.65075104  0.17729289  0.49695002  1
  In  In8  1  -0.00455867  0.49279550  0.15940809  1
  In  In9  1  0.33676545  0.68978347  0.00559860  1
  In  In10  1  0.33970466  0.33342048  0.32312924  1
  In  In11  1  0.16193241  0.33494894  0.48485253  1
  In  In12  1  -0.00463801  0.34509940  0.64484667  1
  In  In13  1  0.66655620  0.31526584  0.65994110  1
  In  In14  1  0.02199594  -0.02448525  0.67219542  1
  In  In15  1  -0.02402266  0.70240413  0.63180193  1
  In  In16  1  0.50296437  0.67863870  0.17174246  1
  In  In17  1  0.16949682  0.68410553  0.50820497  1
  In  In18  1  -0.00853495  0.68434794  0.32366744  1
  In  In19  1  0.66472671  0.50741809  0.84062021  1
  In  In20  1  0.80450430  0.19015839  0.30624886  1
  In  In21  1  0.82891822  0.31017216  0.85462831  1
  In  In22  1  0.49142011  -0.00743953  0.49084494  1
  In  In23  1  0.18082860  0.51988188  0.70423054  1
  In  In24  1  0.82980403  0.48900076  0.32845866  1
  In  In25  1  0.52668157  0.31638566  0.16420643  1
  In  In26  1  0.81987956  0.15260297  0.01099484  1
  In  In27  1  0.00074292  -0.02365643  0.33054383  1
  In  In28  1  0.67438605  0.51267549  0.48241679  1
  In  In29  1  0.66095017  0.48558111  0.14517002  1
  In  In30  1  0.15893997  0.16577378  0.31348744  1
  In  In31  1  0.17238332  0.49428710  0.33442778  1
  In  In32  1  0.49196402  0.17490857  0.66710085  1
  In  In33  1  0.33595289  0.83621832  0.48353045  1
  In  In34  1  0.32832988  0.50389016  0.17257394  1
  In  In35  1  0.18524077  -0.02329912  0.84235535  1
  In  In36  1  0.00933556  0.15619309  0.16326184  1
  In  In37  1  0.84060854  -0.00872047  0.83662505  1
  In  In38  1  0.17806490  0.33079715  0.85975884  1
  In  In39  1  0.32275995  -0.02604789  0.67079684  1
  In  In40  1  -0.02357620  0.17219521  0.47401438  1
  In  In41  1  0.49892825  0.50262337  0.00308245  1
  In  In42  1  0.65676311  -0.00535424  -0.00099800  1
  In  In43  1  0.00675413  0.51246440  0.48151507  1
  In  In44  1  0.65374404  0.68238661  0.66949523  1
  In  In45  1  0.66697957  -0.01442978  0.31417304  1
  In  In46  1  0.34605924  -0.01360207  0.00883624  1
  In  In47  1  0.17787311  0.12747959  0.66113904  1
  In  In48  1  0.00988866  0.83723375  0.83837186  1
  In  In49  1  -0.00645726  0.34096236  -0.01067479  1
  In  In50  1  0.19602844  0.69732861  0.18289486  1
  In  In51  1  0.52359121  0.33683760  0.47990697  1
  In  In52  1  0.30505733  0.50666904  0.85015908  1
  In  In53  1  0.81972390  0.68784523  0.16119931  1
  In  In54  1  0.83645570  -0.02543815  0.16700795  1
  In  In55  1  0.83724921  0.83192279  0.00504680  1
  In  In56  1  0.66183438  -0.00940108  0.70768770  1
  In  In57  1  0.49538427  0.54026933  0.66194426  1
  In  In58  1  -0.02602742  0.17230905  0.85391756  1
  In  In59  1  0.66528433  0.83899250  0.50321715  1
  In  In60  1  0.49100240  0.33747905  0.84951911  1
  In  In61  1  0.02101045  0.66168605  0.02052018  1
  In  In62  1  0.34895369  0.16882497  0.85094271  1
  In  In63  1  0.16540539  -0.01844442  0.16376419  1
  In  In64  1  0.81044850  0.66001896  0.82864795  1
  In  In65  1  0.51612688  -0.03181473  0.84731223  1
  In  In66  1  0.50497272  -0.01352489  0.16938865  1
  In  In67  1  0.50987281  0.52261015  0.31821327  1
  In  In68  1  0.65937729  0.68200828  0.34352051  1
  In  In69  1  0.17127558  -0.01871157  0.52055002  1
  In  In70  1  0.80308572  0.14002015  0.65598197  1
  In  In71  1  0.34452127  0.52753418  0.52356571  1
  Te  Te72  1  0.09577798  0.07732339  0.07433404  1
  Te  Te73  1  0.08624778  0.07752384  0.42392719  1
  Te  Te74  1  0.07484294  0.08415356  0.76899144  1
  Te  Te75  1  0.08916398  0.41814335  0.07171085  1
  Te  Te76  1  0.06276084  0.40266116  0.39141120  1
  Te  Te77  1  0.07855770  0.40614461  0.76011908  1
  Te  Te78  1  0.09336068  0.76394632  0.09852277  1
  Te  Te79  1  0.09004188  0.75749618  0.40766041  1
  Te  Te80  1  0.07854769  0.74141969  0.74126105  1
  Te  Te81  1  0.43309425  0.08946853  0.07793566  1
  Te  Te82  1  0.43673219  0.09473651  0.40026285  1
  Te  Te83  1  0.41634145  0.07107761  0.75068719  1
  Te  Te84  1  0.42466791  0.41159759  0.09847036  1
  Te  Te85  1  0.41219093  0.43134496  0.41693881  1
  Te  Te86  1  0.41608972  0.43345558  0.75365178  1
  Te  Te87  1  0.41959165  0.77721309  0.09413364  1
  Te  Te88  1  0.40258682  0.75840738  0.37690466  1
  Te  Te89  1  0.44343310  0.77682614  0.79358120  1
  Te  Te90  1  0.73536638  0.07090034  0.10882156  1
  Te  Te91  1  0.74891931  0.08475399  0.41397103  1
  Te  Te92  1  0.74051144  0.09657624  0.78638691  1
  Te  Te93  1  0.75716229  0.38383403  0.09807681  1
  Te  Te94  1  0.73776401  0.40289731  0.40980280  1
  Te  Te95  1  0.75446059  0.41327913  0.74873921  1
  Te  Te96  1  0.72444963  0.76960374  0.07993639  1
  Te  Te97  1  0.76321301  0.75574326  0.42410749  1
  Te  Te98  1  0.75710983  0.76312185  0.73976817  1
  Te  Te99  1  0.08375462  0.26345691  0.23455693  1
  Te  Te100  1  0.08789202  0.23901414  0.58123362  1
  Te  Te101  1  0.09052320  0.23117530  0.93475910  1
  Te  Te102  1  0.09010398  0.58993973  0.24666511  1
  Te  Te103  1  0.08385155  0.57821025  0.59407437  1
  Te  Te104  1  0.10143225  0.56239859  0.93283098  1
  Te  Te105  1  0.08667789  0.88767315  0.24962296  1
  Te  Te106  1  0.08791753  0.87743036  0.58463751  1
  Te  Te107  1  0.08713206  0.91640663  0.93526646  1
  Te  Te108  1  0.41647609  0.23675396  0.23487425  1
  Te  Te109  1  0.41881833  0.25011955  0.55681821  1
  Te  Te110  1  0.42594966  0.24900513  0.94820894  1
  Te  Te111  1  0.39708483  0.60649431  0.26159512  1
  Te  Te112  1  0.41528254  0.64162456  0.58799219  1
  Te  Te113  1  0.41490396  0.59221237  0.91526368  1
  Te  Te114  1  0.40500238  0.88978976  0.23564747  1
  Te  Te115  1  0.42986394  0.89875741  0.59281233  1
  Te  Te116  1  0.40352610  0.88447307  0.90811745  1
  Te  Te117  1  0.73324935  0.26785147  0.19897593  1
  Te  Te118  1  0.76722300  0.25524292  0.56281541  1
  Te  Te119  1  0.72470244  0.23836187  0.93176733  1
  Te  Te120  1  0.73638875  0.58353819  0.24683410  1
  Te  Te121  1  0.75131886  0.60409423  0.57660531  1
  Te  Te122  1  0.74222393  0.58899262  0.93734078  1
  Te  Te123  1  0.77265635  0.88865307  0.27119219  1
  Te  Te124  1  0.74945440  0.92713896  0.59704571  1
  Te  Te125  1  0.74079312  0.90198288  0.90782381  1
  Te  Te126  1  0.23759935  0.27895825  0.04851640  1
  Te  Te127  1  0.25428710  0.24034085  0.41077731  1
  Te  Te128  1  0.25332800  0.24755708  0.74614182  1
  Te  Te129  1  0.24442790  0.59102607  0.08194708  1
  Te  Te130  1  0.25376246  0.59200308  0.41786477  1
  Te  Te131  1  0.28322521  0.62073175  0.75010690  1
  Te  Te132  1  0.26470150  0.89551549  0.09262926  1
  Te  Te133  1  0.23480757  0.91726864  0.39829689  1
  Te  Te134  1  0.24150313  0.87809588  0.74834838  1
  Te  Te135  1  0.63015358  0.25368697  0.07829787  1
  Te  Te136  1  0.58162803  0.24170178  0.38344447  1
  Te  Te137  1  0.58387707  0.24470393  0.76597354  1
  Te  Te138  1  0.59164811  0.60244737  0.07141232  1
  Te  Te139  1  0.56182031  0.60341517  0.43572341  1
  Te  Te140  1  0.57052033  0.60795172  0.77673084  1
  Te  Te141  1  0.59243499  0.89378532  0.08930916  1
  Te  Te142  1  0.57082641  0.90124204  0.39866117  1
  Te  Te143  1  0.57628388  0.87076416  0.74654101  1
  Te  Te144  1  0.91521269  0.24732885  0.08309806  1
  Te  Te145  1  0.90392941  0.26574765  0.38703901  1
  Te  Te146  1  0.90928409  0.24992761  0.73723909  1
  Te  Te147  1  0.90263489  0.58610899  0.08093155  1
  Te  Te148  1  0.90192601  0.59689646  0.41225665  1
  Te  Te149  1  0.93164986  0.58859982  0.74644882  1
  Te  Te150  1  0.93685956  0.91090739  0.08006399  1
  Te  Te151  1  0.93963870  0.88915843  0.43937659  1
  Te  Te152  1  0.90840313  0.89751903  0.73817988  1
  Te  Te153  1  0.26480242  0.08563825  0.23678717  1
  Te  Te154  1  0.28281830  0.07868199  0.56314448  1
  Te  Te155  1  0.25291956  0.08133698  0.93065314  1
  Te  Te156  1  0.23509093  0.39837873  0.23311920  1
  Te  Te157  1  0.24070330  0.42195667  0.58570690  1
  Te  Te158  1  0.27564019  0.39850353  0.95216695  1
  Te  Te159  1  0.29101396  0.77550339  0.27108789  1
  Te  Te160  1  0.26298404  0.76258494  0.59252308  1
  Te  Te161  1  0.24072325  0.77012221  0.92375672  1
  Te  Te162  1  0.58053061  0.08639582  0.25018486  1
  Te  Te163  1  0.58835090  0.07423454  0.59349230  1
  Te  Te164  1  0.56563631  0.08392715  0.92322264  1
  Te  Te165  1  0.59551061  0.41251201  0.26503135  1
  Te  Te166  1  0.58068687  0.42694377  0.59753297  1
  Te  Te167  1  0.59737631  0.40832676  0.93438412  1
  Te  Te168  1  0.59339690  0.77108394  0.24632250  1
  Te  Te169  1  0.56528755  0.74925494  0.56912816  1
  Te  Te170  1  0.54411737  0.79585849  0.89857678  1
  Te  Te171  1  0.91053514  0.08147393  0.26527927  1
  Te  Te172  1  0.93002813  0.08014082  0.59102570  1
  Te  Te173  1  0.92366064  0.06001339  0.94392787  1
  Te  Te174  1  0.90670768  0.40251879  0.23609505  1
  Te  Te175  1  0.90184747  0.42280188  0.55434072  1
  Te  Te176  1  0.87769120  0.43049927  0.93459983  1
  Te  Te177  1  0.90809108  0.77778875  0.24110762  1
  Te  Te178  1  0.88698492  0.77048839  0.53769278  1
  Te  Te179  1  0.92601980  0.73132328  0.91537816  1
