# generated using pymatgen
data_In2Te3
_symmetry_space_group_name_H-M   'P 1'
_cell_length_a   18.93219986
_cell_length_b   18.93143664
_cell_length_c   18.92353525
_cell_angle_alpha   89.88993985
_cell_angle_beta   89.97058716
_cell_angle_gamma   90.07837871
_symmetry_Int_Tables_number   1
_chemical_formula_structural   In2Te3
_chemical_formula_sum   'In72 Te108'
_cell_volume   6782.43531798
_cell_formula_units_Z   36
loop_
 _symmetry_equiv_pos_site_id
 _symmetry_equiv_pos_as_xyz
  1  'x, y, z'
loop_
 _atom_site_type_symbol
 _atom_site_label
 _atom_site_symmetry_multiplicity
 _atom_site_fract_x
 _atom_site_fract_y
 _atom_site_fract_z
 _atom_site_occupancy
  In  In0  1  0.15549156  0.86906853  0.32230913  1
  In  In1  1  0.66758127  0.30650989  -0.02407599  1
  In  In2  1  0.48113663  0.68612891  0.20688473  1
  In  In3  1  0.14662441  0.30901203  0.15888852  1
  In  In4  1  0.32352722  0.50034619  0.17857139  1
  In  In5  1  0.52794049  0.01582376  0.81530236  1
  In  In6  1  0.85246126  0.49810400  0.00535776  1
  In  In7  1  -0.00406592  0.52162326  0.49708565  1
  In  In8  1  0.84801638  0.16103297  0.32266736  1
  In  In9  1  0.31775965  -0.00296341  0.31598726  1
  In  In10  1  0.48903990  0.82271733  -0.00489121  1
  In  In11  1  0.65131870  0.65057256  0.01756230  1
  In  In12  1  0.46758411  0.49806477  -0.01313038  1
  In  In13  1  -0.01218076  0.86462934  0.83374916  1
  In  In14  1  0.00275837  0.72101377  0.65552149  1
  In  In15  1  0.67057890  0.14577358  0.16392740  1
  In  In16  1  0.51801481  0.30346393  0.80190927  1
  In  In17  1  0.46811609  0.68800187  0.46961341  1
  In  In18  1  0.03812793  0.68643484  0.01077731  1
  In  In19  1  0.15481249  0.16213294  -0.00360653  1
  In  In20  1  0.34403434  0.17242932  0.81426285  1
  In  In21  1  0.03054780  0.50524645  0.18028709  1
  In  In22  1  0.00906905  0.52167728  0.80969233  1
  In  In23  1  0.20056184  0.66187042  0.47187350  1
  In  In24  1  0.83907060  0.30382567  0.81828751  1
  In  In25  1  0.46944552  0.65825435  0.81036701  1
  In  In26  1  0.17894690  -0.01273670  0.83614614  1
  In  In27  1  0.79671378  0.30977669  0.50133187  1
  In  In28  1  0.33967890  0.68694624  0.66982940  1
  In  In29  1  0.84225820  0.86061621  0.35649703  1
  In  In30  1  0.18761956  0.32383413  0.49739602  1
  In  In31  1  0.22869357  0.72021871  0.84534111  1
  In  In32  1  0.80680825  0.49226442  0.67648896  1
  In  In33  1  0.63417358  0.49503777  0.52100858  1
  In  In34  1  0.81127481  0.69370306  0.81433179  1
  In  In35  1  0.02251123  0.15693129  0.16467613  1
  In  In36  1  0.17972741  0.68388333  0.20942880  1
  In  In37  1  -0.01703263  0.29384423  -0.01715655  1
  In  In38  1  0.48927102  0.13884287  0.01634661  1
  In  In39  1  0.32498294  0.50305285  0.84070843  1
  In  In40  1  0.84461474  0.49727508  0.32390178  1
  In  In41  1  0.18724129  0.49400952  0.01323104  1
  In  In42  1  0.64403274  0.82980335  0.79686623  1
  In  In43  1  0.85779343  0.86457729  -0.01524131  1
  In  In44  1  -0.00572572  0.32402276  0.63899747  1
  In  In45  1  -0.01037646  0.01382208  0.00281688  1
  In  In46  1  0.85112487  0.70446649  0.17820834  1
  In  In47  1  0.32227075  0.32980636  -0.00091768  1
  In  In48  1  0.01217094  0.86343784  0.48942081  1
  In  In49  1  0.45879740  -0.04042970  0.51068749  1
  In  In50  1  0.33385514  -0.02456123  0.01480043  1
  In  In51  1  0.69096976  0.48268271  0.82148586  1
  In  In52  1  0.67538011  0.82627228  0.16625343  1
  In  In53  1  0.50048720  0.48946623  0.33804705  1
  In  In54  1  0.34642923  0.33730666  0.33200038  1
  In  In55  1  0.17734892  0.49198220  0.63517313  1
  In  In56  1  0.66172573  0.47826894  0.16126167  1
  In  In57  1  0.67160084  -0.01770648  0.01187093  1
  In  In58  1  0.66764528  0.30612541  0.34444838  1
  In  In59  1  0.36294195  0.18668574  0.52128781  1
  In  In60  1  0.63584982  0.12861949  0.50947662  1
  In  In61  1  0.64800807  -0.02595399  0.35032623  1
  In  In62  1  0.16941809  0.84992322  0.67142144  1
  In  In63  1  0.70612161  0.68057883  0.34113189  1
  In  In64  1  0.65183953  0.68373406  0.64532826  1
  In  In65  1  0.50171990  0.16553773  0.32506346  1
  In  In66  1  0.49634328  0.49747471  0.65105190  1
  In  In67  1  0.15328917  0.04606128  0.48842814  1
  In  In68  1  -0.02093936  0.33243449  0.35915572  1
  In  In69  1  0.82797716  0.01883269  0.55416621  1
  In  In70  1  0.17497262  0.16291480  0.68176656  1
  In  In71  1  0.81680343  0.01776050  0.79907799  1
  Te  Te72  1  0.11358447  0.05375354  0.09436436  1
  Te  Te73  1  0.09467392  0.08042608  0.35332102  1
  Te  Te74  1  0.08775382  0.07430496  0.76177765  1
  Te  Te75  1  0.07083761  0.40816137  0.06286044  1
  Te  Te76  1  0.08217289  0.41729114  0.43062447  1
  Te  Te77  1  0.08004954  0.41631669  0.72558866  1
  Te  Te78  1  0.09388738  0.76630965  0.11959017  1
  Te  Te79  1  0.09831235  0.75883671  0.41702663  1
  Te  Te80  1  0.09220715  0.75541830  0.77456434  1
  Te  Te81  1  0.40729161  0.06097424  0.10952410  1
  Te  Te82  1  0.41587657  0.07354793  0.41409489  1
  Te  Te83  1  0.43256602  0.08996545  0.72700576  1
  Te  Te84  1  0.41205864  0.40783081  0.09448930  1
  Te  Te85  1  0.41560942  0.41797929  0.43507575  1
  Te  Te86  1  0.42478041  0.42056324  0.76347758  1
  Te  Te87  1  0.40388766  0.75960741  0.10195091  1
  Te  Te88  1  0.38168999  0.78707896  0.39908395  1
  Te  Te89  1  0.42997826  0.78405125  0.74050815  1
  Te  Te90  1  0.76548230  0.05952090  0.09231883  1
  Te  Te91  1  0.73444334  0.08811278  0.40064105  1
  Te  Te92  1  0.73003421  0.11179502  0.72279735  1
  Te  Te93  1  0.75310684  0.40263776  0.06747237  1
  Te  Te94  1  0.73821251  0.42813674  0.41189705  1
  Te  Te95  1  0.73346497  0.37055743  0.73009837  1
  Te  Te96  1  0.75877535  0.75686562  0.05988794  1
  Te  Te97  1  0.75714481  0.77356158  0.44132830  1
  Te  Te98  1  0.75792040  0.77962834  0.70185863  1
  Te  Te99  1  0.07839782  0.24574544  0.28104934  1
  Te  Te100  1  0.09006863  0.23167550  0.56769130  1
  Te  Te101  1  0.08081863  0.23667497  0.89356237  1
  Te  Te102  1  0.10281430  0.57943451  0.28641922  1
  Te  Te103  1  0.08597097  0.60661115  0.58695413  1
  Te  Te104  1  0.09740705  0.58034387  0.91959796  1
  Te  Te105  1  0.02566546  0.89533157  0.25209756  1
  Te  Te106  1  0.08703910  0.94735125  0.59148716  1
  Te  Te107  1  0.08771579  0.91387965  0.93405941  1
  Te  Te108  1  0.41119153  0.24280106  0.24031576  1
  Te  Te109  1  0.46293058  0.26964565  0.58936600  1
  Te  Te110  1  0.43253069  0.25675076  0.92092263  1
  Te  Te111  1  0.39212174  0.58729502  0.28476690  1
  Te  Te112  1  0.40625271  0.59215180  0.57122746  1
  Te  Te113  1  0.38622129  0.61186477  0.93053347  1
  Te  Te114  1  0.40783356  0.88315755  0.28104299  1
  Te  Te115  1  0.39008029  0.89095486  0.62400384  1
  Te  Te116  1  0.43566628  0.93153738  0.90515652  1
  Te  Te117  1  0.75975951  0.25206874  0.23902452  1
  Te  Te118  1  0.73528297  0.20935503  0.59252157  1
  Te  Te119  1  0.77771700  0.22320612  0.92567806  1
  Te  Te120  1  0.75051091  0.58670055  0.22260336  1
  Te  Te121  1  0.74475506  0.58678771  0.57318963  1
  Te  Te122  1  0.75725837  0.58750486  0.91705468  1
  Te  Te123  1  0.75604426  0.92392008  0.24848725  1
  Te  Te124  1  0.71709596  0.93611539  0.59536419  1
  Te  Te125  1  0.73851489  0.90314497  0.89132603  1
  Te  Te126  1  0.25553126  0.22897192  0.09074939  1
  Te  Te127  1  0.26811745  0.23004474  0.41030874  1
  Te  Te128  1  0.26479385  0.26645235  0.73549671  1
  Te  Te129  1  0.24964419  0.60305916  0.09510731  1
  Te  Te130  1  0.24330431  0.56679940  0.37133344  1
  Te  Te131  1  0.24264504  0.58845389  0.74604050  1
  Te  Te132  1  0.27443249  0.86790099  0.09720246  1
  Te  Te133  1  0.23916031  0.93510792  0.43264573  1
  Te  Te134  1  0.27731400  0.92579600  0.74105809  1
  Te  Te135  1  0.58264290  0.24139754  0.08426890  1
  Te  Te136  1  0.56443116  0.24793398  0.43747971  1
  Te  Te137  1  0.60261611  0.18947880  0.76800750  1
  Te  Te138  1  0.55324918  0.57919780  0.10987193  1
  Te  Te139  1  0.58680995  0.59467679  0.41135686  1
  Te  Te140  1  0.59157567  0.58034233  0.74780203  1
  Te  Te141  1  0.56893265  0.90719530  0.09440700  1
  Te  Te142  1  0.57859395  0.89004263  0.45263550  1
  Te  Te143  1  0.60534784  0.94168004  0.70458248  1
  Te  Te144  1  0.91694807  0.23388665  0.09565226  1
  Te  Te145  1  0.91148096  0.22582580  0.44541391  1
  Te  Te146  1  0.92295884  0.22214571  0.72409253  1
  Te  Te147  1  0.93267867  0.59390427  0.09427951  1
  Te  Te148  1  0.91585102  0.59804179  0.40104641  1
  Te  Te149  1  0.90719584  0.60257172  0.72862698  1
  Te  Te150  1  0.93720803  0.91047256  0.09906354  1
  Te  Te151  1  0.91403015  0.96912789  0.43981061  1
  Te  Te152  1  0.91368616  0.92972523  0.72405289  1
  Te  Te153  1  0.20170969  0.06206795  0.24946472  1
  Te  Te154  1  0.26635983  0.08829782  0.58556984  1
  Te  Te155  1  0.27055069  0.08904338  0.91938421  1
  Te  Te156  1  0.23112735  0.40053133  0.24531653  1
  Te  Te157  1  0.28104894  0.41803347  0.56379119  1
  Te  Te158  1  0.23038977  0.39993339  0.90101952  1
  Te  Te159  1  0.27673159  0.77701997  0.28243450  1
  Te  Te160  1  0.24931745  0.76260227  0.57413130  1
  Te  Te161  1  0.26251195  0.81310644  0.95222283  1
  Te  Te162  1  0.57509789  0.05887291  0.24608626  1
  Te  Te163  1  0.52814052  0.06734596  0.59383299  1
  Te  Te164  1  0.60204717  0.08742217  0.92712072  1
  Te  Te165  1  0.57779159  0.39070870  0.25217892  1
  Te  Te166  1  0.57545956  0.37961795  0.59752928  1
  Te  Te167  1  0.58652496  0.43017253  0.92399237  1
  Te  Te168  1  0.59293857  0.76189583  0.27540161  1
  Te  Te169  1  0.55573448  0.76260064  0.56508560  1
  Te  Te170  1  0.58451668  0.73314031  0.90672770  1
  Te  Te171  1  0.94017428  0.06855030  0.25396986  1
  Te  Te172  1  0.92335304  0.08176205  0.64803738  1
  Te  Te173  1  0.89693978  0.08044401  0.90765511  1
  Te  Te174  1  0.92599301  0.40741675  0.23466314  1
  Te  Te175  1  0.89507637  0.41792319  0.56856306  1
  Te  Te176  1  0.91478235  0.42657620  0.88591235  1
  Te  Te177  1  0.93813951  0.76955710  0.28012845  1
  Te  Te178  1  0.91395434  0.76873787  0.55052087  1
  Te  Te179  1  0.92420918  0.73890188  0.91291922  1
