# generated using pymatgen
data_In2Te3
_symmetry_space_group_name_H-M   'P 1'
_cell_length_a   18.97953797
_cell_length_b   18.99353659
_cell_length_c   18.97423015
_cell_angle_alpha   89.88368042
_cell_angle_beta   90.23997982
_cell_angle_gamma   90.00393313
_symmetry_Int_Tables_number   1
_chemical_formula_structural   In2Te3
_chemical_formula_sum   'In72 Te108'
_cell_volume   6839.91858946
_cell_formula_units_Z   36
loop_
 _symmetry_equiv_pos_site_id
 _symmetry_equiv_pos_as_xyz
  1  'x, y, z'
loop_
 _atom_site_type_symbol
 _atom_site_label
 _atom_site_symmetry_multiplicity
 _atom_site_fract_x
 _atom_site_fract_y
 _atom_site_fract_z
 _atom_site_occupancy
  In  In0  1  0.48052150  0.16465840  0.35284897  1
  In  In1  1  0.84851254  0.50773395  0.67808730  1
  In  In2  1  0.83717647  0.16533658  0.00001251  1
  In  In3  1  0.02090491  0.15701738  0.78489128  1
  In  In4  1  0.31196633  0.16394960  0.17227803  1
  In  In5  1  -0.02893700  -0.01215028  0.01078837  1
  In  In6  1  0.49106349  0.32513116  0.51907934  1
  In  In7  1  0.68895069  0.84752487  0.83170959  1
  In  In8  1  0.16257125  0.85313898  -0.01662024  1
  In  In9  1  0.66699478  -0.01365972  0.67410720  1
  In  In10  1  -0.00568597  0.52332720  0.82838362  1
  In  In11  1  0.52524093  0.67154320  0.81603234  1
  In  In12  1  0.47463307  0.31631143  0.82499768  1
  In  In13  1  0.65389505  0.13972061  0.83803636  1
  In  In14  1  0.01115814  0.34310083  0.35049718  1
  In  In15  1  0.82032865  0.53061037  -0.01448902  1
  In  In16  1  0.46987965  0.00502312  0.50573555  1
  In  In17  1  0.83024492  0.32362809  0.48952970  1
  In  In18  1  0.84535190  0.47869177  0.32009883  1
  In  In19  1  0.51443098  0.69111548  0.51341837  1
  In  In20  1  0.50969690  0.34327415  0.13884537  1
  In  In21  1  0.34147335  0.86754261  0.82462531  1
  In  In22  1  0.65879056  0.51125044  0.51631404  1
  In  In23  1  0.00101740  0.84331787  0.49725927  1
  In  In24  1  0.18244653  0.31598596  0.80406613  1
  In  In25  1  0.14936124  0.13882002  -0.02817280  1
  In  In26  1  0.15411747  0.31624310  0.17066786  1
  In  In27  1  0.50502138  0.84329253  -0.00927390  1
  In  In28  1  0.84205864  -0.01403544  0.82847589  1
  In  In29  1  0.48402556  0.14573367  0.67603612  1
  In  In30  1  0.50944601  0.18480510  -0.00837585  1
  In  In31  1  0.17830811  0.15146041  0.34518384  1
  In  In32  1  0.31689929  0.48668621  0.49690807  1
  In  In33  1  0.16816806  0.00539874  0.51266028  1
  In  In34  1  0.85950937  0.67282508  0.47994293  1
  In  In35  1  0.33186958  0.49318927  0.17432617  1
  In  In36  1  0.14378060  0.65751149  0.17687204  1
  In  In37  1  0.47880039  0.81834083  0.32495262  1
  In  In38  1  0.50880580  0.51914660  0.71510133  1
  In  In39  1  0.32596616  0.31854154  0.33830987  1
  In  In40  1  -0.01273192  0.68379631  -0.02867764  1
  In  In41  1  0.69345019  0.64867642  0.35304650  1
  In  In42  1  0.66757665  -0.02882289  0.32769967  1
  In  In43  1  0.69687134  0.32182945  0.65779072  1
  In  In44  1  0.30975693  0.85517162  0.16037781  1
  In  In45  1  0.86834091  0.69678097  0.15480202  1
  In  In46  1  -0.00635540  -0.01785421  0.31050284  1
  In  In47  1  0.83933068  0.14519794  0.34240086  1
  In  In48  1  0.51200008  0.64795999  0.17733061  1
  In  In49  1  0.86696762  0.31908452  0.81785258  1
  In  In50  1  0.04681373  0.28719314  0.66098353  1
  In  In51  1  0.14871423  0.84652064  0.68947311  1
  In  In52  1  0.14009769  0.64867716  0.49176117  1
  In  In53  1  0.16073404  0.83667924  0.32128829  1
  In  In54  1  0.67740523  0.49219597  0.15402946  1
  In  In55  1  0.67370223  0.35809014  -0.01906737  1
  In  In56  1  0.34151158  0.84288937  0.51926399  1
  In  In57  1  0.50358986  0.84980434  0.65164976  1
  In  In58  1  -0.01570278  0.50431904  0.49104589  1
  In  In59  1  0.70170622  0.14429297  0.17333105  1
  In  In60  1  0.15540888  0.48901624  0.63778073  1
  In  In61  1  0.85599759  0.02700350  0.52719589  1
  In  In62  1  0.49456796  0.50819468  0.01310106  1
  In  In63  1  0.32926124  0.67966110  0.02522979  1
  In  In64  1  0.48814663  0.00187615  0.16760594  1
  In  In65  1  0.33399237  0.49527355  0.84532745  1
  In  In66  1  0.15560212  0.68245319  0.82318556  1
  In  In67  1  0.32447377  0.66608511  0.64870030  1
  In  In68  1  0.69422752  0.81578953  0.15795660  1
  In  In69  1  0.68565819  0.84592422  0.50460892  1
  In  In70  1  0.64923241  0.32116412  0.31564859  1
  In  In71  1  -0.00098846  0.32129769  0.02093699  1
  Te  Te72  1  0.06008315  0.08523253  0.07573967  1
  Te  Te73  1  0.07190548  0.06579877  0.41254623  1
  Te  Te74  1  0.13338405  0.07302299  0.74274137  1
  Te  Te75  1  0.07913581  0.41843720  0.09482068  1
  Te  Te76  1  0.09469695  0.42439291  0.44023133  1
  Te  Te77  1  0.06537049  0.41700634  0.74434698  1
  Te  Te78  1  0.09174877  0.74658720  0.06179589  1
  Te  Te79  1  0.06805612  0.74822405  0.40129954  1
  Te  Te80  1  0.04769612  0.76228000  0.76080456  1
  Te  Te81  1  0.41402892  0.09857695  0.08106156  1
  Te  Te82  1  0.37981115  0.09423026  0.43142626  1
  Te  Te83  1  0.39300921  0.11032106  0.78842845  1
  Te  Te84  1  0.39303147  0.40736711  0.06536228  1
  Te  Te85  1  0.42039047  0.41022046  0.41519442  1
  Te  Te86  1  0.39924415  0.41386625  0.73567189  1
  Te  Te87  1  0.43040433  0.76091104  0.10430611  1
  Te  Te88  1  0.39790735  0.73845176  0.42530079  1
  Te  Te89  1  0.41312554  0.75274042  0.73923425  1
  Te  Te90  1  0.74602640  0.06370853  0.05848412  1
  Te  Te91  1  0.74185943  0.06156240  0.42323103  1
  Te  Te92  1  0.75620510  0.08604257  0.74358589  1
  Te  Te93  1  0.77523755  0.40820329  0.07979383  1
  Te  Te94  1  0.73558063  0.42548135  0.41419134  1
  Te  Te95  1  0.76173293  0.41264072  0.75937997  1
  Te  Te96  1  0.76590061  0.73802006  0.05295997  1
  Te  Te97  1  0.76901656  0.76929986  0.40255971  1
  Te  Te98  1  0.80622575  0.76175997  0.80341860  1
  Te  Te99  1  0.07606024  0.23196228  0.26679994  1
  Te  Te100  1  0.12612379  0.22355312  0.55724135  1
  Te  Te101  1  0.07185576  0.25629395  0.89882634  1
  Te  Te102  1  0.05980752  0.59224030  0.27522651  1
  Te  Te103  1  0.05328799  0.59284975  0.60104096  1
  Te  Te104  1  0.09688846  0.58325457  0.92070723  1
  Te  Te105  1  0.08225600  0.90674963  0.21599856  1
  Te  Te106  1  0.06447662  0.93524976  0.59902990  1
  Te  Te107  1  0.05388511  0.91902088  0.90434304  1
  Te  Te108  1  0.42860127  0.25665241  0.23660760  1
  Te  Te109  1  0.40655384  0.21977779  0.57461930  1
  Te  Te110  1  0.39860277  0.26472196  0.93830229  1
  Te  Te111  1  0.41425996  0.57929391  0.25906017  1
  Te  Te112  1  0.43726406  0.58347969  0.59157804  1
  Te  Te113  1  0.42094201  0.60680260  0.91747702  1
  Te  Te114  1  0.39760355  0.93001867  0.26508123  1
  Te  Te115  1  0.38755010  0.94531055  0.61984472  1
  Te  Te116  1  0.39925156  0.93346002  0.94162617  1
  Te  Te117  1  0.76723191  0.25478107  0.25519685  1
  Te  Te118  1  0.74436860  0.22715128  0.55923204  1
  Te  Te119  1  0.74910521  0.25308749  0.89936818  1
  Te  Te120  1  0.76508808  0.58977984  0.23377884  1
  Te  Te121  1  0.76948257  0.59156024  0.57602202  1
  Te  Te122  1  0.70954209  0.55946833  0.89689405  1
  Te  Te123  1  0.76426172  0.92251833  0.23094253  1
  Te  Te124  1  0.77815324  0.91295677  0.60337742  1
  Te  Te125  1  0.74168204  0.94665159  0.92931506  1
  Te  Te126  1  0.22780108  0.23431770  0.06855852  1
  Te  Te127  1  0.23505397  0.25544397  0.43648472  1
  Te  Te128  1  0.27956701  0.21561765  0.75589979  1
  Te  Te129  1  0.24130289  0.57528812  0.08347619  1
  Te  Te130  1  0.23705599  0.57487948  0.41245829  1
  Te  Te131  1  0.24228437  0.57976647  0.74149634  1
  Te  Te132  1  0.25589238  0.94253949  0.05563980  1
  Te  Te133  1  0.24797292  0.91268479  0.42281323  1
  Te  Te134  1  0.22123463  0.94256625  0.77909218  1
  Te  Te135  1  0.61839546  0.25005019  0.08814275  1
  Te  Te136  1  0.58600724  0.24449974  0.42797893  1
  Te  Te137  1  0.58639092  0.24817002  0.74527267  1
  Te  Te138  1  0.60443613  0.59595609  0.07036755  1
  Te  Te139  1  0.57221569  0.58597757  0.41716559  1
  Te  Te140  1  0.63532826  0.58727269  0.75991618  1
  Te  Te141  1  0.58644335  0.91179296  0.09921269  1
  Te  Te142  1  0.56074196  0.90400498  0.42869274  1
  Te  Te143  1  0.56669484  0.92279412  0.76692625  1
  Te  Te144  1  0.92605374  0.22326535  0.10198817  1
  Te  Te145  1  0.93101081  0.23336872  0.42591655  1
  Te  Te146  1  0.90531875  0.22895736  0.69944120  1
  Te  Te147  1  0.92996962  0.58436965  0.07453120  1
  Te  Te148  1  0.93553650  0.59440011  0.36874826  1
  Te  Te149  1  0.88889803  0.61326385  0.77530810  1
  Te  Te150  1  0.91362536  0.87887298  0.09643362  1
  Te  Te151  1  0.90237513  0.92859137  0.42041432  1
  Te  Te152  1  0.95468141  0.90163285  0.78585516  1
  Te  Te153  1  0.23825459  0.06264649  0.24522084  1
  Te  Te154  1  0.21376536  0.10673996  0.61395746  1
  Te  Te155  1  0.26471116  0.11859303  0.87933165  1
  Te  Te156  1  0.23672935  0.41068415  0.25828950  1
  Te  Te157  1  0.26109740  0.39764874  0.59777554  1
  Te  Te158  1  0.23175497  0.41135015  0.90517446  1
  Te  Te159  1  0.25325024  0.74379291  0.24466325  1
  Te  Te160  1  0.22439145  0.75842675  0.58178009  1
  Te  Te161  1  0.26314793  0.75265231  0.90665201  1
  Te  Te162  1  0.58252383  0.08825538  0.26012320  1
  Te  Te163  1  0.58120733  0.07225919  0.58314816  1
  Te  Te164  1  0.56068203  0.06706033  0.92195417  1
  Te  Te165  1  0.57291069  0.43181485  0.24595264  1
  Te  Te166  1  0.58280439  0.41821309  0.60758779  1
  Te  Te167  1  0.55904117  0.42018447  0.90724968  1
  Te  Te168  1  0.59874093  0.74597225  0.26671698  1
  Te  Te169  1  0.61540303  0.75589163  0.60616821  1
  Te  Te170  1  0.60071297  0.75405732  0.91802758  1
  Te  Te171  1  0.90950309  0.07688261  0.23424653  1
  Te  Te172  1  0.94116900  0.09546868  0.62548222  1
  Te  Te173  1  0.92597600  0.10062497  0.89576808  1
  Te  Te174  1  0.94290387  0.41009001  0.23748428  1
  Te  Te175  1  0.91459017  0.40680731  0.58403709  1
  Te  Te176  1  0.91690568  0.42247596  0.91711860  1
  Te  Te177  1  0.95885082  0.79541514  0.21671049  1
  Te  Te178  1  0.92532105  0.75109731  0.58382008  1
  Te  Te179  1  0.87490518  0.77754653  0.94023083  1
