# generated using pymatgen
data_In2Te3
_symmetry_space_group_name_H-M   'P 1'
_cell_length_a   18.87619765
_cell_length_b   18.88394821
_cell_length_c   18.87741323
_cell_angle_alpha   89.98370472
_cell_angle_beta   89.99454802
_cell_angle_gamma   90.06648189
_symmetry_Int_Tables_number   1
_chemical_formula_structural   In2Te3
_chemical_formula_sum   'In72 Te108'
_cell_volume   6728.98388065
_cell_formula_units_Z   36
loop_
 _symmetry_equiv_pos_site_id
 _symmetry_equiv_pos_as_xyz
  1  'x, y, z'
loop_
 _atom_site_type_symbol
 _atom_site_label
 _atom_site_symmetry_multiplicity
 _atom_site_fract_x
 _atom_site_fract_y
 _atom_site_fract_z
 _atom_site_occupancy
  In  In0  1  0.17834246  0.82986669  0.31381279  1
  In  In1  1  0.47571250  0.16387340  0.33366596  1
  In  In2  1  0.68701533  0.65159816  0.34050818  1
  In  In3  1  0.15433868  0.32423978  0.83460847  1
  In  In4  1  0.34532846  0.67312413  0.00674563  1
  In  In5  1  0.88057508  0.45593116  -0.02664464  1
  In  In6  1  0.17213061  0.84666406  0.01136087  1
  In  In7  1  0.16226005  0.65024046  0.52340029  1
  In  In8  1  0.13567418  0.46486249  0.35258523  1
  In  In9  1  0.63588728  0.86843890  0.16428686  1
  In  In10  1  0.81454248  0.00064231  0.82634549  1
  In  In11  1  0.13628669  0.03734329  0.46870098  1
  In  In12  1  0.67655269  0.16618487  0.15890265  1
  In  In13  1  0.86138321  0.65780018  0.11661848  1
  In  In14  1  0.84843304  0.32818983  0.51158956  1
  In  In15  1  0.83529165  0.18661181  -0.00779624  1
  In  In16  1  0.51749861  0.36546289  0.14911205  1
  In  In17  1  0.82529716  0.63011922  0.50780477  1
  In  In18  1  0.49363411  0.32289022  0.49123664  1
  In  In19  1  0.51350860  0.03262637  0.84986218  1
  In  In20  1  0.16295735  0.18262829  0.66629636  1
  In  In21  1  0.83068770  0.83798613  -0.01526563  1
  In  In22  1  0.33098306  0.17830559  0.50093717  1
  In  In23  1  0.68547772  0.50574806  0.51980588  1
  In  In24  1  0.51811720  0.01976116  0.52595420  1
  In  In25  1  0.66865490  0.31499332  -0.00757241  1
  In  In26  1  0.16748878  0.18446350  -0.00329936  1
  In  In27  1  0.81807951  0.85178328  0.32292442  1
  In  In28  1  0.47994894  0.67041788  0.51891233  1
  In  In29  1  0.86013716  0.17900174  0.34019250  1
  In  In30  1  0.67524869  0.01185267  0.34842206  1
  In  In31  1  0.34291847  0.16233033  0.14275035  1
  In  In32  1  0.31659807  0.49164613  0.82827632  1
  In  In33  1  0.30382346  0.66945660  0.33897207  1
  In  In34  1  0.33697999  0.31751253  0.67421008  1
  In  In35  1  0.67535360  0.48952430  0.83235729  1
  In  In36  1  0.33776624  0.82587002  0.82948234  1
  In  In37  1  0.34962966  -0.00371625  0.66944785  1
  In  In38  1  0.00580473  0.63644134  0.68938482  1
  In  In39  1  0.83790188  0.16602830  0.66232429  1
  In  In40  1  0.18058595  0.64767455  0.16163783  1
  In  In41  1  0.67218915  0.68298243  -0.00845510  1
  In  In42  1  0.65379773  0.85542026  0.83554516  1
  In  In43  1  0.30295357  0.31946052  0.32356729  1
  In  In44  1  0.84621457  0.00303431  0.51971704  1
  In  In45  1  0.64032794  0.32423789  0.33459946  1
  In  In46  1  0.13993559  0.81045837  0.67701549  1
  In  In47  1  0.46502450  0.87147449  0.28941636  1
  In  In48  1  0.33260686  0.85870405  0.49141472  1
  In  In49  1  0.49706970  0.51293285  -0.00889014  1
  In  In50  1  0.17856809  0.47357604  0.66621339  1
  In  In51  1  0.17622481  0.01914374  0.84753383  1
  In  In52  1  0.64272543  0.82763268  0.50517707  1
  In  In53  1  0.83081395  0.82411986  0.66166877  1
  In  In54  1  -0.01152639  0.00665439  0.67177276  1
  In  In55  1  0.33644861  0.65664226  0.68558730  1
  In  In56  1  -0.00828673  0.34066750  0.67060153  1
  In  In57  1  0.65823251  0.31567838  0.69490505  1
  In  In58  1  0.49439658  0.48478956  0.33232560  1
  In  In59  1  0.85218329  0.66631199  0.84461551  1
  In  In60  1  0.17576690  0.01560414  0.18812739  1
  In  In61  1  0.10983218  0.32931640  0.16153897  1
  In  In62  1  0.51315189  0.68151160  0.16252164  1
  In  In63  1  0.49733779  0.50212893  0.68337515  1
  In  In64  1  -0.01480254  0.66133567  0.33879440  1
  In  In65  1  -0.01372009  0.83957074  0.48877383  1
  In  In66  1  0.01089513  0.83003888  0.14436888  1
  In  In67  1  0.00274948  0.00713589  -0.00593972  1
  In  In68  1  0.34648343  0.49107911  0.14698999  1
  In  In69  1  0.84352877  0.48601406  0.31406062  1
  In  In70  1  0.86181766  0.33516187  0.15170670  1
  In  In71  1  0.50724523  0.86980480  -0.00872663  1
  Te  Te72  1  0.08804721  0.08996986  0.08725787  1
  Te  Te73  1  0.05560100  0.10723937  0.36572663  1
  Te  Te74  1  0.07784527  0.09501589  0.75817706  1
  Te  Te75  1  0.07611729  0.42292433  0.05411006  1
  Te  Te76  1  0.06397833  0.37948328  0.44871700  1
  Te  Te77  1  0.07191737  0.43056333  0.76538334  1
  Te  Te78  1  0.08829964  0.72559466  0.06900785  1
  Te  Te79  1  0.09309363  0.74754006  0.41733388  1
  Te  Te80  1  0.06789578  0.73536862  0.77961434  1
  Te  Te81  1  0.43784798  0.05854233  0.09715048  1
  Te  Te82  1  0.40931653  0.06736846  0.43065112  1
  Te  Te83  1  0.41266620  0.09849402  0.75464711  1
  Te  Te84  1  0.41039718  0.39772972  0.04503397  1
  Te  Te85  1  0.39498314  0.40909342  0.41603840  1
  Te  Te86  1  0.42312993  0.39985222  0.76858353  1
  Te  Te87  1  0.42597549  0.77719697  0.08418214  1
  Te  Te88  1  0.41104788  0.75719217  0.40514765  1
  Te  Te89  1  0.42892677  0.75671365  0.73794490  1
  Te  Te90  1  0.77104951  0.08689181  0.08083226  1
  Te  Te91  1  0.76553502  0.10035580  0.43172300  1
  Te  Te92  1  0.73367369  0.07671090  0.72551354  1
  Te  Te93  1  0.76087645  0.41145041  0.06680583  1
  Te  Te94  1  0.74455044  0.41261152  0.41382760  1
  Te  Te95  1  0.76178530  0.41190915  0.73937882  1
  Te  Te96  1  0.73981087  0.77099001  0.09618641  1
  Te  Te97  1  0.76693805  0.75600256  0.43039701  1
  Te  Te98  1  0.75003503  0.75602707  0.77095250  1
  Te  Te99  1  0.08014275  0.22581351  0.26303916  1
  Te  Te100  1  0.08439084  0.27088795  0.57486793  1
  Te  Te101  1  0.05423614  0.25423637  0.92479526  1
  Te  Te102  1  0.08563970  0.57989204  0.25907872  1
  Te  Te103  1  0.07091464  0.54830070  0.58248986  1
  Te  Te104  1  0.01784992  0.52054061  0.94700464  1
  Te  Te105  1  0.07159990  0.91749303  0.25151567  1
  Te  Te106  1  0.08058439  0.91995901  0.57766495  1
  Te  Te107  1  0.08309062  0.91257839  0.90657681  1
  Te  Te108  1  0.42864465  0.27792970  0.24341774  1
  Te  Te109  1  0.43691457  0.22998230  0.59761035  1
  Te  Te110  1  0.47345005  0.17810564  0.89717785  1
  Te  Te111  1  0.41636152  0.58951067  0.24646059  1
  Te  Te112  1  0.39632238  0.56111832  0.58342965  1
  Te  Te113  1  0.41192491  0.59308622  0.89576170  1
  Te  Te114  1  0.38528362  0.97081899  0.21449523  1
  Te  Te115  1  0.43974340  0.90298691  0.58898832  1
  Te  Te116  1  0.40058196  0.93746732  0.90843515  1
  Te  Te117  1  0.75447559  0.26282815  0.25185928  1
  Te  Te118  1  0.73826117  0.24922768  0.58149358  1
  Te  Te119  1  0.74524012  0.24365448  0.88485810  1
  Te  Te120  1  0.77397579  0.59342690  0.23152904  1
  Te  Te121  1  0.73588260  0.60135083  0.62034730  1
  Te  Te122  1  0.76309438  0.57535285  0.93373663  1
  Te  Te123  1  0.75157031  0.95123399  0.23154164  1
  Te  Te124  1  0.73829696  0.91692253  0.58518525  1
  Te  Te125  1  0.72878447  0.93986028  0.93678093  1
  Te  Te126  1  0.24095006  0.26642078  0.10203539  1
  Te  Te127  1  0.22538054  0.23504577  0.41552726  1
  Te  Te128  1  0.25996614  0.23111023  0.77278280  1
  Te  Te129  1  0.24908778  0.56397870  0.05462794  1
  Te  Te130  1  0.23729465  0.56392058  0.42257710  1
  Te  Te131  1  0.22274959  0.59033522  0.75783822  1
  Te  Te132  1  0.25778547  0.93702736  0.08963326  1
  Te  Te133  1  0.23733983  0.93672418  0.40460910  1
  Te  Te134  1  0.23560237  0.91322383  0.74151347  1
  Te  Te135  1  0.56877156  0.23968972  0.08083328  1
  Te  Te136  1  0.58632875  0.21983429  0.42963616  1
  Te  Te137  1  0.57201608  0.23886056  0.78983698  1
  Te  Te138  1  0.59585867  0.58328249  0.08344079  1
  Te  Te139  1  0.57719764  0.58110623  0.42356343  1
  Te  Te140  1  0.58518185  0.58536973  0.76527731  1
  Te  Te141  1  0.57721447  0.97266806  0.07502943  1
  Te  Te142  1  0.57047901  0.91674239  0.40477764  1
  Te  Te143  1  0.57674631  0.94210320  0.74290744  1
  Te  Te144  1  0.94387832  0.23389256  0.08395055  1
  Te  Te145  1  0.94105649  0.29451611  0.39802796  1
  Te  Te146  1  0.91766314  0.24500323  0.76117310  1
  Te  Te147  1  0.95280669  0.54075073  0.08865032  1
  Te  Te148  1  0.92612726  0.55191234  0.42634211  1
  Te  Te149  1  0.90644431  0.55633235  0.76267556  1
  Te  Te150  1  0.91032998  0.92549299  0.08340320  1
  Te  Te151  1  0.91750918  0.93979967  0.39851048  1
  Te  Te152  1  0.91536605  0.90509195  0.75916100  1
  Te  Te153  1  0.27574632  0.10008260  0.26058740  1
  Te  Te154  1  0.24149111  0.07637051  0.58596309  1
  Te  Te155  1  0.26589525  0.09165994  0.93739214  1
  Te  Te156  1  0.24127651  0.43181722  0.24056189  1
  Te  Te157  1  0.25696694  0.39002069  0.57503866  1
  Te  Te158  1  0.24475738  0.40351008  0.92101796  1
  Te  Te159  1  0.27036493  0.75741250  0.21814392  1
  Te  Te160  1  0.25621306  0.75831686  0.57951068  1
  Te  Te161  1  0.24442655  0.74694612  0.91910729  1
  Te  Te162  1  0.58290060  0.08964963  0.25571328  1
  Te  Te163  1  0.60321610  0.06765604  0.63511804  1
  Te  Te164  1  0.62362868  0.13140672  0.89718034  1
  Te  Te165  1  0.60979653  0.44269573  0.24192333  1
  Te  Te166  1  0.58064847  0.40971499  0.58373726  1
  Te  Te167  1  0.57601759  0.40790796  0.91351236  1
  Te  Te168  1  0.59781695  0.75365741  0.26745502  1
  Te  Te169  1  0.59065111  0.72612525  0.59800829  1
  Te  Te170  1  0.56619299  0.75383139  0.91115886  1
  Te  Te171  1  0.95508466  0.12348915  0.24058866  1
  Te  Te172  1  0.94460913  0.10920918  0.56739307  1
  Te  Te173  1  0.91523794  0.08610894  0.89962325  1
  Te  Te174  1  0.95063467  0.41344334  0.24184228  1
  Te  Te175  1  0.88473687  0.42896986  0.61339614  1
  Te  Te176  1  0.92245647  0.33478169  0.89485966  1
  Te  Te177  1  0.91241525  0.75730275  0.24533297  1
  Te  Te178  1  0.92991422  0.73539850  0.58467376  1
  Te  Te179  1  0.92948503  0.73317268  0.95290755  1
