# generated using pymatgen
data_In2Te3
_symmetry_space_group_name_H-M   'P 1'
_cell_length_a   18.96555958
_cell_length_b   18.97704658
_cell_length_c   18.96092118
_cell_angle_alpha   89.93173010
_cell_angle_beta   89.84420973
_cell_angle_gamma   89.90742304
_symmetry_Int_Tables_number   1
_chemical_formula_structural   In2Te3
_chemical_formula_sum   'In72 Te108'
_cell_volume   6824.19202869
_cell_formula_units_Z   36
loop_
 _symmetry_equiv_pos_site_id
 _symmetry_equiv_pos_as_xyz
  1  'x, y, z'
loop_
 _atom_site_type_symbol
 _atom_site_label
 _atom_site_symmetry_multiplicity
 _atom_site_fract_x
 _atom_site_fract_y
 _atom_site_fract_z
 _atom_site_occupancy
  In  In0  1  0.47945175  0.00417131  0.52811763  1
  In  In1  1  -0.01152136  -0.00511573  0.64010842  1
  In  In2  1  0.19193696  0.67246375  0.86622079  1
  In  In3  1  0.18889063  0.16529875  0.30522076  1
  In  In4  1  -0.00957687  0.13712725  0.17476571  1
  In  In5  1  -0.01824279  0.52468149  0.82245119  1
  In  In6  1  0.01679601  0.82425950  0.18329447  1
  In  In7  1  0.00359570  0.68614679  -0.01077745  1
  In  In8  1  0.03138604  0.51656684  0.46867397  1
  In  In9  1  -0.00556230  0.33399650  0.67239382  1
  In  In10  1  0.86677732  0.66989975  0.18673859  1
  In  In11  1  0.33275347  0.87271719  0.54104422  1
  In  In12  1  0.00383264  0.16808880  0.49109149  1
  In  In13  1  0.77950178  0.11711485  0.31158159  1
  In  In14  1  0.52502503  0.81442730  0.35987834  1
  In  In15  1  0.34094502  -0.00888081  0.33743849  1
  In  In16  1  0.47499282  0.85622451  -0.02021423  1
  In  In17  1  0.46849855  0.16204220  0.69261749  1
  In  In18  1  0.14650405  0.32504941  0.82247395  1
  In  In19  1  0.33976978  0.50019642  0.83838682  1
  In  In20  1  0.64153299  -0.00625508  -0.01529401  1
  In  In21  1  0.66722725  0.34652775  0.64781864  1
  In  In22  1  0.36535972  0.66202229  0.35525625  1
  In  In23  1  0.84123167  0.15004171  0.64889749  1
  In  In24  1  0.62515285  0.32581074  0.00193224  1
  In  In25  1  0.82768088  -0.01963815  0.18350117  1
  In  In26  1  0.55539855  0.64261323  0.54017148  1
  In  In27  1  0.19019544  0.83168242  0.72746929  1
  In  In28  1  -0.01493386  0.68365378  0.63792516  1
  In  In29  1  0.82386625  0.81969304  0.66423916  1
  In  In30  1  0.02540064  0.51022801  0.18205751  1
  In  In31  1  0.67625014  0.65069343  0.00166026  1
  In  In32  1  0.37325088  0.66297311  0.68510063  1
  In  In33  1  0.66355076  0.34475945  0.33112100  1
  In  In34  1  0.83562385  0.32872623  0.51911152  1
  In  In35  1  0.32351732  0.85979783  0.15388824  1
  In  In36  1  0.00160437  0.16233290  0.82701978  1
  In  In37  1  0.47347560  0.33212555  0.84849842  1
  In  In38  1  0.81151279  0.15717071  -0.01446627  1
  In  In39  1  0.33165715  0.34744060  0.66615900  1
  In  In40  1  0.83244078  0.49960731  -0.02004905  1
  In  In41  1  0.02750480  0.30554597  0.36662882  1
  In  In42  1  0.16010979  0.82420408  0.31070977  1
  In  In43  1  0.48449806  0.18106982  0.31056303  1
  In  In44  1  0.33628136  0.32355693  -0.01244957  1
  In  In45  1  -0.01447684  0.82131632  0.83015456  1
  In  In46  1  0.63962894  0.17631246  0.15137860  1
  In  In47  1  0.49556362  0.49200774  0.36014719  1
  In  In48  1  0.02569807  0.00387996  -0.01679208  1
  In  In49  1  -0.00520930  0.66719739  0.32076137  1
  In  In50  1  0.18990847  0.67934961  0.49309943  1
  In  In51  1  0.64800573  -0.00816501  0.67974820  1
  In  In52  1  0.18229737  0.32226986  0.48976837  1
  In  In53  1  0.51280037  0.65787196  0.82765410  1
  In  In54  1  0.84411974  0.48259513  0.34652115  1
  In  In55  1  0.66100955  0.82813686  0.51376988  1
  In  In56  1  0.26234767  0.38144387  0.16319425  1
  In  In57  1  0.83789498  0.34201297  0.13781874  1
  In  In58  1  0.74689165  0.55514220  0.67179360  1
  In  In59  1  0.66918612  0.84515733  0.18927088  1
  In  In60  1  0.48531796  0.67682451  0.16564826  1
  In  In61  1  0.66386848  0.16969391  0.83244345  1
  In  In62  1  0.45526853  0.02048698  0.15624998  1
  In  In63  1  0.50411448  0.32289414  0.49788556  1
  In  In64  1  0.64578928  0.51581505  0.18125758  1
  In  In65  1  0.21328199  0.13455427  -0.01360719  1
  In  In66  1  0.13916737  -0.01190085  0.51211260  1
  In  In67  1  0.83241857  0.83548569  -0.00144053  1
  In  In68  1  0.19676742  0.14598466  0.67046805  1
  In  In69  1  0.02795046  0.35916595  0.01226353  1
  In  In70  1  0.21368788  0.64031130  0.14519176  1
  In  In71  1  0.65479809  0.83696958  0.81871710  1
  Te  Te72  1  0.10147782  0.08237980  0.08530410  1
  Te  Te73  1  0.09850042  0.08980705  0.40479608  1
  Te  Te74  1  0.07930050  0.07031959  0.73680114  1
  Te  Te75  1  0.12605335  0.43153805  0.10067672  1
  Te  Te76  1  0.11598020  0.42319832  0.38518444  1
  Te  Te77  1  0.07963919  0.43585528  0.74374082  1
  Te  Te78  1  0.09927449  0.73350401  0.09465738  1
  Te  Te79  1  0.07318784  0.75759697  0.42460568  1
  Te  Te80  1  0.07789896  0.72344176  0.75896909  1
  Te  Te81  1  0.39432031  0.08905220  0.04130281  1
  Te  Te82  1  0.41869073  0.09080371  0.41843841  1
  Te  Te83  1  0.37909467  0.06847016  0.76206835  1
  Te  Te84  1  0.37233494  0.44064117  0.07290191  1
  Te  Te85  1  0.40115192  0.38695442  0.40745164  1
  Te  Te86  1  0.43202028  0.43276695  0.73945263  1
  Te  Te87  1  0.40131511  0.75843369  0.06921299  1
  Te  Te88  1  0.40899164  0.77361007  0.44605025  1
  Te  Te89  1  0.41079127  0.75759565  0.79121924  1
  Te  Te90  1  0.74390815  0.06831410  0.09003262  1
  Te  Te91  1  0.70399479  0.04539142  0.41015667  1
  Te  Te92  1  0.75275664  0.07897629  0.75124264  1
  Te  Te93  1  0.72969173  0.43009946  0.08045440  1
  Te  Te94  1  0.74126670  0.41901321  0.43754303  1
  Te  Te95  1  0.77435890  0.41848223  0.71752995  1
  Te  Te96  1  0.76033458  0.74778548  0.10035948  1
  Te  Te97  1  0.72427950  0.72588410  0.42940624  1
  Te  Te98  1  0.72315868  0.73533533  0.73474792  1
  Te  Te99  1  0.07619965  0.24723401  0.23688362  1
  Te  Te100  1  0.08582416  0.23671485  0.59850038  1
  Te  Te101  1  0.08498048  0.23640511  0.93032442  1
  Te  Te102  1  0.11718379  0.59909105  0.26051591  1
  Te  Te103  1  0.09539739  0.59472672  0.58014431  1
  Te  Te104  1  0.08495444  0.57786138  0.92256805  1
  Te  Te105  1  0.09594229  0.93341797  0.23848436  1
  Te  Te106  1  0.09547665  0.88430967  0.61863938  1
  Te  Te107  1  0.09117830  0.89368612  0.90752851  1
  Te  Te108  1  0.41416424  0.25024902  0.20378291  1
  Te  Te109  1  0.40400571  0.24407362  0.58255096  1
  Te  Te110  1  0.41707619  0.21559275  0.92155457  1
  Te  Te111  1  0.41262391  0.56668900  0.24240960  1
  Te  Te112  1  0.42522598  0.58320513  0.57388338  1
  Te  Te113  1  0.40366650  0.60618103  0.92185824  1
  Te  Te114  1  0.43600253  0.89681329  0.25808295  1
  Te  Te115  1  0.45132740  0.89608119  0.62801220  1
  Te  Te116  1  0.37459920  0.96443749  0.95524764  1
  Te  Te117  1  0.74892976  0.25604247  0.23174565  1
  Te  Te118  1  0.73696464  0.22818013  0.57312529  1
  Te  Te119  1  0.74082794  0.27247797  0.91735404  1
  Te  Te120  1  0.76670295  0.57475629  0.25250018  1
  Te  Te121  1  0.71438149  0.62178514  0.53592353  1
  Te  Te122  1  0.73354777  0.56605490  0.89624211  1
  Te  Te123  1  0.73868223  0.92605059  0.29244258  1
  Te  Te124  1  0.74820480  0.92759526  0.58618945  1
  Te  Te125  1  0.75086783  0.92261774  0.90745903  1
  Te  Te126  1  0.24456470  0.24785892  0.08255332  1
  Te  Te127  1  0.26788180  0.24561962  0.39964035  1
  Te  Te128  1  0.26131175  0.24981111  0.76026254  1
  Te  Te129  1  0.29855780  0.57667414  0.04092700  1
  Te  Te130  1  0.27540624  0.57573392  0.43369816  1
  Te  Te131  1  0.25275489  0.59054735  0.75381357  1
  Te  Te132  1  0.24491020  0.91167807  0.04054079  1
  Te  Te133  1  0.24370981  0.90218653  0.41743988  1
  Te  Te134  1  0.27549511  0.95149003  0.75030469  1
  Te  Te135  1  0.52671184  0.26181658  0.10054701  1
  Te  Te136  1  0.58994061  0.23632717  0.40604322  1
  Te  Te137  1  0.57782736  0.26362628  0.74914744  1
  Te  Te138  1  0.56180360  0.58105604  0.07362223  1
  Te  Te139  1  0.59496346  0.59185663  0.40446631  1
  Te  Te140  1  0.61369761  0.59497064  0.74044413  1
  Te  Te141  1  0.57194693  0.91108927  0.09158807  1
  Te  Te142  1  0.57777108  0.93840061  0.43022072  1
  Te  Te143  1  0.56200338  0.94770471  0.79174085  1
  Te  Te144  1  0.91545425  0.22841640  0.07291585  1
  Te  Te145  1  0.89655386  0.24503282  0.40638991  1
  Te  Te146  1  0.89975981  0.24598020  0.75139516  1
  Te  Te147  1  0.92488444  0.57221095  0.07867079  1
  Te  Te148  1  0.90927157  0.59457709  0.42427463  1
  Te  Te149  1  0.89599260  0.58785373  0.71561347  1
  Te  Te150  1  0.92977593  0.91737539  0.08082896  1
  Te  Te151  1  1.02343562  0.89672778  0.47087570  1
  Te  Te152  1  0.90770483  0.91862661  0.74516850  1
  Te  Te153  1  0.27702139  0.07027128  0.23186386  1
  Te  Te154  1  0.25834709  0.06214374  0.56820898  1
  Te  Te155  1  0.24418195  0.05407912  0.86562099  1
  Te  Te156  1  0.30874781  0.44908949  0.28523777  1
  Te  Te157  1  0.23128917  0.41834265  0.58710496  1
  Te  Te158  1  0.23823143  0.41066168  0.90734674  1
  Te  Te159  1  0.27364984  0.74305515  0.25108465  1
  Te  Te160  1  0.25938350  0.75466176  0.60919016  1
  Te  Te161  1  0.22810690  0.79736863  0.93476821  1
  Te  Te162  1  0.57064895  0.07330067  0.23660625  1
  Te  Te163  1  0.57286941  0.09800239  0.60163237  1
  Te  Te164  1  0.57020988  0.10934903  0.93004282  1
  Te  Te165  1  0.56010223  0.40870108  0.24321268  1
  Te  Te166  1  0.57284389  0.42779819  0.57269697  1
  Te  Te167  1  0.55772158  0.42672609  0.92161786  1
  Te  Te168  1  0.59652695  0.72901431  0.25488650  1
  Te  Te169  1  0.55866096  0.77562183  0.60789926  1
  Te  Te170  1  0.59046988  0.75841655  0.93743085  1
  Te  Te171  1  0.91636512  0.05809187  0.28182983  1
  Te  Te172  1  0.90144243  0.06552146  0.53715659  1
  Te  Te173  1  0.91145894  0.07061745  0.90860586  1
  Te  Te174  1  0.92799507  0.40975467  0.24154843  1
  Te  Te175  1  0.94676914  0.42200211  0.55914790  1
  Te  Te176  1  0.92797950  0.40574942  0.90872642  1
  Te  Te177  1  0.90503874  0.78500107  0.27888180  1
  Te  Te178  1  0.90837963  0.77497727  0.55172579  1
  Te  Te179  1  0.88618180  0.72984519  0.90341133  1
