# generated using pymatgen
data_In2Te3
_symmetry_space_group_name_H-M   'P 1'
_cell_length_a   18.97877484
_cell_length_b   18.95436114
_cell_length_c   18.94183288
_cell_angle_alpha   89.99558258
_cell_angle_beta   90.08429412
_cell_angle_gamma   90.12699168
_symmetry_Int_Tables_number   1
_chemical_formula_structural   In2Te3
_chemical_formula_sum   'In72 Te108'
_cell_volume   6813.93187597
_cell_formula_units_Z   36
loop_
 _symmetry_equiv_pos_site_id
 _symmetry_equiv_pos_as_xyz
  1  'x, y, z'
loop_
 _atom_site_type_symbol
 _atom_site_label
 _atom_site_symmetry_multiplicity
 _atom_site_fract_x
 _atom_site_fract_y
 _atom_site_fract_z
 _atom_site_occupancy
  In  In0  1  -0.00778996  0.67960997  0.32369717  1
  In  In1  1  0.48406830  0.66380909  0.17066131  1
  In  In2  1  0.21618182  0.30671232  0.44464535  1
  In  In3  1  0.30733332  0.52647169  0.90853742  1
  In  In4  1  0.49606407  0.17729284  0.27840346  1
  In  In5  1  0.48680516  0.65467811  0.84966312  1
  In  In6  1  0.00692873  0.65843152  -0.01592221  1
  In  In7  1  0.51732217  0.69406610  0.49573342  1
  In  In8  1  0.49052252  0.35433754  0.49026919  1
  In  In9  1  0.33798332  0.64113043  0.31577029  1
  In  In10  1  0.84225111  0.83517871  0.64052408  1
  In  In11  1  0.47726637  0.83748493  0.32905992  1
  In  In12  1  0.82873124  -0.00611504  0.84949158  1
  In  In13  1  0.32756329  0.50155356  0.50191621  1
  In  In14  1  0.19433420  0.15923063  0.00894635  1
  In  In15  1  0.01133736  0.35469545  0.65565907  1
  In  In16  1  0.49858294  0.00275029  0.49618497  1
  In  In17  1  0.84116547  0.15535102  0.65265024  1
  In  In18  1  -0.02850038  -0.02119368  0.34391552  1
  In  In19  1  0.49179228  0.32234351  0.87608144  1
  In  In20  1  0.00393273  0.52494312  0.49928104  1
  In  In21  1  0.34716425  0.16162291  0.84656068  1
  In  In22  1  0.62786350  0.16035789  0.86693401  1
  In  In23  1  0.49887519  0.17608732  0.66735699  1
  In  In24  1  0.80737204  0.17373462  0.32285592  1
  In  In25  1  0.19330254  0.83337114  0.00983794  1
  In  In26  1  0.69845633  -0.01274450  0.67988611  1
  In  In27  1  0.65052303  0.49717457  0.47353877  1
  In  In28  1  0.32040039  0.68729859  0.66017646  1
  In  In29  1  0.17062139  -0.03092032  0.48766995  1
  In  In30  1  0.18621214  0.15419383  0.65234870  1
  In  In31  1  0.82708795  0.52131481  0.66002078  1
  In  In32  1  0.35238792  0.01657293  0.29944559  1
  In  In33  1  0.67768076  0.15933800  0.48901158  1
  In  In34  1  0.66518667  0.68568452  -0.00161318  1
  In  In35  1  0.81579323  0.84673748  0.02420510  1
  In  In36  1  -0.01223538  0.16063576  0.14803960  1
  In  In37  1  0.83162222  0.34361556  0.18346302  1
  In  In38  1  0.79407187  0.14232688  -0.00886824  1
  In  In39  1  0.66343931  0.48509541  0.84688473  1
  In  In40  1  0.01353077  -0.01025439  -0.02139906  1
  In  In41  1  0.00269407  0.82213258  0.81132636  1
  In  In42  1  0.34692508  0.85036791  0.83610060  1
  In  In43  1  -0.00899452  0.15716513  0.47949260  1
  In  In44  1  0.02712513  0.18145978  0.81580583  1
  In  In45  1  -0.00474667  0.34406696  -0.00669042  1
  In  In46  1  0.81973602  0.33320819  0.85005912  1
  In  In47  1  0.67878603  0.70055062  0.65067761  1
  In  In48  1  0.34739988  0.83129101  0.18114963  1
  In  In49  1  0.21619657  0.36257117  0.86489668  1
  In  In50  1  0.00899700  0.02389997  0.64357386  1
  In  In51  1  0.34104767  0.01246373  0.02892074  1
  In  In52  1  0.17110100  0.83101321  0.31606802  1
  In  In53  1  -0.00055376  0.50226665  0.15501255  1
  In  In54  1  -0.01433102  0.82832695  0.49769765  1
  In  In55  1  -0.01795606  0.33765385  0.33336943  1
  In  In56  1  0.17932315  0.67512457  0.84125197  1
  In  In57  1  0.34866871  0.34603304  0.66508706  1
  In  In58  1  0.18088262  0.31541512  0.21331632  1
  In  In59  1  0.66741187  0.51288651  0.20519680  1
  In  In60  1  0.61224355  0.01373717  0.05119706  1
  In  In61  1  0.64197067  0.33979268  0.31674795  1
  In  In62  1  0.16444178  0.49292195  0.33254626  1
  In  In63  1  0.50708193  0.51741904  0.68858606  1
  In  In64  1  0.64432694  0.83182822  0.82828671  1
  In  In65  1  0.83476573  0.49622036  0.01756078  1
  In  In66  1  -0.00876810  0.83559711  0.14959494  1
  In  In67  1  0.32606776  -0.02367204  0.64931625  1
  In  In68  1  0.67621809  0.69663514  0.35539111  1
  In  In69  1  0.16702301  0.50432580  0.67456600  1
  In  In70  1  0.67813116  -0.04007222  0.29545101  1
  In  In71  1  0.86378308  0.66023562  0.82369340  1
  Te  Te72  1  0.09109536  0.07228743  0.08093491  1
  Te  Te73  1  0.08544278  0.06471624  0.40580515  1
  Te  Te74  1  0.10607598  0.06955199  0.75237147  1
  Te  Te75  1  0.08200212  0.38530519  0.10893105  1
  Te  Te76  1  0.08800652  0.39612880  0.42514974  1
  Te  Te77  1  0.10260683  0.40250346  0.76597324  1
  Te  Te78  1  0.09037603  0.74426066  0.07913612  1
  Te  Te79  1  0.09042370  0.75227867  0.41565709  1
  Te  Te80  1  0.07801449  0.71648438  0.74399426  1
  Te  Te81  1  0.43957471  0.11086277  0.08556634  1
  Te  Te82  1  0.43374843  0.09715150  0.39903167  1
  Te  Te83  1  0.40720171  0.07752955  0.73666457  1
  Te  Te84  1  0.52619285  0.34419632  0.12705943  1
  Te  Te85  1  0.38883448  0.41309335  0.40275056  1
  Te  Te86  1  0.42644952  0.41838715  0.77076071  1
  Te  Te87  1  0.40889930  0.74987654  0.07700302  1
  Te  Te88  1  0.39712957  0.74213945  0.41556684  1
  Te  Te89  1  0.42465536  0.75100886  0.74990134  1
  Te  Te90  1  0.73782668  0.07046066  0.10393339  1
  Te  Te91  1  0.74410249  0.05906962  0.39896710  1
  Te  Te92  1  0.75023389  0.10291922  0.77402273  1
  Te  Te93  1  0.73336753  0.42075546  0.09608284  1
  Te  Te94  1  0.73968436  0.40376476  0.40663825  1
  Te  Te95  1  0.74903755  0.41661137  0.74407513  1
  Te  Te96  1  0.73809754  0.75413345  0.11066123  1
  Te  Te97  1  0.75094161  0.78666250  0.44583934  1
  Te  Te98  1  0.76937031  0.76870920  0.76609418  1
  Te  Te99  1  0.06078261  0.23110848  0.26139072  1
  Te  Te100  1  0.06857022  0.22971196  0.58945727  1
  Te  Te101  1  0.10233148  0.25390735  0.92758983  1
  Te  Te102  1  0.08655069  0.58888697  0.24331423  1
  Te  Te103  1  0.10844980  0.59452780  0.57586382  1
  Te  Te104  1  0.10475322  0.56409839  0.91919994  1
  Te  Te105  1  0.07341623  0.92230819  0.24547276  1
  Te  Te106  1  0.08157823  0.90318252  0.59076304  1
  Te  Te107  1  0.10172698  0.89404217  0.90264152  1
  Te  Te108  1  0.41928690  0.28488020  0.21318844  1
  Te  Te109  1  0.40940429  0.24701299  0.56825314  1
  Te  Te110  1  0.41486484  0.22629839  0.96536544  1
  Te  Te111  1  0.38367930  0.55688650  0.20222289  1
  Te  Te112  1  0.42180159  0.59079123  0.58388982  1
  Te  Te113  1  0.44358632  0.55925369  0.95265277  1
  Te  Te114  1  0.45961884  0.94131392  0.21079728  1
  Te  Te115  1  0.42243811  0.89978926  0.56903041  1
  Te  Te116  1  0.42396308  0.93158940  0.93404207  1
  Te  Te117  1  0.72104239  0.24819942  0.22350044  1
  Te  Te118  1  0.74596518  0.24443690  0.58845285  1
  Te  Te119  1  0.72000067  0.26332540  0.93993870  1
  Te  Te120  1  0.75836064  0.59999062  0.28090738  1
  Te  Te121  1  0.73496222  0.59377212  0.56323647  1
  Te  Te122  1  0.75995277  0.59345008  0.91598385  1
  Te  Te123  1  0.77032332  0.86386314  0.23007757  1
  Te  Te124  1  0.73397059  0.90137818  0.56262823  1
  Te  Te125  1  0.72425590  0.92130022  0.92967756  1
  Te  Te126  1  0.26580401  0.22435576  0.12355453  1
  Te  Te127  1  0.27284045  0.23035851  0.33325662  1
  Te  Te128  1  0.25922166  0.24981992  0.75098554  1
  Te  Te129  1  0.21497860  0.55358661  0.02320592  1
  Te  Te130  1  0.23767765  0.59275132  0.42147130  1
  Te  Te131  1  0.27606033  0.57252364  0.75636325  1
  Te  Te132  1  0.24757141  0.92724043  0.11410278  1
  Te  Te133  1  0.27313464  0.91770768  0.38707753  1
  Te  Te134  1  0.24005265  0.88535690  0.73450198  1
  Te  Te135  1  0.55273053  0.21379495  0.06106127  1
  Te  Te136  1  0.57309000  0.24480526  0.41849241  1
  Te  Te137  1  0.57875240  0.26126509  0.76365518  1
  Te  Te138  1  0.59589834  0.59151539  0.09440259  1
  Te  Te139  1  0.56177687  0.59160390  0.39723718  1
  Te  Te140  1  0.60947003  0.60567630  0.75931498  1
  Te  Te141  1  0.57446182  0.89292263  0.12442394  1
  Te  Te142  1  0.58195343  0.91300785  0.40729287  1
  Te  Te143  1  0.57992330  0.93468526  0.74719868  1
  Te  Te144  1  0.89637298  0.25694366  0.07131853  1
  Te  Te145  1  0.89060580  0.25471422  0.42163131  1
  Te  Te146  1  0.91727938  0.26340186  0.74961537  1
  Te  Te147  1  0.90778811  0.60643767  0.09006147  1
  Te  Te148  1  0.90979655  0.59762554  0.41452691  1
  Te  Te149  1  0.94173658  0.57303994  0.73728929  1
  Te  Te150  1  0.91180151  0.94791081  0.08288533  1
  Te  Te151  1  0.87658077  0.88216495  0.40979060  1
  Te  Te152  1  0.92007287  0.93824842  0.74282433  1
  Te  Te153  1  0.25959708  0.11056404  0.23387081  1
  Te  Te154  1  0.26170571  0.07535884  0.54918619  1
  Te  Te155  1  0.25166483  0.06125605  0.90900216  1
  Te  Te156  1  0.25995775  0.44037836  0.23235981  1
  Te  Te157  1  0.23539075  0.39707789  0.57711868  1
  Te  Te158  1  0.28363387  0.40217920  0.99201556  1
  Te  Te159  1  0.24550263  0.73038358  0.23176223  1
  Te  Te160  1  0.24990209  0.80243959  0.60438614  1
  Te  Te161  1  0.28362261  0.74441027  0.92747414  1
  Te  Te162  1  0.60422176  0.08475908  0.24352593  1
  Te  Te163  1  0.59586753  0.08100357  0.59626930  1
  Te  Te164  1  0.55388850  0.04330110  0.91647782  1
  Te  Te165  1  0.54827943  0.44236645  0.26274317  1
  Te  Te166  1  0.57880575  0.42516018  0.59192014  1
  Te  Te167  1  0.56650296  0.43336789  0.94292228  1
  Te  Te168  1  0.57586419  0.75280980  0.25315727  1
  Te  Te169  1  0.56716975  0.78143236  0.60245373  1
  Te  Te170  1  0.55564134  0.76529886  0.93148161  1
  Te  Te171  1  0.90586691  0.08310931  0.25147899  1
  Te  Te172  1  0.89650029  0.05935329  0.54919976  1
  Te  Te173  1  0.92904515  0.10266405  0.90922644  1
  Te  Te174  1  0.90587999  0.44786154  0.26365003  1
  Te  Te175  1  0.91043542  0.42566565  0.57120490  1
  Te  Te176  1  0.91792962  0.43794898  0.90367966  1
  Te  Te177  1  0.89768729  0.77153322  0.24826805  1
  Te  Te178  1  0.92827015  0.72965322  0.59172013  1
  Te  Te179  1  0.91180870  0.77150759  0.93101892  1
