# generated using pymatgen
data_In2Te3
_symmetry_space_group_name_H-M   'P 1'
_cell_length_a   19.01311462
_cell_length_b   19.00874466
_cell_length_c   18.99206992
_cell_angle_alpha   90.37168294
_cell_angle_beta   90.26113073
_cell_angle_gamma   89.88904004
_symmetry_Int_Tables_number   1
_chemical_formula_structural   In2Te3
_chemical_formula_sum   'In72 Te108'
_cell_volume   6863.79913180
_cell_formula_units_Z   36
loop_
 _symmetry_equiv_pos_site_id
 _symmetry_equiv_pos_as_xyz
  1  'x, y, z'
loop_
 _atom_site_type_symbol
 _atom_site_label
 _atom_site_symmetry_multiplicity
 _atom_site_fract_x
 _atom_site_fract_y
 _atom_site_fract_z
 _atom_site_occupancy
  In  In0  1  -0.01961999  0.35370651  -0.00590858  1
  In  In1  1  0.32860545  -0.04336506  0.00881386  1
  In  In2  1  0.14383709  0.69566750  0.15123348  1
  In  In3  1  0.84714910  0.82016271  0.33884979  1
  In  In4  1  0.48594859  0.84928930  0.32715726  1
  In  In5  1  -0.01356200  0.02253963  0.66455721  1
  In  In6  1  0.15798039  0.47578486  0.34819735  1
  In  In7  1  0.01570994  0.17468321  0.17850299  1
  In  In8  1  0.17466796  0.36512332  0.55297146  1
  In  In9  1  0.01764189  0.16924592  0.49584719  1
  In  In10  1  0.65086002  0.20441109  0.49648694  1
  In  In11  1  0.18105650  -0.03440166  0.48997420  1
  In  In12  1  0.81028615  0.18066317  0.00365645  1
  In  In13  1  0.85863550  0.16650132  0.34103769  1
  In  In14  1  0.84958601  0.66922726  0.49476029  1
  In  In15  1  0.16491526  -0.03524436  0.80446716  1
  In  In16  1  0.85612614  -0.00247639  0.15072898  1
  In  In17  1  0.35213587  0.14976758  0.84391265  1
  In  In18  1  0.34413859  0.13213144  0.16034631  1
  In  In19  1  0.68185863  0.35678376  0.32616695  1
  In  In20  1  0.49085515  0.52115944  -0.00871254  1
  In  In21  1  0.65781341  0.34259549  0.00972793  1
  In  In22  1  -0.00992473  -0.00959033  -0.00247398  1
  In  In23  1  0.67184093  -0.02202629  -0.00524097  1
  In  In24  1  0.33104949  0.82152002  0.14314905  1
  In  In25  1  0.16835545  0.32988577  0.81229442  1
  In  In26  1  0.00594549  0.52709110  0.16537586  1
  In  In27  1  0.84293475  0.83504203  0.64412842  1
  In  In28  1  0.67619983  0.68836577  0.67802679  1
  In  In29  1  0.11753347  -0.03178163  0.21269815  1
  In  In30  1  0.63962449  0.00307374  0.31926971  1
  In  In31  1  0.47446457  0.34680392  0.51744501  1
  In  In32  1  0.34055857  0.82770887  0.48988594  1
  In  In33  1  -0.00537462  0.79956021  0.83972411  1
  In  In34  1  0.33382412  0.34602699  0.35458115  1
  In  In35  1  0.68978543  0.66301070  -0.00141455  1
  In  In36  1  0.47982774  0.66687608  0.84553131  1
  In  In37  1  0.63619712  0.31078307  0.67258101  1
  In  In38  1  0.67376861  0.48621478  0.49782770  1
  In  In39  1  0.45204863  0.49812588  0.68791881  1
  In  In40  1  0.28846957  0.64078047  0.67315733  1
  In  In41  1  0.17026881  0.16959929  -0.02797248  1
  In  In42  1  0.82027305  0.01958587  0.81732392  1
  In  In43  1  -0.02379369  0.34863824  0.66189585  1
  In  In44  1  0.50372031  0.83894768  0.00012444  1
  In  In45  1  0.48378740  0.80961028  0.67551049  1
  In  In46  1  0.50275381  0.68360840  0.17598527  1
  In  In47  1  0.84168661  0.34678411  0.82957744  1
  In  In48  1  0.17522932  0.12926659  0.67186742  1
  In  In49  1  0.52274959  0.64452068  0.50153613  1
  In  In50  1  0.82356589  0.38449872  0.16621902  1
  In  In51  1  0.35208385  0.33439702  -0.04638669  1
  In  In52  1  0.31690375  0.51925262  0.13902576  1
  In  In53  1  -0.00399732  0.82152996  0.50335095  1
  In  In54  1  0.46429916  0.14287164  0.43899050  1
  In  In55  1  0.17850365  0.30261960  0.16376644  1
  In  In56  1  0.85661625  0.52254128  0.69061274  1
  In  In57  1  0.79478752  -0.00898076  0.48851700  1
  In  In58  1  0.32052397  0.63363995  0.33223438  1
  In  In59  1  0.85245012  0.53665501  0.32540796  1
  In  In60  1  0.12464405  0.51208035  -0.01657924  1
  In  In61  1  0.85879621  0.68068656  0.16505357  1
  In  In62  1  0.49453629  0.33314208  0.18833112  1
  In  In63  1  0.66458191  0.50592910  0.82719845  1
  In  In64  1  0.51490496  -0.00122633  0.84805036  1
  In  In65  1  0.15898150  0.76307070  0.65026412  1
  In  In66  1  0.19835160  0.16215131  0.35597307  1
  In  In67  1  0.66778466  0.83503855  0.17159179  1
  In  In68  1  0.80727208  0.17731858  0.66529584  1
  In  In69  1  0.69296681  0.84510562  0.82594381  1
  In  In70  1  0.33825598  -0.00889853  0.66503615  1
  In  In71  1  0.64960053  0.17505415  0.20044999  1
  Te  Te72  1  0.08093302  0.09334100  0.06744008  1
  Te  Te73  1  0.09454063  0.06825295  0.41508150  1
  Te  Te74  1  0.07356859  0.08319955  0.77309489  1
  Te  Te75  1  0.08979227  0.40508285  0.09340876  1
  Te  Te76  1  0.07808788  0.42359024  0.45936379  1
  Te  Te77  1  0.07261111  0.42580337  0.74838753  1
  Te  Te78  1  0.03915442  0.75410219  0.06370156  1
  Te  Te79  1  0.10561881  0.77539642  0.41348312  1
  Te  Te80  1  0.12393164  0.73569753  0.79708843  1
  Te  Te81  1  0.41835116  0.06288816  0.05712856  1
  Te  Te82  1  0.35317692  0.05721596  0.39992477  1
  Te  Te83  1  0.43654012  0.07654487  0.74045699  1
  Te  Te84  1  0.41468831  0.41335692  0.07614030  1
  Te  Te85  1  0.42036166  0.44479598  0.42049996  1
  Te  Te86  1  0.40376713  0.37153830  0.74443661  1
  Te  Te87  1  0.41998571  0.72675393  0.05825100  1
  Te  Te88  1  0.42286793  0.72706160  0.40724232  1
  Te  Te89  1  0.37969470  0.73633493  0.75589337  1
  Te  Te90  1  0.74211599  0.08739258  0.10308924  1
  Te  Te91  1  0.73406002  0.10668837  0.40279274  1
  Te  Te92  1  0.71751055  0.09377256  0.74358878  1
  Te  Te93  1  0.75772643  0.44131284  0.05118849  1
  Te  Te94  1  0.78324905  0.42946612  0.41034046  1
  Te  Te95  1  0.74486333  0.41628951  0.73268123  1
  Te  Te96  1  0.76305548  0.76935312  0.07769162  1
  Te  Te97  1  0.75512927  0.76220071  0.43467872  1
  Te  Te98  1  0.78779341  0.74702180  0.76010243  1
  Te  Te99  1  0.09595826  0.25450913  0.27941055  1
  Te  Te100  1  0.08964353  0.24153275  0.60838759  1
  Te  Te101  1  0.06936666  0.26278840  0.90928302  1
  Te  Te102  1  0.11000107  0.58605009  0.25582787  1
  Te  Te103  1  0.14379354  0.61324916  0.62372830  1
  Te  Te104  1  0.08405029  0.60627109  0.87691846  1
  Te  Te105  1  0.06317395  0.85465900  0.28577161  1
  Te  Te106  1  0.07385918  0.92410058  0.59056911  1
  Te  Te107  1  0.08164555  0.90317664  0.91356823  1
  Te  Te108  1  0.38897156  0.24626687  0.25264475  1
  Te  Te109  1  0.42409863  0.21766735  0.56192421  1
  Te  Te110  1  0.45255788  0.23522437  0.91197685  1
  Te  Te111  1  0.42155137  0.57121293  0.23664759  1
  Te  Te112  1  0.40482026  0.59639739  0.58399721  1
  Te  Te113  1  0.38818769  0.56637369  0.89701683  1
  Te  Te114  1  0.41289827  0.91781538  0.22113157  1
  Te  Te115  1  0.43235476  0.91266444  0.57578033  1
  Te  Te116  1  0.41459266  0.89781786  0.89233584  1
  Te  Te117  1  0.77169629  0.25674704  0.24154589  1
  Te  Te118  1  0.75190654  0.28377722  0.57421137  1
  Te  Te119  1  0.73695813  0.26465221  0.90196163  1
  Te  Te120  1  0.75894225  0.60229159  0.23603196  1
  Te  Te121  1  0.75016617  0.58853936  0.59057878  1
  Te  Te122  1  0.76059086  0.59711925  0.88873573  1
  Te  Te123  1  0.76229789  0.92584894  0.25287712  1
  Te  Te124  1  0.73768617  0.92942779  0.60640220  1
  Te  Te125  1  0.78658927  0.91247775  0.92484219  1
  Te  Te126  1  0.27211405  0.24204389  0.05921321  1
  Te  Te127  1  0.24433499  0.27227022  0.44899988  1
  Te  Te128  1  0.26175267  0.22697456  0.74913286  1
  Te  Te129  1  0.22358790  0.60393350  0.05644590  1
  Te  Te130  1  0.26669299  0.53714397  0.42951521  1
  Te  Te131  1  0.22477084  0.51621106  0.72534840  1
  Te  Te132  1  0.20275499  0.91599739  0.10222797  1
  Te  Te133  1  0.27909780  0.92003146  0.38588707  1
  Te  Te134  1  0.24321917  0.88277107  0.70640102  1
  Te  Te135  1  0.57348832  0.24539942  0.09083161  1
  Te  Te136  1  0.57142653  0.29476916  0.40630856  1
  Te  Te137  1  0.52236876  0.27506652  0.75655743  1
  Te  Te138  1  0.58718313  0.59360206  0.08333763  1
  Te  Te139  1  0.60325602  0.57205334  0.40403873  1
  Te  Te140  1  0.56852093  0.59923968  0.74191043  1
  Te  Te141  1  0.57480951  0.93002183  0.10012107  1
  Te  Te142  1  0.57622645  0.92058105  0.41903388  1
  Te  Te143  1  0.58166742  0.90575022  0.74555752  1
  Te  Te144  1  0.91769571  0.25126988  0.08846754  1
  Te  Te145  1  0.92871830  0.26154985  0.42662088  1
  Te  Te146  1  0.91557048  0.24084575  0.75002504  1
  Te  Te147  1  0.92455815  0.59357319  0.06174868  1
  Te  Te148  1  0.95114118  0.61398118  0.40402289  1
  Te  Te149  1  0.96822282  0.55888628  0.78097858  1
  Te  Te150  1  0.94866689  0.89199416  0.10106840  1
  Te  Te151  1  0.91491974  0.92645147  0.42624285  1
  Te  Te152  1  0.92459003  0.91699950  0.75432162  1
  Te  Te153  1  0.22401244  0.07871094  0.23190735  1
  Te  Te154  1  0.26348936  0.07508430  0.56327072  1
  Te  Te155  1  0.24649967  0.05464582  0.90429436  1
  Te  Te156  1  0.25581318  0.41669479  0.23350394  1
  Te  Te157  1  0.29367612  0.41476194  0.63303036  1
  Te  Te158  1  0.23177020  0.41700047  0.92069288  1
  Te  Te159  1  0.25470961  0.73969965  0.24736672  1
  Te  Te160  1  0.21996422  0.73998630  0.51043066  1
  Te  Te161  1  0.26941833  0.81674674  1.00023854  1
  Te  Te162  1  0.54443627  0.10693107  0.27638360  1
  Te  Te163  1  0.55973894  0.10106898  0.54449339  1
  Te  Te164  1  0.61138506  0.08478197  0.91731652  1
  Te  Te165  1  0.60058495  0.42561111  0.22676603  1
  Te  Te166  1  0.57196278  0.43668368  0.60246615  1
  Te  Te167  1  0.57218699  0.42262549  0.90961225  1
  Te  Te168  1  0.59664413  0.75182500  0.27173200  1
  Te  Te169  1  0.58914625  0.75853606  0.57690159  1
  Te  Te170  1  0.59567060  0.75438366  0.90778744  1
  Te  Te171  1  0.93984707  0.06983030  0.25678312  1
  Te  Te172  1  0.89314878  0.09275792  0.56855379  1
  Te  Te173  1  0.90336004  0.09316002  0.92206255  1
  Te  Te174  1  0.93796867  0.42417283  0.25216657  1
  Te  Te175  1  0.92583955  0.45754038  0.57861964  1
  Te  Te176  1  0.91562414  0.45160653  0.90462742  1
  Te  Te177  1  0.95105892  0.73627129  0.27158918  1
  Te  Te178  1  0.94101489  0.72554034  0.60589543  1
  Te  Te179  1  0.93796232  0.72035258  0.95108987  1
