# generated using pymatgen
data_In2Te3
_symmetry_space_group_name_H-M   'P 1'
_cell_length_a   18.76981748
_cell_length_b   18.78040831
_cell_length_c   18.76659031
_cell_angle_alpha   90.00580500
_cell_angle_beta   89.96384752
_cell_angle_gamma   90.00207503
_symmetry_Int_Tables_number   1
_chemical_formula_structural   In2Te3
_chemical_formula_sum   'In72 Te108'
_cell_volume   6615.31248864
_cell_formula_units_Z   36
loop_
 _symmetry_equiv_pos_site_id
 _symmetry_equiv_pos_as_xyz
  1  'x, y, z'
loop_
 _atom_site_type_symbol
 _atom_site_label
 _atom_site_symmetry_multiplicity
 _atom_site_fract_x
 _atom_site_fract_y
 _atom_site_fract_z
 _atom_site_occupancy
  In  In0  1  0.65324615  0.83910281  0.82788555  1
  In  In1  1  0.18413473  0.33360197  0.17606820  1
  In  In2  1  0.50556801  0.48479497  0.33892954  1
  In  In3  1  0.84197354  0.17133307  0.67848157  1
  In  In4  1  0.16725063  0.68128855  0.16318697  1
  In  In5  1  0.82345413  0.66004015  0.49689714  1
  In  In6  1  -0.01294366  0.83919322  0.49850202  1
  In  In7  1  0.33279571  0.83301819  0.51738808  1
  In  In8  1  0.00030840  0.49792266  0.49953102  1
  In  In9  1  0.18904069  0.66286289  0.81875628  1
  In  In10  1  0.63304788  0.18313309  0.83607609  1
  In  In11  1  0.67379016  0.66473890  0.66990006  1
  In  In12  1  0.82604172  -0.02866764  0.17162610  1
  In  In13  1  0.15985132  0.85671696  0.36132791  1
  In  In14  1  -0.02984909  0.64596645  0.00109622  1
  In  In15  1  0.83300293  0.34453424  0.16406210  1
  In  In16  1  0.18066669  0.84637502  0.65112052  1
  In  In17  1  0.01982196  0.67169525  0.66017342  1
  In  In18  1  0.64725476  0.34503538  0.66189718  1
  In  In19  1  0.51428539  0.84185213  0.34140598  1
  In  In20  1  0.50188170  0.48838729  0.00414607  1
  In  In21  1  -0.01056770  0.82504601  0.17504089  1
  In  In22  1  0.62604138  0.18333454  0.17690373  1
  In  In23  1  0.82975840  0.15890471  0.35391443  1
  In  In24  1  0.34745591  0.16312166  0.48824900  1
  In  In25  1  0.14105429  0.87841885  -0.04002374  1
  In  In26  1  0.84509124  0.83203518  0.00131796  1
  In  In27  1  0.34942356  0.31242167  0.66980181  1
  In  In28  1  0.66304650  0.83731968  0.17530555  1
  In  In29  1  0.82349167  0.67923625  0.84571549  1
  In  In30  1  0.65040589  0.01446590  0.64454851  1
  In  In31  1  0.65198046  0.03571968  -0.01888514  1
  In  In32  1  -0.02724245  0.67329536  0.32293886  1
  In  In33  1  0.00741113  0.16391892  0.50686570  1
  In  In34  1  0.84935962  -0.00404140  0.81474030  1
  In  In35  1  0.63612370  0.66165697  0.00955315  1
  In  In36  1  0.19517680  0.50739250  0.34933180  1
  In  In37  1  0.82152813  0.33963320  0.49119745  1
  In  In38  1  0.82082248  0.16744638  0.00086885  1
  In  In39  1  0.83634308  0.00487392  0.50004417  1
  In  In40  1  0.18425956  0.02702945  0.50795107  1
  In  In41  1  0.66189688  0.84370375  0.50300099  1
  In  In42  1  0.16848294  0.30456638  0.50390208  1
  In  In43  1  0.32881558  0.01105673  0.00908103  1
  In  In44  1  0.35632350  0.48824880  0.16354196  1
  In  In45  1  0.83716094  0.50040970  0.64970640  1
  In  In46  1  0.48279804  0.02101529  0.17103498  1
  In  In47  1  0.19169430  0.46861185  -0.02227046  1
  In  In48  1  0.02010047  0.15621685  0.81320273  1
  In  In49  1  0.17969804  0.32381916  0.82780454  1
  In  In50  1  0.02005031  0.17284732  0.16198181  1
  In  In51  1  0.00499591  0.48987308  0.84074495  1
  In  In52  1  0.66015395  0.32106539  0.01091752  1
  In  In53  1  0.65755078  0.49273866  0.81800637  1
  In  In54  1  0.49641430  0.82610722  -0.00540175  1
  In  In55  1  0.49549391  0.84564781  0.66460960  1
  In  In56  1  -0.00023744  0.48219694  0.17002669  1
  In  In57  1  -0.00083651  0.00752645  0.35899462  1
  In  In58  1  0.19204318  0.03892472  0.17865810  1
  In  In59  1  0.35482758  0.18007337  0.83966427  1
  In  In60  1  0.64857771  0.33508653  0.33856269  1
  In  In61  1  0.17845882  0.17759180  -0.00051694  1
  In  In62  1  0.32830121  0.65949738  0.33980189  1
  In  In63  1  0.21058979  0.66306686  0.47948671  1
  In  In64  1  0.34394745  0.65742439  -0.00976699  1
  In  In65  1  0.62574955  0.17404562  0.49307960  1
  In  In66  1  0.84340343  0.49054287  0.01552095  1
  In  In67  1  0.66992107  0.62883927  0.32669612  1
  In  In68  1  0.20009456  0.49889110  0.68474266  1
  In  In69  1  0.32054265  0.84103282  0.81143653  1
  In  In70  1  0.35527627  0.83623670  0.14358579  1
  In  In71  1  0.47262933  0.48784915  0.63768558  1
  Te  Te72  1  0.08927520  0.07405346  0.06876772  1
  Te  Te73  1  0.10549618  0.10502723  0.40166471  1
  Te  Te74  1  0.10083077  0.04950136  0.74956722  1
  Te  Te75  1  0.09117013  0.40502657  0.07463121  1
  Te  Te76  1  0.09417633  0.41386738  0.41348168  1
  Te  Te77  1  0.08705790  0.41117548  0.73988517  1
  Te  Te78  1  0.07163117  0.75103962  0.06803307  1
  Te  Te79  1  0.07835595  0.73607571  0.42521578  1
  Te  Te80  1  0.09556374  0.76444960  0.75339925  1
  Te  Te81  1  0.38618127  0.11346744  0.10250407  1
  Te  Te82  1  0.43920354  0.10326977  0.37937804  1
  Te  Te83  1  0.45254327  0.08903485  0.77435640  1
  Te  Te84  1  0.40956506  0.38768309  0.06852825  1
  Te  Te85  1  0.39342452  0.41544848  0.40791626  1
  Te  Te86  1  0.42240962  0.40967894  0.75506015  1
  Te  Te87  1  0.43879356  0.72115223  0.09256156  1
  Te  Te88  1  0.42031250  0.74928437  0.42332357  1
  Te  Te89  1  0.42519199  0.75302961  0.75773443  1
  Te  Te90  1  0.73834911  0.08482259  0.10043961  1
  Te  Te91  1  0.72471591  0.07531619  0.42424564  1
  Te  Te92  1  0.73392232  0.08522803  0.75993007  1
  Te  Te93  1  0.72674536  0.42996295  0.09570417  1
  Te  Te94  1  0.74254955  0.42799380  0.40442007  1
  Te  Te95  1  0.76111699  0.40737856  0.74469044  1
  Te  Te96  1  0.74246706  0.74870748  0.07786354  1
  Te  Te97  1  0.73593550  0.74800959  0.41092230  1
  Te  Te98  1  0.75894444  0.77011766  0.74190994  1
  Te  Te99  1  0.09543460  0.25017004  0.26094589  1
  Te  Te100  1  0.08766688  0.23606746  0.60706764  1
  Te  Te101  1  0.07786710  0.25708200  0.91886151  1
  Te  Te102  1  0.09052359  0.58582906  0.25644457  1
  Te  Te103  1  0.10794705  0.57707584  0.57751350  1
  Te  Te104  1  0.09573885  0.58444415  0.92234292  1
  Te  Te105  1  0.08244322  0.92792337  0.25023818  1
  Te  Te106  1  0.07930339  0.93203718  0.57323802  1
  Te  Te107  1  0.05476660  0.94831462  0.85605047  1
  Te  Te108  1  0.40032451  0.20983195  0.28104013  1
  Te  Te109  1  0.44237733  0.24749576  0.57131070  1
  Te  Te110  1  0.43986692  0.24792237  0.94328467  1
  Te  Te111  1  0.42712637  0.59121857  0.24807763  1
  Te  Te112  1  0.39039846  0.59998988  0.58378947  1
  Te  Te113  1  0.42208858  0.56825299  0.90402806  1
  Te  Te114  1  0.40679021  0.91875388  0.25800972  1
  Te  Te115  1  0.41242979  0.93902167  0.58377417  1
  Te  Te116  1  0.40700532  0.91886903  0.91541834  1
  Te  Te117  1  0.75208431  0.24070860  0.24843220  1
  Te  Te118  1  0.74518499  0.23557356  0.57745584  1
  Te  Te119  1  0.74931116  0.25952075  0.90274785  1
  Te  Te120  1  0.77820925  0.59532034  0.23416021  1
  Te  Te121  1  0.72710522  0.56370870  0.56717568  1
  Te  Te122  1  0.74311288  0.57495074  0.92182625  1
  Te  Te123  1  0.72426998  0.93264456  0.27050939  1
  Te  Te124  1  0.75876860  0.91702224  0.59833089  1
  Te  Te125  1  0.74475458  0.92054360  0.92286216  1
  Te  Te126  1  0.27289373  0.24927113  0.08934486  1
  Te  Te127  1  0.26482638  0.25358418  0.40116765  1
  Te  Te128  1  0.24514147  0.22134469  0.73605720  1
  Te  Te129  1  0.24537808  0.57279201  0.08858618  1
  Te  Te130  1  0.31811766  0.54258993  0.45573702  1
  Te  Te131  1  0.29577161  0.57136562  0.77318175  1
  Te  Te132  1  0.23465518  0.91152578  0.08929321  1
  Te  Te133  1  0.27246773  0.93794957  0.41810726  1
  Te  Te134  1  0.25003627  0.94902909  0.73614138  1
  Te  Te135  1  0.54409221  0.23532814  0.06081093  1
  Te  Te136  1  0.53797080  0.25902712  0.40568844  1
  Te  Te137  1  0.55460644  0.24947402  0.72884655  1
  Te  Te138  1  0.58357982  0.56298141  0.10463352  1
  Te  Te139  1  0.56825175  0.58793127  0.42568734  1
  Te  Te140  1  0.56774315  0.57980445  0.73596326  1
  Te  Te141  1  0.57507846  0.92742314  0.07864866  1
  Te  Te142  1  0.56015127  0.93549791  0.44660668  1
  Te  Te143  1  0.57007736  0.94421658  0.75928291  1
  Te  Te144  1  0.92104155  0.25470477  0.07710696  1
  Te  Te145  1  0.92817166  0.25673489  0.41415120  1
  Te  Te146  1  0.92243619  0.25773183  0.76533007  1
  Te  Te147  1  0.89413826  0.59348120  0.12652771  1
  Te  Te148  1  0.90109738  0.56534814  0.40488605  1
  Te  Te149  1  0.91659717  0.58966635  0.75224218  1
  Te  Te150  1  0.93548334  0.93128637  0.07302021  1
  Te  Te151  1  0.89414088  0.90446540  0.39746298  1
  Te  Te152  1  0.94548816  0.90371923  0.75466176  1
  Te  Te153  1  0.28831009  0.10789968  0.26993951  1
  Te  Te154  1  0.27478652  0.09670767  0.60195272  1
  Te  Te155  1  0.24732460  0.08248330  0.90307922  1
  Te  Te156  1  0.28357140  0.40756841  0.27243835  1
  Te  Te157  1  0.25812077  0.40101518  0.58440504  1
  Te  Te158  1  0.29010555  0.39788808  0.89405828  1
  Te  Te159  1  0.24524616  0.76719696  0.26180445  1
  Te  Te160  1  0.27070799  0.72434544  0.60925166  1
  Te  Te161  1  0.24728727  0.76028733  0.93159683  1
  Te  Te162  1  0.57622239  0.08055777  0.27246256  1
  Te  Te163  1  0.53848542  0.08964527  0.58131294  1
  Te  Te164  1  0.52914499  0.09534365  0.91247249  1
  Te  Te165  1  0.56477450  0.39745463  0.23352254  1
  Te  Te166  1  0.58041490  0.42364503  0.55725197  1
  Te  Te167  1  0.57806398  0.39684075  0.90340240  1
  Te  Te168  1  0.57948172  0.73759437  0.25162831  1
  Te  Te169  1  0.57700524  0.74410526  0.58199785  1
  Te  Te170  1  0.56569758  0.73258920  0.89339550  1
  Te  Te171  1  0.91540963  0.08366297  0.24776300  1
  Te  Te172  1  0.92814995  0.07137735  0.60090449  1
  Te  Te173  1  0.91818185  0.08860228  0.91555046  1
  Te  Te174  1  0.92307555  0.40182262  0.26601572  1
  Te  Te175  1  0.92899814  0.39553306  0.58781101  1
  Te  Te176  1  0.91676725  0.40462899  0.92181200  1
  Te  Te177  1  0.87808908  0.76050475  0.24912118  1
  Te  Te178  1  0.90656102  0.74832699  0.59104474  1
  Te  Te179  1  0.93791456  0.76176146  0.90240163  1
