# generated using pymatgen
data_In2Te3
_symmetry_space_group_name_H-M   'P 1'
_cell_length_a   18.78185145
_cell_length_b   18.77679633
_cell_length_c   18.78144156
_cell_angle_alpha   89.95823868
_cell_angle_beta   89.92015580
_cell_angle_gamma   90.01427275
_symmetry_Int_Tables_number   1
_chemical_formula_structural   In2Te3
_chemical_formula_sum   'In72 Te108'
_cell_volume   6623.51111560
_cell_formula_units_Z   36
loop_
 _symmetry_equiv_pos_site_id
 _symmetry_equiv_pos_as_xyz
  1  'x, y, z'
loop_
 _atom_site_type_symbol
 _atom_site_label
 _atom_site_symmetry_multiplicity
 _atom_site_fract_x
 _atom_site_fract_y
 _atom_site_fract_z
 _atom_site_occupancy
  In  In0  1  0.34369185  0.67532772  0.01223995  1
  In  In1  1  0.49410057  0.83333043  0.00042934  1
  In  In2  1  0.36592393  0.00916706  0.68269163  1
  In  In3  1  0.82613205  -0.00261734  0.14302781  1
  In  In4  1  0.49259343  0.82749150  0.33839133  1
  In  In5  1  0.53588472  0.86514733  0.67611573  1
  In  In6  1  0.01527322  0.67869597  0.65732683  1
  In  In7  1  -0.01367788  0.84538279  0.16755009  1
  In  In8  1  0.81552868  0.30616767  0.21654838  1
  In  In9  1  0.81569581  0.15173415  0.66156896  1
  In  In10  1  0.82263363  0.49787576  -0.00046986  1
  In  In11  1  0.66575713  0.02672298  0.35390309  1
  In  In12  1  0.66774440  0.83426588  0.50623159  1
  In  In13  1  0.86653249  0.51829250  0.67390871  1
  In  In14  1  0.17553734  0.83595107  0.34647635  1
  In  In15  1  0.00903112  0.31483368  0.02134627  1
  In  In16  1  -0.00360411  0.69445525  0.35099388  1
  In  In17  1  0.16496659  0.68906762  0.20112283  1
  In  In18  1  0.82098681  0.67424628  0.50223942  1
  In  In19  1  0.16137959  0.14159001  0.00080644  1
  In  In20  1  0.00292395  0.00923992  0.64220034  1
  In  In21  1  -0.00557271  -0.00268428  0.34141265  1
  In  In22  1  0.31104212  0.68408730  0.62369676  1
  In  In23  1  0.67675859  0.16658907  0.81476703  1
  In  In24  1  0.14444514  0.85350890  -0.01363157  1
  In  In25  1  0.01567683  0.48573884  0.50033207  1
  In  In26  1  0.16226284  -0.01005076  0.82235569  1
  In  In27  1  0.67317464  0.30895442  -0.00162445  1
  In  In28  1  0.32112862  0.16686404  0.47250023  1
  In  In29  1  0.51735131  0.33117768  0.15967378  1
  In  In30  1  0.65932053  0.82580933  0.17092043  1
  In  In31  1  0.81793456  0.49436555  0.32102462  1
  In  In32  1  0.34281884  -0.00651122  -0.00068345  1
  In  In33  1  0.33213631  0.83924632  0.82417760  1
  In  In34  1  0.17013131  0.17869548  0.65773679  1
  In  In35  1  0.34130129  0.51619902  0.82283250  1
  In  In36  1  0.31720383  0.33653026  0.34980864  1
  In  In37  1  0.00387242  0.16411663  0.16900203  1
  In  In38  1  0.34400971  0.01049011  0.33835914  1
  In  In39  1  0.84504219  0.02564940  0.84651954  1
  In  In40  1  0.68407653  0.00226740  -0.00638352  1
  In  In41  1  0.34550644  0.48309959  0.19403367  1
  In  In42  1  0.00124349  0.50771131  0.79893103  1
  In  In43  1  -0.00066205  0.52140348  0.18445222  1
  In  In44  1  0.31289909  0.35046245  0.64428591  1
  In  In45  1  0.16996747  0.31802227  0.19976237  1
  In  In46  1  0.49354482  0.15694438  0.32201395  1
  In  In47  1  0.65921585  0.68715717  0.67002806  1
  In  In48  1  -0.00400828  0.32128706  0.67025615  1
  In  In49  1  0.64785671  0.49123072  0.49135104  1
  In  In50  1  -0.02578145  0.69073266  -0.02404809  1
  In  In51  1  0.83553650  0.33354786  0.83835632  1
  In  In52  1  0.50925184  0.68123465  0.83876350  1
  In  In53  1  0.15755107  -0.01419265  0.48934842  1
  In  In54  1  0.32842422  0.14140592  0.16567278  1
  In  In55  1  0.65720419  0.51205154  0.17038022  1
  In  In56  1  0.45445953  0.51050204  0.63526935  1
  In  In57  1  0.84718457  0.28648348  0.47333311  1
  In  In58  1  0.66777609  0.67864077  0.01128851  1
  In  In59  1  0.81585930  0.85157631  0.65717374  1
  In  In60  1  0.84546381  0.84039202  0.34672990  1
  In  In61  1  0.16660606  0.66588695  0.80222457  1
  In  In62  1  0.32225826  0.82130039  0.20251291  1
  In  In63  1  0.17959061  0.50559494  -0.00042646  1
  In  In64  1  0.36196624  0.31174948  -0.00681691  1
  In  In65  1  0.50760981  0.31472891  0.49912952  1
  In  In66  1  0.67736606  0.29074094  0.66501820  1
  In  In67  1  0.66087488  0.49873579  0.83624098  1
  In  In68  1  0.52517028  0.31128089  0.83235874  1
  In  In69  1  0.18331423  0.03416223  0.16334694  1
  In  In70  1  0.15798835  0.32730082  0.82031310  1
  In  In71  1  0.50251774  0.50304393  0.33992711  1
  Te  Te72  1  0.05591164  0.05479534  0.07300913  1
  Te  Te73  1  0.08182068  0.09069471  0.41727634  1
  Te  Te74  1  0.07974793  0.09388630  0.74625060  1
  Te  Te75  1  0.08935275  0.42375771  0.09493470  1
  Te  Te76  1  0.10764611  0.39051802  0.43445480  1
  Te  Te77  1  0.10031075  0.42438057  0.71820618  1
  Te  Te78  1  0.08247317  0.74116663  0.08273561  1
  Te  Te79  1  0.10081976  0.74836049  0.44526957  1
  Te  Te80  1  0.07379028  0.77002987  0.75990995  1
  Te  Te81  1  0.42927552  0.08526234  0.07584177  1
  Te  Te82  1  0.43979066  0.07542860  0.44008691  1
  Te  Te83  1  0.44558876  0.09954901  0.76613747  1
  Te  Te84  1  0.42335806  0.42293631  0.07723870  1
  Te  Te85  1  0.41349806  0.41987585  0.43421661  1
  Te  Te86  1  0.42150425  0.40464355  0.75381784  1
  Te  Te87  1  0.42791566  0.75147695  0.11162353  1
  Te  Te88  1  0.39006063  0.74992062  0.41152360  1
  Te  Te89  1  0.40648037  0.73593230  0.74040120  1
  Te  Te90  1  0.73882776  0.10421587  0.08845839  1
  Te  Te91  1  0.78154363  0.11222220  0.39782701  1
  Te  Te92  1  0.71612165  0.04355552  0.72349803  1
  Te  Te93  1  0.75532402  0.40196449  0.09806309  1
  Te  Te94  1  0.75383439  0.40311663  0.42534961  1
  Te  Te95  1  0.74946472  0.41413403  0.74311445  1
  Te  Te96  1  0.76413613  0.76100738  0.08706803  1
  Te  Te97  1  0.73574103  0.74682228  0.40056447  1
  Te  Te98  1  0.74341551  0.76834563  0.75708717  1
  Te  Te99  1  0.06351676  0.24808318  0.28028987  1
  Te  Te100  1  0.07669558  0.25056925  0.56775263  1
  Te  Te101  1  0.07548926  0.23498449  0.90962182  1
  Te  Te102  1  0.08839762  0.58774835  0.28904307  1
  Te  Te103  1  0.09575216  0.58566518  0.57474834  1
  Te  Te104  1  0.08128172  0.58600189  0.91593187  1
  Te  Te105  1  0.09879795  0.91909361  0.24236715  1
  Te  Te106  1  0.09077326  0.89834607  0.59007435  1
  Te  Te107  1  0.04906254  0.93527029  0.90575293  1
  Te  Te108  1  0.39964386  0.26289769  0.24205557  1
  Te  Te109  1  0.40037226  0.24185713  0.58014641  1
  Te  Te110  1  0.43462711  0.21729626  0.90573306  1
  Te  Te111  1  0.42359513  0.59245410  0.25136147  1
  Te  Te112  1  0.41261775  0.61534500  0.52924384  1
  Te  Te113  1  0.43041929  0.58234010  0.92726768  1
  Te  Te114  1  0.42187400  0.93034561  0.23727720  1
  Te  Te115  1  0.42443329  0.90970178  0.59041533  1
  Te  Te116  1  0.43298463  0.92659077  0.89457108  1
  Te  Te117  1  0.72633772  0.21237905  0.29344955  1
  Te  Te118  1  0.71444668  0.20174117  0.54259373  1
  Te  Te119  1  0.77356527  0.22284638  0.92162028  1
  Te  Te120  1  0.74988518  0.59925765  0.24471238  1
  Te  Te121  1  0.74154464  0.57838664  0.59338781  1
  Te  Te122  1  0.75428531  0.59533613  0.90504910  1
  Te  Te123  1  0.74954892  0.92290782  0.26113372  1
  Te  Te124  1  0.75425434  0.94252939  0.55649952  1
  Te  Te125  1  0.77309163  0.90991430  0.91238196  1
  Te  Te126  1  0.24129119  0.25355486  0.07823674  1
  Te  Te127  1  0.21408424  0.27015583  0.44085362  1
  Te  Te128  1  0.26863056  0.24718472  0.75257381  1
  Te  Te129  1  0.24881094  0.59355317  0.10325178  1
  Te  Te130  1  0.28510593  0.55321397  0.46693295  1
  Te  Te131  1  0.24940566  0.57237512  0.71676475  1
  Te  Te132  1  0.25059548  0.90660518  0.08637640  1
  Te  Te133  1  0.27920998  0.90999371  0.43193720  1
  Te  Te134  1  0.24626299  0.91048998  0.72369903  1
  Te  Te135  1  0.58800549  0.22432462  0.08563433  1
  Te  Te136  1  0.58843819  0.25312876  0.38949318  1
  Te  Te137  1  0.55158404  0.20231445  0.70935724  1
  Te  Te138  1  0.57411989  0.58146024  0.07080957  1
  Te  Te139  1  0.58977647  0.60020320  0.41269990  1
  Te  Te140  1  0.56717734  0.57505869  0.74106168  1
  Te  Te141  1  0.58176242  0.92522846  0.08438508  1
  Te  Te142  1  0.57460400  0.92498827  0.42524891  1
  Te  Te143  1  0.59536227  0.95539063  0.77621138  1
  Te  Te144  1  0.89708674  0.24628531  0.09620148  1
  Te  Te145  1  0.94800368  0.22637690  0.38601864  1
  Te  Te146  1  0.91162439  0.22897128  0.75741023  1
  Te  Te147  1  0.91231709  0.59201001  0.08051133  1
  Te  Te148  1  0.91097556  0.57891490  0.42183152  1
  Te  Te149  1  0.91211825  0.62674003  0.76789756  1
  Te  Te150  1  0.89784858  0.89513192  0.05700284  1
  Te  Te151  1  0.92438839  0.91743202  0.44468820  1
  Te  Te152  1  0.91309301  0.93511514  0.74261790  1
  Te  Te153  1  0.23685575  0.10749592  0.28587001  1
  Te  Te154  1  0.25564992  0.07588885  0.58147671  1
  Te  Te155  1  0.25912755  0.07835438  0.90242101  1
  Te  Te156  1  0.22629179  0.43917445  0.27590145  1
  Te  Te157  1  0.23472076  0.43332424  0.54308243  1
  Te  Te158  1  0.25765324  0.40947389  0.91046363  1
  Te  Te159  1  0.27625558  0.71427468  0.30948468  1
  Te  Te160  1  0.20802457  0.76789516  0.55940043  1
  Te  Te161  1  0.24700269  0.74580392  0.91728986  1
  Te  Te162  1  0.58366609  0.07455473  0.23959415  1
  Te  Te163  1  0.61361458  0.10561114  0.60225287  1
  Te  Te164  1  0.58987154  0.07274968  0.89758517  1
  Te  Te165  1  0.59726375  0.40745678  0.26449733  1
  Te  Te166  1  0.57997831  0.40609684  0.60102543  1
  Te  Te167  1  0.58049052  0.41233054  0.93315041  1
  Te  Te168  1  0.57832741  0.73727995  0.25775762  1
  Te  Te169  1  0.56060683  0.74857821  0.57390074  1
  Te  Te170  1  0.60307016  0.77572519  0.90926558  1
  Te  Te171  1  0.90468807  0.07778591  0.24834541  1
  Te  Te172  1  0.91532904  0.10128504  0.56513560  1
  Te  Te173  1  0.94746676  0.06710553  0.94240855  1
  Te  Te174  1  0.92736078  0.40828886  0.25771327  1
  Te  Te175  1  0.89894003  0.40001671  0.57886936  1
  Te  Te176  1  0.93438000  0.41852739  0.91875524  1
  Te  Te177  1  0.90323116  0.74132261  0.24144610  1
  Te  Te178  1  0.91585466  0.76395785  0.57637704  1
  Te  Te179  1  0.88130862  0.79058831  0.92305306  1
