# generated using pymatgen
data_In2Te3
_symmetry_space_group_name_H-M   'P 1'
_cell_length_a   18.96022391
_cell_length_b   18.97931327
_cell_length_c   18.97377794
_cell_angle_alpha   90.03267343
_cell_angle_beta   89.97717054
_cell_angle_gamma   90.17502833
_symmetry_Int_Tables_number   1
_chemical_formula_structural   In2Te3
_chemical_formula_sum   'In72 Te108'
_cell_volume   6827.71898796
_cell_formula_units_Z   36
loop_
 _symmetry_equiv_pos_site_id
 _symmetry_equiv_pos_as_xyz
  1  'x, y, z'
loop_
 _atom_site_type_symbol
 _atom_site_label
 _atom_site_symmetry_multiplicity
 _atom_site_fract_x
 _atom_site_fract_y
 _atom_site_fract_z
 _atom_site_occupancy
  In  In0  1  0.30557472  0.31795501  0.32750995  1
  In  In1  1  0.84499507  -0.02726744  0.80904292  1
  In  In2  1  0.02521164  0.71939464  0.65381940  1
  In  In3  1  0.34228198  0.70167996  0.33043186  1
  In  In4  1  0.51867399  0.84576077  0.66206516  1
  In  In5  1  -0.01219675  0.67606801  0.02142265  1
  In  In6  1  0.34346574  0.02774915  -0.04663573  1
  In  In7  1  0.84007227  0.71037313  0.82282330  1
  In  In8  1  0.67752794  -0.02725710  0.30590310  1
  In  In9  1  0.51990916  0.66489684  0.16358688  1
  In  In10  1  0.49845098  0.85993229  -0.00555006  1
  In  In11  1  0.00052905  0.86981968  0.54896779  1
  In  In12  1  0.47817846  0.34196336  0.16419401  1
  In  In13  1  0.82096877  0.49198544  -0.03124876  1
  In  In14  1  0.32306382  0.50756077  0.48948300  1
  In  In15  1  0.67667199  0.67504384  0.01820423  1
  In  In16  1  0.65576030  0.51434096  0.50405552  1
  In  In17  1  -0.00222139  0.84948055  0.15271901  1
  In  In18  1  0.66903618  0.16133031  0.49241799  1
  In  In19  1  0.68401036  0.68140902  0.66900686  1
  In  In20  1  0.01085922  0.31204522  0.70186717  1
  In  In21  1  0.67720732  0.51686891  0.16301374  1
  In  In22  1  0.62330432  0.15813259  0.82775704  1
  In  In23  1  0.85533513  0.16089412  0.31473709  1
  In  In24  1  0.17636280  0.25875636  0.86120240  1
  In  In25  1  0.15664603  0.02195881  0.82027066  1
  In  In26  1  0.14816661  0.51205773  0.30688026  1
  In  In27  1  0.14799830  0.01162243  0.15404345  1
  In  In28  1  -0.01966635  0.48265688  0.48318445  1
  In  In29  1  0.14679079  0.25141128  0.12247502  1
  In  In30  1  0.80344940  0.33099289  0.52594011  1
  In  In31  1  0.35372693  0.63511128  0.67181607  1
  In  In32  1  0.31433836  0.84108220  0.52686346  1
  In  In33  1  0.19199964  0.32481205  0.51734865  1
  In  In34  1  0.16386318  0.86118050  -0.03358232  1
  In  In35  1  0.33122384  -0.02496947  0.35588549  1
  In  In36  1  0.31624909  0.16004679  0.16573198  1
  In  In37  1  0.18411436  0.68079860  0.18159290  1
  In  In38  1  0.66238107  0.19048401  0.18092677  1
  In  In39  1  0.66665140  0.33460652  0.36209728  1
  In  In40  1  -0.01109416  0.51350064  0.85947428  1
  In  In41  1  0.85822288  -0.00461683  0.17264895  1
  In  In42  1  0.83716228  0.51812129  0.30090817  1
  In  In43  1  0.51503673  0.82830575  0.33583906  1
  In  In44  1  0.39805820  0.26927264  0.71536952  1
  In  In45  1  -0.00273305  0.31551524  0.34767027  1
  In  In46  1  0.84044588  0.68060419  0.50158965  1
  In  In47  1  0.65531135  0.48954429  0.83016115  1
  In  In48  1  0.17607581  0.47077483  -0.00774545  1
  In  In49  1  0.31725256  0.84161780  0.16417608  1
  In  In50  1  0.84464992  0.49611034  0.71510214  1
  In  In51  1  0.46899339  0.00095695  0.52766007  1
  In  In52  1  0.50039050  0.46880354  0.64646385  1
  In  In53  1  0.14894215  0.70516094  0.48224010  1
  In  In54  1  0.15169868  0.53098448  0.66737687  1
  In  In55  1  0.62780083  0.32614071  -0.02260275  1
  In  In56  1  0.82780137  0.31865936  0.83854159  1
  In  In57  1  0.13893446  0.13406390  0.37712100  1
  In  In58  1  0.49696814  0.65699872  0.84138216  1
  In  In59  1  0.32415507  0.67048380  -0.01389559  1
  In  In60  1  0.69410113  0.86278058  0.51060127  1
  In  In61  1  0.49493658  0.48173710  0.35012461  1
  In  In62  1  0.69847303  -0.00342755  -0.00805908  1
  In  In63  1  0.85708879  0.15364801  0.00368486  1
  In  In64  1  0.16177156  0.14763332  0.64387565  1
  In  In65  1  0.35942926  0.48533080  0.15435309  1
  In  In66  1  0.66013708  0.00116082  0.68590217  1
  In  In67  1  0.87917946  0.02188712  0.48928225  1
  In  In68  1  0.85695293  0.34062564  0.13935515  1
  In  In69  1  0.15836859  0.69354870  0.82672784  1
  In  In70  1  0.03007851  0.51537046  0.14524995  1
  In  In71  1  0.52603520  0.00119752  0.14635266  1
  Te  Te72  1  0.10357748  0.12109580  0.05958531  1
  Te  Te73  1  0.02752135  0.06886260  0.45351975  1
  Te  Te74  1  0.05426759  0.08905687  0.73190278  1
  Te  Te75  1  0.08636722  0.39040784  0.08240235  1
  Te  Te76  1  0.10409516  0.41531652  0.41942235  1
  Te  Te77  1  0.07583387  0.43572630  0.75955057  1
  Te  Te78  1  0.11108278  0.76399650  0.07274546  1
  Te  Te79  1  0.04135764  0.78697439  0.42631678  1
  Te  Te80  1  0.05733364  0.79753073  0.78143594  1
  Te  Te81  1  0.41255323  0.07670483  0.08056311  1
  Te  Te82  1  0.41054756  0.07921963  0.41921248  1
  Te  Te83  1  0.42916245  0.11706987  0.75121677  1
  Te  Te84  1  0.39897227  0.39051407  0.04812661  1
  Te  Te85  1  0.39835574  0.39268408  0.42527361  1
  Te  Te86  1  0.41440193  0.41445935  0.74965069  1
  Te  Te87  1  0.41275840  0.75128108  0.08777097  1
  Te  Te88  1  0.41937891  0.76875288  0.43963151  1
  Te  Te89  1  0.42791730  0.74622197  0.74084308  1
  Te  Te90  1  0.74983054  0.09001457  0.10821391  1
  Te  Te91  1  0.75293766  0.07671043  0.38941379  1
  Te  Te92  1  0.74621945  0.08806325  0.77508862  1
  Te  Te93  1  0.73576796  0.40601124  0.06972812  1
  Te  Te94  1  0.76903387  0.43658367  0.41285788  1
  Te  Te95  1  0.73571033  0.39444480  0.74384632  1
  Te  Te96  1  0.79451284  0.74878536  0.06638099  1
  Te  Te97  1  0.74728477  0.75875452  0.42156875  1
  Te  Te98  1  0.73162064  0.78890637  0.75907523  1
  Te  Te99  1  0.09890872  0.23615966  0.27122566  1
  Te  Te100  1  0.07083678  0.25703119  0.57449660  1
  Te  Te101  1  0.06386228  0.20776112  0.93820243  1
  Te  Te102  1  0.06098749  0.62309543  0.24947373  1
  Te  Te103  1  0.06358251  0.59276480  0.56001782  1
  Te  Te104  1  0.09389494  0.59652433  0.93398384  1
  Te  Te105  1  0.07048948  0.93289334  0.25231679  1
  Te  Te106  1  0.13510335  0.91736818  0.60904523  1
  Te  Te107  1  0.06691676  0.96589176  0.92815179  1
  Te  Te108  1  0.41225478  0.23965129  0.25486429  1
  Te  Te109  1  0.37240104  0.15703628  0.62028449  1
  Te  Te110  1  0.47964606  0.18855236  0.88093567  1
  Te  Te111  1  0.41430118  0.58908431  0.25815864  1
  Te  Te112  1  0.43685124  0.57923850  0.55875524  1
  Te  Te113  1  0.40760517  0.57165352  0.91993782  1
  Te  Te114  1  0.42736377  0.91585567  0.23942370  1
  Te  Te115  1  0.38827975  0.92408414  0.62945780  1
  Te  Te116  1  0.42095062  0.92307771  0.88574037  1
  Te  Te117  1  0.76588390  0.27861066  0.25403671  1
  Te  Te118  1  0.75329153  0.21656154  0.59966494  1
  Te  Te119  1  0.74649945  0.23833546  0.93902403  1
  Te  Te120  1  0.74149111  0.61559392  0.24886220  1
  Te  Te121  1  0.77062703  0.57475962  0.59993309  1
  Te  Te122  1  0.74845396  0.60035736  0.89169302  1
  Te  Te123  1  0.78384274  0.88881957  0.24626559  1
  Te  Te124  1  0.77131670  0.96482699  0.58791204  1
  Te  Te125  1  0.74637168  0.89753958  0.89365950  1
  Te  Te126  1  0.28264314  0.26386199  0.06538633  1
  Te  Te127  1  0.25471919  0.21803291  0.43193667  1
  Te  Te128  1  0.23976532  0.24969941  0.72150392  1
  Te  Te129  1  0.24822470  0.57854560  0.08990572  1
  Te  Te130  1  0.23979276  0.59894582  0.40071614  1
  Te  Te131  1  0.24888283  0.58509471  0.77111748  1
  Te  Te132  1  0.25744932  0.93864061  0.06548985  1
  Te  Te133  1  0.22019807  0.92489735  0.44381115  1
  Te  Te134  1  0.19551305  0.89844794  0.74649076  1
  Te  Te135  1  0.55936218  0.24070955  0.08254337  1
  Te  Te136  1  0.57024292  0.24281328  0.41907489  1
  Te  Te137  1  0.55096733  0.25842540  0.74474397  1
  Te  Te138  1  0.57511489  0.56655769  0.06286551  1
  Te  Te139  1  0.58365633  0.58656347  0.40032697  1
  Te  Te140  1  0.58488340  0.58271924  0.73056501  1
  Te  Te141  1  0.61546340  0.89899546  0.08410273  1
  Te  Te142  1  0.58159685  0.93231674  0.42504125  1
  Te  Te143  1  0.56433463  0.93016112  0.77354640  1
  Te  Te144  1  0.93087084  0.21799798  0.11366982  1
  Te  Te145  1  0.89649578  0.24663899  0.43428463  1
  Te  Te146  1  0.90603631  0.22693646  0.75545346  1
  Te  Te147  1  0.90321467  0.56358992  0.07846787  1
  Te  Te148  1  0.92168076  0.59620837  0.40203591  1
  Te  Te149  1  0.94008693  0.61107627  0.75128021  1
  Te  Te150  1  0.93763037  0.94598918  0.05747226  1
  Te  Te151  1  0.91470072  0.89268872  0.42554040  1
  Te  Te152  1  0.94376334  0.89281094  0.73212528  1
  Te  Te153  1  0.24133374  0.06851068  0.26512907  1
  Te  Te154  1  0.21670186  0.03930076  0.55739582  1
  Te  Te155  1  0.25080528  0.12209674  0.88660072  1
  Te  Te156  1  0.24547758  0.42056795  0.23437063  1
  Te  Te157  1  0.25174065  0.43561473  0.60226098  1
  Te  Te158  1  0.23515691  0.39365695  0.88460801  1
  Te  Te159  1  0.23041219  0.78937006  0.27755780  1
  Te  Te160  1  0.25018280  0.72043012  0.59280001  1
  Te  Te161  1  0.26818239  0.77583192  0.89392453  1
  Te  Te162  1  0.58259594  0.08610775  0.25730721  1
  Te  Te163  1  0.57754170  0.08512557  0.59133510  1
  Te  Te164  1  0.57963178  0.07350911  0.94445620  1
  Te  Te165  1  0.58848213  0.41613571  0.24685726  1
  Te  Te166  1  0.59469169  0.39461598  0.56185548  1
  Te  Te167  1  0.54717816  0.41478671  0.89426379  1
  Te  Te168  1  0.60229849  0.75789128  0.24041253  1
  Te  Te169  1  0.59801646  0.75539099  0.56968109  1
  Te  Te170  1  0.58086749  0.75040513  0.92677500  1
  Te  Te171  1  0.95380461  0.06291639  0.26528309  1
  Te  Te172  1  0.97339592  0.05751832  0.60036627  1
  Te  Te173  1  0.92067884  0.05631821  0.91209401  1
  Te  Te174  1  0.94442811  0.41767987  0.24808700  1
  Te  Te175  1  0.91479304  0.41496602  0.60251481  1
  Te  Te176  1  0.92806578  0.39218789  0.92828222  1
  Te  Te177  1  0.88585964  0.76119849  0.19175508  1
  Te  Te178  1  0.89033210  0.77522042  0.60967953  1
  Te  Te179  1  0.90804723  0.77073928  0.94144648  1
