# generated using pymatgen
data_In2Te3
_symmetry_space_group_name_H-M   'P 1'
_cell_length_a   18.78840616
_cell_length_b   18.78059493
_cell_length_c   18.78263501
_cell_angle_alpha   89.99516258
_cell_angle_beta   89.93720127
_cell_angle_gamma   89.96578321
_symmetry_Int_Tables_number   1
_chemical_formula_structural   In2Te3
_chemical_formula_sum   'In72 Te108'
_cell_volume   6627.58742089
_cell_formula_units_Z   36
loop_
 _symmetry_equiv_pos_site_id
 _symmetry_equiv_pos_as_xyz
  1  'x, y, z'
loop_
 _atom_site_type_symbol
 _atom_site_label
 _atom_site_symmetry_multiplicity
 _atom_site_fract_x
 _atom_site_fract_y
 _atom_site_fract_z
 _atom_site_occupancy
  In  In0  1  0.35096849  0.16448397  0.82206612  1
  In  In1  1  0.50795687  0.33150789  0.82913048  1
  In  In2  1  0.50801072  0.16254459  0.00258454  1
  In  In3  1  0.65321218  0.18341665  0.49657880  1
  In  In4  1  0.17037137  0.33184507  0.17433869  1
  In  In5  1  0.47910936  0.83723117  0.00694189  1
  In  In6  1  0.17967060  -0.02081575  0.12624426  1
  In  In7  1  0.00152681  0.16954877  0.51447428  1
  In  In8  1  0.49240675  -0.00507225  0.17407278  1
  In  In9  1  0.83981998  0.64741762  0.51030200  1
  In  In10  1  0.84288201  0.15377848  -0.01536094  1
  In  In11  1  0.82005884  0.52264046  -0.01848612  1
  In  In12  1  0.49764152  0.01681546  0.50047494  1
  In  In13  1  -0.02426831  -0.00682614  0.32923358  1
  In  In14  1  0.35549302  -0.00779002  0.33353545  1
  In  In15  1  0.34615233  0.01064771  0.67419120  1
  In  In16  1  0.34278464  0.50486439  0.15074535  1
  In  In17  1  0.33707239  0.16506562  0.51119163  1
  In  In18  1  0.00990183  0.84175920  0.83356308  1
  In  In19  1  0.16818522  0.84339730  0.66534142  1
  In  In20  1  0.32151877  0.17033327  0.15140192  1
  In  In21  1  0.50231198  0.47658891  0.66830866  1
  In  In22  1  0.51242560  0.84516702  0.67185048  1
  In  In23  1  0.65133941  0.81235795  0.16262138  1
  In  In24  1  0.82958179  0.50717463  0.36502354  1
  In  In25  1  0.01003446  0.69871496  -0.00221672  1
  In  In26  1  0.67306678  0.67620649  -0.04119505  1
  In  In27  1  -0.00864768  0.32810714  0.66705091  1
  In  In28  1  0.83382952  0.82844338  0.33114909  1
  In  In29  1  0.01605097  0.50839380  0.18909711  1
  In  In30  1  0.81310297  0.35742612  0.78329165  1
  In  In31  1  0.84084711  0.01362027  0.82176813  1
  In  In32  1  -0.00486517  0.83392968  0.16015809  1
  In  In33  1  0.16613799  0.16576507  0.00279797  1
  In  In34  1  0.48920854  0.49582200  -0.00743737  1
  In  In35  1  0.81743449  0.17191284  0.32619714  1
  In  In36  1  0.34675412  0.32201310  0.67463427  1
  In  In37  1  0.34267886  0.67487066  0.32280535  1
  In  In38  1  0.48874958  0.64237556  0.82818119  1
  In  In39  1  0.01667105  0.33306198  0.33292746  1
  In  In40  1  0.65635126  0.84954208  0.51431913  1
  In  In41  1  0.68679421  0.01535104  -0.02481582  1
  In  In42  1  0.18636061  0.69069593  0.87801965  1
  In  In43  1  0.65855320  0.48707600  0.51691210  1
  In  In44  1  0.83857385  0.67629406  0.17044648  1
  In  In45  1  0.16888130  0.50939538  0.68434271  1
  In  In46  1  0.17364986  0.81517505  0.34157886  1
  In  In47  1  0.20614675  0.47511285  -0.02387007  1
  In  In48  1  0.65411062  0.16691996  0.83204481  1
  In  In49  1  0.82030442  0.34311241  0.52850164  1
  In  In50  1  0.81766716  0.31945353  0.16408483  1
  In  In51  1  0.31990751  0.67150567  0.67603306  1
  In  In52  1  -0.01720520  0.67301657  0.66427819  1
  In  In53  1  0.64302141  0.01723376  0.34334588  1
  In  In54  1  0.18250876  0.18093088  0.32962815  1
  In  In55  1  0.16312775  -0.00321125  0.84291980  1
  In  In56  1  0.00293961  0.00431934  0.67522620  1
  In  In57  1  0.15817284  0.67315978  0.52015116  1
  In  In58  1  -0.00596145  0.50595248  0.82388902  1
  In  In59  1  0.62281171  0.46837150  0.18624111  1
  In  In60  1  0.34958298  0.32217850  0.33966121  1
  In  In61  1  0.64955428  0.32915507  -0.00425407  1
  In  In62  1  0.65645664  0.65702726  0.32809942  1
  In  In63  1  0.14450044  0.50555077  0.34345946  1
  In  In64  1  0.17074103  0.00731180  0.51291801  1
  In  In65  1  0.34540528  0.48578506  0.49213114  1
  In  In66  1  0.81966763  -0.02192512  0.54049491  1
  In  In67  1  0.49932171  0.65383970  0.16475511  1
  In  In68  1  0.83647570  0.84431066  -0.04970041  1
  In  In69  1  0.01349453  0.32171751  -0.01926251  1
  In  In70  1  0.50923402  0.68278118  0.49986927  1
  In  In71  1  0.81962504  -0.00083401  0.14216042  1
  Te  Te72  1  0.08142805  0.08168785  0.09084090  1
  Te  Te73  1  0.08235617  0.08267143  0.40865976  1
  Te  Te74  1  0.09194659  0.09121523  0.75273199  1
  Te  Te75  1  0.08354810  0.41988776  0.08096045  1
  Te  Te76  1  0.08192046  0.41166604  0.43790826  1
  Te  Te77  1  0.09156567  0.40696001  0.76460697  1
  Te  Te78  1  0.10423714  0.75925240  0.09178519  1
  Te  Te79  1  0.07323396  0.75677557  0.43305864  1
  Te  Te80  1  0.09926680  0.73566749  0.75143360  1
  Te  Te81  1  0.40720578  0.07075860  0.07231688  1
  Te  Te82  1  0.42713899  0.10863652  0.40008253  1
  Te  Te83  1  0.45112046  0.08709145  0.74329528  1
  Te  Te84  1  0.43218941  0.40266824  0.09222970  1
  Te  Te85  1  0.44423343  0.39165483  0.43320771  1
  Te  Te86  1  0.39871810  0.43499464  0.77727299  1
  Te  Te87  1  0.40499714  0.72579411  0.07464587  1
  Te  Te88  1  0.41095866  0.76026340  0.42311635  1
  Te  Te89  1  0.41565362  0.75894670  0.75507210  1
  Te  Te90  1  0.73266824  0.11062992  0.08406919  1
  Te  Te91  1  0.76174841  0.06688400  0.42530613  1
  Te  Te92  1  0.74818784  0.09524418  0.74189736  1
  Te  Te93  1  0.74572183  0.42605319  0.07982630  1
  Te  Te94  1  0.73561037  0.40058483  0.41377134  1
  Te  Te95  1  0.72561619  0.45205974  0.71282961  1
  Te  Te96  1  0.76590468  0.76188512  0.06701129  1
  Te  Te97  1  0.73799157  0.74680063  0.42101405  1
  Te  Te98  1  0.75907577  0.72976798  0.82705560  1
  Te  Te99  1  0.07315678  0.23063755  0.23418463  1
  Te  Te100  1  0.09422366  0.25787546  0.58448924  1
  Te  Te101  1  0.09996032  0.24243426  0.89282655  1
  Te  Te102  1  0.10928112  0.60783406  0.24281599  1
  Te  Te103  1  0.06873889  0.56961100  0.58618398  1
  Te  Te104  1  0.08320691  0.57944665  0.92432711  1
  Te  Te105  1  0.08664553  0.92211994  0.25146274  1
  Te  Te106  1  0.06854110  0.91047338  0.57244619  1
  Te  Te107  1  0.09276099  0.90404594  0.93680878  1
  Te  Te108  1  0.41881913  0.24173631  0.23654181  1
  Te  Te109  1  0.43660445  0.24419389  0.58682088  1
  Te  Te110  1  0.41718217  0.25852973  0.92625057  1
  Te  Te111  1  0.42810978  0.56171897  0.26421763  1
  Te  Te112  1  0.41636219  0.58670475  0.59073696  1
  Te  Te113  1  0.40240867  0.60677431  0.94598185  1
  Te  Te114  1  0.40284695  0.89356641  0.23331201  1
  Te  Te115  1  0.41427478  0.91409585  0.57723321  1
  Te  Te116  1  0.38549183  0.91349960  0.91790041  1
  Te  Te117  1  0.71744104  0.25704158  0.25567291  1
  Te  Te118  1  0.74281075  0.24148731  0.60151086  1
  Te  Te119  1  0.75524159  0.25906487  0.90986988  1
  Te  Te120  1  0.75055191  0.57339702  0.24192543  1
  Te  Te121  1  0.75615358  0.56377896  0.60521572  1
  Te  Te122  1  0.74132665  0.57838712  0.86447016  1
  Te  Te123  1  0.74054114  0.91491615  0.24600089  1
  Te  Te124  1  0.72346143  0.91158330  0.63632144  1
  Te  Te125  1  0.71883953  0.90513296  0.87261250  1
  Te  Te126  1  0.25649248  0.27651790  0.06288930  1
  Te  Te127  1  0.24410691  0.26456855  0.43804123  1
  Te  Te128  1  0.24819394  0.25887443  0.76736212  1
  Te  Te129  1  0.24207668  0.57987466  0.07301017  1
  Te  Te130  1  0.25222126  0.59016011  0.42696341  1
  Te  Te131  1  0.25378955  0.58851924  0.78463964  1
  Te  Te132  1  0.28177858  0.91220332  0.04036446  1
  Te  Te133  1  0.25640871  0.91897951  0.42411538  1
  Te  Te134  1  0.26362001  0.91350150  0.75876519  1
  Te  Te135  1  0.56843487  0.25978545  0.09761781  1
  Te  Te136  1  0.59409723  0.26211953  0.38663446  1
  Te  Te137  1  0.59558369  0.26275336  0.73224405  1
  Te  Te138  1  0.60377081  0.58734502  0.07596940  1
  Te  Te139  1  0.57251881  0.56902597  0.41887364  1
  Te  Te140  1  0.58771138  0.57912956  0.73603014  1
  Te  Te141  1  0.59939685  0.92226747  0.06980677  1
  Te  Te142  1  0.56191052  0.90795434  0.40950485  1
  Te  Te143  1  0.61333654  0.92318500  0.74761558  1
  Te  Te144  1  0.92110115  0.24649712  0.07945338  1
  Te  Te145  1  0.91057870  0.25323079  0.41794590  1
  Te  Te146  1  0.90991943  0.24943142  0.76260773  1
  Te  Te147  1  0.92327596  0.58611859  0.07892878  1
  Te  Te148  1  0.93674813  0.59503034  0.41127119  1
  Te  Te149  1  0.90038521  0.56305762  0.72507137  1
  Te  Te150  1  0.91780206  0.91985614  0.05795030  1
  Te  Te151  1  0.91142302  0.90684806  0.43677503  1
  Te  Te152  1  0.90873989  0.90093459  0.73926757  1
  Te  Te153  1  0.24717287  0.06896023  0.24651840  1
  Te  Te154  1  0.23928469  0.10049643  0.61077937  1
  Te  Te155  1  0.26487817  0.08223773  0.91958993  1
  Te  Te156  1  0.25254253  0.42221016  0.26517404  1
  Te  Te157  1  0.25516333  0.41893510  0.59495321  1
  Te  Te158  1  0.28700809  0.39562610  0.88408836  1
  Te  Te159  1  0.26234430  0.76356280  0.23416150  1
  Te  Te160  1  0.26478097  0.76901237  0.57273468  1
  Te  Te161  1  0.27637793  0.79594053  0.93135544  1
  Te  Te162  1  0.58011974  0.09558622  0.23700469  1
  Te  Te163  1  0.59838907  0.07911687  0.58664005  1
  Te  Te164  1  0.56141031  0.06329851  0.90010341  1
  Te  Te165  1  0.56223776  0.38499554  0.29276861  1
  Te  Te166  1  0.58339677  0.37954165  0.58892068  1
  Te  Te167  1  0.59530265  0.43551000  0.90117867  1
  Te  Te168  1  0.55802622  0.75624683  0.26676665  1
  Te  Te169  1  0.60435552  0.73683554  0.60590635  1
  Te  Te170  1  0.56099765  0.75976360  0.90185751  1
  Te  Te171  1  0.90625520  0.08788420  0.23250640  1
  Te  Te172  1  0.90200345  0.09284001  0.60036022  1
  Te  Te173  1  0.94179107  0.07379062  0.91042690  1
  Te  Te174  1  0.90917574  0.41556486  0.25245097  1
  Te  Te175  1  0.92213882  0.43251470  0.58525146  1
  Te  Te176  1  0.90301765  0.41081848  0.91416193  1
  Te  Te177  1  0.93865148  0.73765651  0.26687843  1
  Te  Te178  1  0.88398030  0.75973677  0.59625823  1
  Te  Te179  1  0.90991916  0.72190843  0.88415124  1
