# generated using pymatgen
data_In2Te3
_symmetry_space_group_name_H-M   'P 1'
_cell_length_a   18.86731179
_cell_length_b   18.85327747
_cell_length_c   18.86186371
_cell_angle_alpha   89.94380008
_cell_angle_beta   90.10749125
_cell_angle_gamma   89.88419049
_symmetry_Int_Tables_number   1
_chemical_formula_structural   In2Te3
_chemical_formula_sum   'In72 Te108'
_cell_volume   6709.33730316
_cell_formula_units_Z   36
loop_
 _symmetry_equiv_pos_site_id
 _symmetry_equiv_pos_as_xyz
  1  'x, y, z'
loop_
 _atom_site_type_symbol
 _atom_site_label
 _atom_site_symmetry_multiplicity
 _atom_site_fract_x
 _atom_site_fract_y
 _atom_site_fract_z
 _atom_site_occupancy
  In  In0  1  0.16618342  0.84709094  0.32780494  1
  In  In1  1  -0.02231069  0.09911747  0.38070249  1
  In  In2  1  0.50628572  0.84570657  0.65631301  1
  In  In3  1  0.32524798  0.67418637  0.66253818  1
  In  In4  1  0.51446887  0.00082814  0.19354096  1
  In  In5  1  -0.04767343  0.49560228  0.54540600  1
  In  In6  1  0.15974047  0.67163294  0.82174476  1
  In  In7  1  0.33940074  0.51229111  0.48326653  1
  In  In8  1  -0.00273352  0.19338745  0.17170614  1
  In  In9  1  0.17266290  -0.00917188  0.15558015  1
  In  In10  1  0.65805339  0.64725464  -0.01246507  1
  In  In11  1  0.52954939  0.33262387  0.18675784  1
  In  In12  1  0.31971548  0.84568838  0.53472352  1
  In  In13  1  0.83662188  0.80973818  0.34983459  1
  In  In14  1  0.14198597  0.65245891  0.17214519  1
  In  In15  1  0.51038448  0.00747898  0.82516273  1
  In  In16  1  0.02389053  0.84781188  0.79411124  1
  In  In17  1  0.01728652  0.83638296  0.16041656  1
  In  In18  1  0.85021712  0.17290810  0.01756129  1
  In  In19  1  0.33902467  0.33467628  0.67743438  1
  In  In20  1  -0.00880543  0.88495975  0.50289810  1
  In  In21  1  0.35062094  0.68045421  -0.01643362  1
  In  In22  1  0.01036589  0.65677598  0.34405804  1
  In  In23  1  0.81965734  0.65319356  0.15186097  1
  In  In24  1  -0.01391674  0.16699765  0.83169330  1
  In  In25  1  0.85167754  0.00144865  0.16495617  1
  In  In26  1  0.14048862  0.32284883  0.51826275  1
  In  In27  1  0.01013180  0.01999064  0.66872199  1
  In  In28  1  0.68033702  -0.00819506  -0.01951097  1
  In  In29  1  0.50229629  0.85675939  0.34874048  1
  In  In30  1  0.84585985  0.46063120  0.33314202  1
  In  In31  1  0.50730194  0.18230239  0.34924006  1
  In  In32  1  0.67883078  0.33233915  0.64785570  1
  In  In33  1  0.30429590  0.15055613  0.52389993  1
  In  In34  1  0.67035861  0.32628329  0.02454113  1
  In  In35  1  0.32660264  0.33950920  -0.02598782  1
  In  In36  1  0.50494588  0.64854234  0.84274245  1
  In  In37  1  0.83362898  0.31484208  0.81980586  1
  In  In38  1  0.70300898  0.30868826  0.35000904  1
  In  In39  1  0.48943718  0.32935688  0.83188222  1
  In  In40  1  0.00568377  -0.00392455  -0.04180187  1
  In  In41  1  0.16661458  0.15412978  -0.00974303  1
  In  In42  1  0.51289198  0.67737949  0.49532899  1
  In  In43  1  0.81830838  0.82709798  0.66400585  1
  In  In44  1  0.15661792  0.48455159  0.36836691  1
  In  In45  1  0.33258660  -0.00057638  0.01285522  1
  In  In46  1  -0.00535574  0.30513483  0.00800300  1
  In  In47  1  0.67819987  0.66449911  0.35908131  1
  In  In48  1  0.32338187  0.17214920  0.81378279  1
  In  In49  1  0.17246002  0.48592743  -0.02279724  1
  In  In50  1  0.67333363  -0.00207855  0.36318755  1
  In  In51  1  0.52780338  0.14520360  0.64294443  1
  In  In52  1  0.15116053  0.50925322  0.65747592  1
  In  In53  1  0.81831269  0.47893324  0.00506341  1
  In  In54  1  0.33243879  0.33460433  0.36503087  1
  In  In55  1  0.49039708  0.81048758  -0.00805340  1
  In  In56  1  0.80538765  0.67724877  0.50935074  1
  In  In57  1  0.32846936  0.01905100  0.32632238  1
  In  In58  1  0.69378601  0.12796464  0.78136580  1
  In  In59  1  0.50616839  0.51262421  0.01791729  1
  In  In60  1  0.83493160  0.00829074  0.52042648  1
  In  In61  1  0.83533895  0.84026063  -0.05894334  1
  In  In62  1  -0.02209942  0.66321145  0.00433951  1
  In  In63  1  0.14881741  0.31391572  0.18248428  1
  In  In64  1  0.33239455  0.13958532  0.16930341  1
  In  In65  1  0.66790430  0.81826869  0.16628925  1
  In  In66  1  0.33884733  0.50994200  0.16982636  1
  In  In67  1  0.31333386  0.85920313  0.79080448  1
  In  In68  1  0.33350822  0.65380927  0.32953553  1
  In  In69  1  0.67222158  0.51510682  0.83149901  1
  In  In70  1  -0.02526712  0.50499125  0.78985311  1
  In  In71  1  0.51108257  0.34920359  0.50330078  1
  Te  Te72  1  0.06202408  0.08568101  0.07938828  1
  Te  Te73  1  0.09999076  0.09112402  0.46405433  1
  Te  Te74  1  0.09156202  0.07863086  0.77773117  1
  Te  Te75  1  0.08739802  0.40624862  0.07811669  1
  Te  Te76  1  0.04559914  0.41623577  0.44427329  1
  Te  Te77  1  0.06556596  0.40887487  0.72523404  1
  Te  Te78  1  0.09195403  0.74722587  0.06254116  1
  Te  Te79  1  0.06835918  0.77423665  0.41837734  1
  Te  Te80  1  0.09024772  0.74265651  0.71166026  1
  Te  Te81  1  0.44148290  0.07964799  0.08230835  1
  Te  Te82  1  0.41438132  0.09195385  0.42785338  1
  Te  Te83  1  0.41916735  0.08425607  0.73092917  1
  Te  Te84  1  0.41402248  0.40387420  0.08459872  1
  Te  Te85  1  0.43923905  0.43542636  0.39716621  1
  Te  Te86  1  0.43246011  0.42850595  0.74028230  1
  Te  Te87  1  0.43348120  0.72480492  0.09634673  1
  Te  Te88  1  0.40038399  0.76279838  0.42315055  1
  Te  Te89  1  0.41848804  0.75148227  0.75924164  1
  Te  Te90  1  0.74703011  0.08052515  0.08547645  1
  Te  Te91  1  0.75840620  0.10229274  0.42863364  1
  Te  Te92  1  0.80488652  0.07071925  0.70711581  1
  Te  Te93  1  0.71060145  0.44678204  0.10235834  1
  Te  Te94  1  0.76809610  0.40491467  0.44685653  1
  Te  Te95  1  0.75839902  0.42317881  0.74490912  1
  Te  Te96  1  0.76151814  0.76140625  0.05971908  1
  Te  Te97  1  0.72062845  0.78661901  0.44262313  1
  Te  Te98  1  0.76804943  0.70313116  0.73247604  1
  Te  Te99  1  0.05917724  0.26299348  0.28954929  1
  Te  Te100  1  0.08320802  0.19560267  0.57319036  1
  Te  Te101  1  0.09287907  0.25475629  0.90428785  1
  Te  Te102  1  0.06991596  0.54832639  0.25535685  1
  Te  Te103  1  0.06670106  0.58584523  0.56457590  1
  Te  Te104  1  0.06664971  0.57397178  0.90750217  1
  Te  Te105  1  0.06748901  0.94168921  0.25703496  1
  Te  Te106  1  0.10470617  0.93395340  0.58763560  1
  Te  Te107  1  0.10311761  0.90035769  0.90820462  1
  Te  Te108  1  0.40118647  0.24744234  0.25330833  1
  Te  Te109  1  0.41928777  0.24730938  0.57729193  1
  Te  Te110  1  0.41707438  0.22901970  0.92104408  1
  Te  Te111  1  0.43593178  0.58029849  0.25449613  1
  Te  Te112  1  0.42182941  0.58758088  0.58455288  1
  Te  Te113  1  0.40520698  0.55738811  0.91279465  1
  Te  Te114  1  0.40296352  0.91206242  0.24542471  1
  Te  Te115  1  0.41195662  0.94157650  0.59636506  1
  Te  Te116  1  0.41671793  0.91605987  0.90688580  1
  Te  Te117  1  0.78249418  0.25628442  0.23554332  1
  Te  Te118  1  0.78945237  0.27906978  0.56196612  1
  Te  Te119  1  0.74846691  0.24214402  0.92071608  1
  Te  Te120  1  0.76213011  0.57566403  0.26698644  1
  Te  Te121  1  0.77691706  0.58632959  0.62443719  1
  Te  Te122  1  0.77794981  0.59265952  0.91264456  1
  Te  Te123  1  0.75100385  0.91501279  0.24911436  1
  Te  Te124  1  0.72821457  0.93584989  0.60007543  1
  Te  Te125  1  0.73081548  0.91201289  0.86477377  1
  Te  Te126  1  0.25000727  0.24412784  0.08169411  1
  Te  Te127  1  0.23196551  0.23917792  0.42101392  1
  Te  Te128  1  0.23075152  0.25128430  0.73123689  1
  Te  Te129  1  0.24550249  0.58479974  0.07234028  1
  Te  Te130  1  0.22919633  0.60393782  0.42888186  1
  Te  Te131  1  0.25307404  0.57359284  0.75189786  1
  Te  Te132  1  0.26103118  0.89595036  0.08828941  1
  Te  Te133  1  0.25005975  0.93066826  0.42224048  1
  Te  Te134  1  0.21964169  0.94049736  0.70873201  1
  Te  Te135  1  0.58203744  0.23267364  0.09474291  1
  Te  Te136  1  0.60257790  0.24011628  0.45019750  1
  Te  Te137  1  0.58959338  0.24663261  0.74748869  1
  Te  Te138  1  0.60165448  0.58260124  0.10778525  1
  Te  Te139  1  0.60357604  0.57186029  0.44505560  1
  Te  Te140  1  0.59017167  0.59392492  0.73590396  1
  Te  Te141  1  0.58269047  0.91228039  0.07867404  1
  Te  Te142  1  0.56309167  0.94766539  0.45045287  1
  Te  Te143  1  0.60018653  0.91549731  0.75110467  1
  Te  Te144  1  0.87543820  0.29876896  0.11062879  1
  Te  Te145  1  0.89066019  0.20503682  0.44422137  1
  Te  Te146  1  0.93232482  0.25698732  0.72344222  1
  Te  Te147  1  0.92059709  0.55436241  0.09510467  1
  Te  Te148  1  0.89953795  0.58755510  0.42079635  1
  Te  Te149  1  0.90002706  0.61316245  0.72055162  1
  Te  Te150  1  0.91779690  0.90698964  0.06298590  1
  Te  Te151  1  0.90353943  0.94181346  0.39131327  1
  Te  Te152  1  0.90354845  0.93400013  0.73811704  1
  Te  Te153  1  0.21570127  0.09728185  0.25630801  1
  Te  Te154  1  0.23372430  0.07388314  0.62795273  1
  Te  Te155  1  0.25178054  0.06573189  0.90223454  1
  Te  Te156  1  0.24818017  0.41702393  0.25787649  1
  Te  Te157  1  0.25574832  0.41730805  0.56783545  1
  Te  Te158  1  0.24020643  0.40429296  0.87530288  1
  Te  Te159  1  0.24066860  0.74271652  0.24480639  1
  Te  Te160  1  0.21998675  0.75276460  0.59380125  1
  Te  Te161  1  0.25546686  0.76307053  0.89789827  1
  Te  Te162  1  0.60383102  0.09823435  0.26538699  1
  Te  Te163  1  0.61830030  0.04764250  0.58027748  1
  Te  Te164  1  0.60038694  0.09812272  0.90575902  1
  Te  Te165  1  0.60894247  0.40524208  0.28367853  1
  Te  Te166  1  0.58690103  0.43527905  0.59522111  1
  Te  Te167  1  0.58643851  0.41627231  0.92107885  1
  Te  Te168  1  0.58311544  0.75205557  0.27190773  1
  Te  Te169  1  0.59121037  0.73603414  0.60639246  1
  Te  Te170  1  0.59868437  0.75586626  0.90051428  1
  Te  Te171  1  0.88367788  0.12216115  0.25065730  1
  Te  Te172  1  0.93751632  0.11513223  0.57120852  1
  Te  Te173  1  0.88842412  0.07570381  0.90591970  1
  Te  Te174  1  0.92307124  0.36423968  0.25022480  1
  Te  Te175  1  0.91344872  0.36524782  0.60522522  1
  Te  Te176  1  0.92219125  0.40800543  0.91013826  1
  Te  Te177  1  0.92300578  0.74187481  0.23567866  1
  Te  Te178  1  0.91831375  0.76777751  0.56563499  1
  Te  Te179  1  0.93914555  0.74914914  0.88393734  1
