# generated using pymatgen
data_In2Te3
_symmetry_space_group_name_H-M   'P 1'
_cell_length_a   18.83582015
_cell_length_b   18.82989581
_cell_length_c   18.83080863
_cell_angle_alpha   90.07144402
_cell_angle_beta   89.99410409
_cell_angle_gamma   90.02676834
_symmetry_Int_Tables_number   1
_chemical_formula_structural   In2Te3
_chemical_formula_sum   'In72 Te108'
_cell_volume   6678.83992684
_cell_formula_units_Z   36
loop_
 _symmetry_equiv_pos_site_id
 _symmetry_equiv_pos_as_xyz
  1  'x, y, z'
loop_
 _atom_site_type_symbol
 _atom_site_label
 _atom_site_symmetry_multiplicity
 _atom_site_fract_x
 _atom_site_fract_y
 _atom_site_fract_z
 _atom_site_occupancy
  In  In0  1  0.49757217  -0.01735067  0.51505068  1
  In  In1  1  0.33202915  0.83484167  0.79380779  1
  In  In2  1  -0.02201057  0.50636549  0.81719941  1
  In  In3  1  0.83662008  0.33179453  0.85601879  1
  In  In4  1  -0.01155803  0.82902938  0.17896816  1
  In  In5  1  0.48300501  0.82545403  0.67277747  1
  In  In6  1  0.36233776  0.31501519  0.66624016  1
  In  In7  1  0.03166188  0.83440807  0.83297125  1
  In  In8  1  0.16821623  0.34572571  0.15641830  1
  In  In9  1  0.81152311  0.33524247  0.16074018  1
  In  In10  1  0.67742648  0.84295119  0.49208880  1
  In  In11  1  0.33000891  -0.01656545  0.32669824  1
  In  In12  1  -0.01606056  0.64633434  0.01143554  1
  In  In13  1  0.66001062  0.65291136  0.67712685  1
  In  In14  1  0.65473222  0.82345447  0.17561209  1
  In  In15  1  -0.01744075  0.15307576  0.48706357  1
  In  In16  1  0.52288160  0.00821397  0.18154273  1
  In  In17  1  0.51158956  0.81945408  0.34306510  1
  In  In18  1  0.17294320  0.01576233  0.49106040  1
  In  In19  1  0.15222990  0.48722339  0.00251900  1
  In  In20  1  0.16781512  0.66244074  0.19064016  1
  In  In21  1  -0.00127561  0.00531924  0.67308124  1
  In  In22  1  0.13448312  -0.00572368  0.18019127  1
  In  In23  1  0.18170045  0.15711204  0.35678830  1
  In  In24  1  0.18037830  0.68959981  0.82516032  1
  In  In25  1  0.16248228  0.50608805  0.33801201  1
  In  In26  1  -0.00759616  0.16055079  0.16451356  1
  In  In27  1  0.84452324  0.02589079  0.81235017  1
  In  In28  1  0.50802492  0.34387562  0.15079657  1
  In  In29  1  0.83026894  0.49251130  0.66146631  1
  In  In30  1  0.84132756  0.82046959  0.32769074  1
  In  In31  1  0.49443418  0.02911874  0.83702768  1
  In  In32  1  0.81843603  0.18010515  0.00071941  1
  In  In33  1  0.66489444  0.83980785  0.85680423  1
  In  In34  1  0.49816726  0.82421930  0.01912108  1
  In  In35  1  0.51666291  0.18249431  -0.00090599  1
  In  In36  1  0.35494570  0.64786634  -0.01033531  1
  In  In37  1  0.17489986  0.15748035  0.66705642  1
  In  In38  1  0.84958442  0.64955759  0.81400413  1
  In  In39  1  0.82872128  0.84683273  0.00055506  1
  In  In40  1  0.82858832  -0.00316534  0.15595872  1
  In  In41  1  0.33524302  0.20332440  0.15619314  1
  In  In42  1  0.65902269  0.02931732  0.66841330  1
  In  In43  1  -0.01370474  0.32882432  0.33176751  1
  In  In44  1  0.83181297  0.49342376  0.01253994  1
  In  In45  1  0.81653523  0.16581764  0.32865512  1
  In  In46  1  0.34158252  0.66458396  0.64629348  1
  In  In47  1  0.01875051  0.20862636  0.86809018  1
  In  In48  1  0.79342319  0.51668239  0.31524349  1
  In  In49  1  0.83241595  -0.00391897  0.46719629  1
  In  In50  1  0.33898892  0.50278479  0.86757416  1
  In  In51  1  0.49556007  0.49202486  0.33316761  1
  In  In52  1  0.31724181  0.80106457  0.16339527  1
  In  In53  1  0.14686454  0.51868800  0.65284480  1
  In  In54  1  0.64469675  0.45749998  0.50495866  1
  In  In55  1  0.66014207  0.65399929  0.04012839  1
  In  In56  1  0.53121842  0.18857554  0.35534964  1
  In  In57  1  -0.00641205  0.34910873  0.65898211  1
  In  In58  1  0.65914007  0.49154668  0.83585687  1
  In  In59  1  0.84560895  0.80370963  0.63138966  1
  In  In60  1  0.48760220  0.65864113  0.48546014  1
  In  In61  1  0.33809547  0.01359864  -0.01828753  1
  In  In62  1  0.34089516  0.16822797  0.82519468  1
  In  In63  1  0.35519804  0.50163245  0.17458537  1
  In  In64  1  0.17820964  0.33323225  0.49408757  1
  In  In65  1  0.79675766  0.20459592  0.64658366  1
  In  In66  1  0.16159734  0.85493059  0.00401989  1
  In  In67  1  0.51588879  0.32612493  0.83266183  1
  In  In68  1  0.17382857  0.83837239  0.65199531  1
  In  In69  1  0.33918087  0.49126628  0.48108226  1
  In  In70  1  0.84675311  0.66248623  0.48223128  1
  In  In71  1  0.33843662  0.16935311  0.49884765  1
  Te  Te72  1  0.08936478  0.08907303  0.07907843  1
  Te  Te73  1  0.06502638  0.06671892  0.39362450  1
  Te  Te74  1  0.07178084  0.10290580  0.76365532  1
  Te  Te75  1  0.06422269  0.43807809  0.10897066  1
  Te  Te76  1  0.07102831  0.41578038  0.42661616  1
  Te  Te77  1  0.08744548  0.41836372  0.75499324  1
  Te  Te78  1  0.08445507  0.74523319  0.07731295  1
  Te  Te79  1  0.10164484  0.70259220  0.46843145  1
  Te  Te80  1  0.07840574  0.73933152  0.72361546  1
  Te  Te81  1  0.42071036  0.08728556  0.08897702  1
  Te  Te82  1  0.42217782  0.08115711  0.39917030  1
  Te  Te83  1  0.41897837  0.08761928  0.72735112  1
  Te  Te84  1  0.40539681  0.41393757  0.06637336  1
  Te  Te85  1  0.44080625  0.39466185  0.43330990  1
  Te  Te86  1  0.41725620  0.41993511  0.76227739  1
  Te  Te87  1  0.43100530  0.71786467  0.10458563  1
  Te  Te88  1  0.40910658  0.77641267  0.44256284  1
  Te  Te89  1  0.42561496  0.71908034  0.76622916  1
  Te  Te90  1  0.73937566  0.09399242  0.09171074  1
  Te  Te91  1  0.73324491  0.09546486  0.43071448  1
  Te  Te92  1  0.73668744  0.12223521  0.76128270  1
  Te  Te93  1  0.72194861  0.41169530  0.06773341  1
  Te  Te94  1  0.73498826  0.40218704  0.39615504  1
  Te  Te95  1  0.74933254  0.40220910  0.75081936  1
  Te  Te96  1  0.76686394  0.75039214  0.09816877  1
  Te  Te97  1  0.73810421  0.73659186  0.40302108  1
  Te  Te98  1  0.74640374  0.75545462  0.75390726  1
  Te  Te99  1  0.09154609  0.24501516  0.25972869  1
  Te  Te100  1  0.08344545  0.23553203  0.56983464  1
  Te  Te101  1  0.11696682  0.28460756  0.94576560  1
  Te  Te102  1  0.06316305  0.58717555  0.26190447  1
  Te  Te103  1  0.07830615  0.57119864  0.53217448  1
  Te  Te104  1  0.08155212  0.59679116  0.90014328  1
  Te  Te105  1  0.09324486  0.88521351  0.26883890  1
  Te  Te106  1  0.07707768  0.92571604  0.57200454  1
  Te  Te107  1  0.08538466  0.94327167  0.91456275  1
  Te  Te108  1  0.43382077  0.25995380  0.25647457  1
  Te  Te109  1  0.44221699  0.26253476  0.55252767  1
  Te  Te110  1  0.41063481  0.26021693  0.92489275  1
  Te  Te111  1  0.40165780  0.59318705  0.27926293  1
  Te  Te112  1  0.43345541  0.55928385  0.58619522  1
  Te  Te113  1  0.45338083  0.54129047  0.95532137  1
  Te  Te114  1  0.42526881  0.90194244  0.23539308  1
  Te  Te115  1  0.39440775  0.89327785  0.57452690  1
  Te  Te116  1  0.42394115  0.90459011  0.91143692  1
  Te  Te117  1  0.72428160  0.24183401  0.23811728  1
  Te  Te118  1  0.69686015  0.28244082  0.56421882  1
  Te  Te119  1  0.72288077  0.26707401  0.92500672  1
  Te  Te120  1  0.71098070  0.59184283  0.21549430  1
  Te  Te121  1  0.74203235  0.58015167  0.57122705  1
  Te  Te122  1  0.75222857  0.59370426  0.91752052  1
  Te  Te123  1  0.74624893  0.91565639  0.25623595  1
  Te  Te124  1  0.75343819  0.92453514  0.59726120  1
  Te  Te125  1  0.75581806  0.94813601  0.91398553  1
  Te  Te126  1  0.22768442  0.24498874  0.06007015  1
  Te  Te127  1  0.27623967  0.26811660  0.39853770  1
  Te  Te128  1  0.24497527  0.26219216  0.75009662  1
  Te  Te129  1  0.24619693  0.58369820  0.07903693  1
  Te  Te130  1  0.24805661  0.59394629  0.42501855  1
  Te  Te131  1  0.25613909  0.57896901  0.75126016  1
  Te  Te132  1  0.26150245  0.92840496  0.09519100  1
  Te  Te133  1  0.23692635  0.90814842  0.41178707  1
  Te  Te134  1  0.22770316  0.92933571  0.75642053  1
  Te  Te135  1  0.60041566  0.23202303  0.11165374  1
  Te  Te136  1  0.62443435  0.28862811  0.42079044  1
  Te  Te137  1  0.58574221  0.26145240  0.71939876  1
  Te  Te138  1  0.59426186  0.55013356  0.12268851  1
  Te  Te139  1  0.59507823  0.57628003  0.42063371  1
  Te  Te140  1  0.56620641  0.56944234  0.75156507  1
  Te  Te141  1  0.59707824  0.92533772  0.07553435  1
  Te  Te142  1  0.59187919  0.93346827  0.40489544  1
  Te  Te143  1  0.58309512  0.91473014  0.74872322  1
  Te  Te144  1  0.92135299  0.26310162  0.07965915  1
  Te  Te145  1  0.89119118  0.25853366  0.42821547  1
  Te  Te146  1  0.91492190  0.25100047  0.74585555  1
  Te  Te147  1  0.89961958  0.58096549  0.11116668  1
  Te  Te148  1  0.91245197  0.57050135  0.38712503  1
  Te  Te149  1  0.93615574  0.59755620  0.70123195  1
  Te  Te150  1  0.93612941  0.92685212  0.07319421  1
  Te  Te151  1  0.92900232  0.89544672  0.42391442  1
  Te  Te152  1  0.91224727  0.90143017  0.74803066  1
  Te  Te153  1  0.25646629  0.09368469  0.23931112  1
  Te  Te154  1  0.27339440  0.06850034  0.59323827  1
  Te  Te155  1  0.24195139  0.08667956  0.90025867  1
  Te  Te156  1  0.25798479  0.41674212  0.25686659  1
  Te  Te157  1  0.25427334  0.41651615  0.59620854  1
  Te  Te158  1  0.23716409  0.40319415  0.91371107  1
  Te  Te159  1  0.23842881  0.75780417  0.27963450  1
  Te  Te160  1  0.23184630  0.72834052  0.56572525  1
  Te  Te161  1  0.26383277  0.76261091  0.93102544  1
  Te  Te162  1  0.60742887  0.09752104  0.26391197  1
  Te  Te163  1  0.56765713  0.09689884  0.57614136  1
  Te  Te164  1  0.59838617  0.08878276  0.91908558  1
  Te  Te165  1  0.59516141  0.43281954  0.23705986  1
  Te  Te166  1  0.59221420  0.38429427  0.62961278  1
  Te  Te167  1  0.60286480  0.39498812  0.93600027  1
  Te  Te168  1  0.58416682  0.72244659  0.25762728  1
  Te  Te169  1  0.58647509  0.75398355  0.57900384  1
  Te  Te170  1  0.58295432  0.73406075  0.92870764  1
  Te  Te171  1  0.91507710  0.07001626  0.25920826  1
  Te  Te172  1  0.89466227  0.08854352  0.59553897  1
  Te  Te173  1  0.92263547  0.10048326  0.92047948  1
  Te  Te174  1  0.90197372  0.42078156  0.24769301  1
  Te  Te175  1  0.90530864  0.41325691  0.56211390  1
  Te  Te176  1  0.93762511  0.41575424  0.93238941  1
  Te  Te177  1  0.93504090  0.72155569  0.26723008  1
  Te  Te178  1  0.95202280  0.75795538  0.53480725  1
  Te  Te179  1  0.91760659  0.75406988  0.91274169  1
