# generated using pymatgen
data_In2Te3
_symmetry_space_group_name_H-M   'P 1'
_cell_length_a   18.76986107
_cell_length_b   18.76480300
_cell_length_c   18.76936912
_cell_angle_alpha   89.93920159
_cell_angle_beta   89.99075595
_cell_angle_gamma   90.02595793
_symmetry_Int_Tables_number   1
_chemical_formula_structural   In2Te3
_chemical_formula_sum   'In72 Te108'
_cell_volume   6610.80653887
_cell_formula_units_Z   36
loop_
 _symmetry_equiv_pos_site_id
 _symmetry_equiv_pos_as_xyz
  1  'x, y, z'
loop_
 _atom_site_type_symbol
 _atom_site_label
 _atom_site_symmetry_multiplicity
 _atom_site_fract_x
 _atom_site_fract_y
 _atom_site_fract_z
 _atom_site_occupancy
  In  In0  1  0.51195330  0.67447373  0.51668243  1
  In  In1  1  0.83347852  0.15107352  0.34157611  1
  In  In2  1  0.83174079  0.49056836  0.31666294  1
  In  In3  1  0.81593877  0.84969106  0.65514288  1
  In  In4  1  0.29704580  0.68192650  0.35495319  1
  In  In5  1  0.84325387  0.66360659  0.84507664  1
  In  In6  1  0.84244529  0.32985925  0.16386106  1
  In  In7  1  0.53381431  -0.01407585  0.15278680  1
  In  In8  1  0.84490786  0.15733716  0.66303033  1
  In  In9  1  0.17466276  0.48517545  0.63984011  1
  In  In10  1  0.15242995  0.51771521  0.32417411  1
  In  In11  1  0.18326058  0.16839021  0.01154671  1
  In  In12  1  0.17848962  0.68134901  0.48248327  1
  In  In13  1  0.65104794  0.00799102  0.64689974  1
  In  In14  1  -0.03001908  -0.00831491  0.01502749  1
  In  In15  1  0.17803204  0.18221778  0.65612508  1
  In  In16  1  0.00473194  0.49897903  0.50214515  1
  In  In17  1  0.51537905  0.83937382  0.00549232  1
  In  In18  1  0.48300976  0.69865264  0.83902826  1
  In  In19  1  0.50841097  0.50276046  0.66103180  1
  In  In20  1  0.80884089  0.15809662  -0.00279002  1
  In  In21  1  0.36002231  0.67509451  0.68763429  1
  In  In22  1  0.15495903  0.33708728  0.51170308  1
  In  In23  1  -0.00030987  0.32004350  0.66812657  1
  In  In24  1  0.68395988  0.31660710  0.33402237  1
  In  In25  1  0.66449930  0.00840281  0.34483516  1
  In  In26  1  0.34559131  0.02722980  0.35473317  1
  In  In27  1  0.83172177  0.31303729  0.49581336  1
  In  In28  1  0.14972452  0.65069578  0.86162155  1
  In  In29  1  0.14412806  0.02560185  0.46354653  1
  In  In30  1  0.34874070  0.16256948  0.49935494  1
  In  In31  1  0.32884261  0.82270592  0.18599093  1
  In  In32  1  0.50175672  0.51093440  0.34305534  1
  In  In33  1  0.34161430  0.48920685  0.16058466  1
  In  In34  1  0.66518932  0.49333250  0.83986219  1
  In  In35  1  0.67807386  0.67665462  0.02289480  1
  In  In36  1  0.49188253  0.13710618  0.35132355  1
  In  In37  1  0.17200806  -0.00756959  0.84225453  1
  In  In38  1  0.33432937  0.81403234  0.81312349  1
  In  In39  1  0.65584283  0.32888370  0.68133644  1
  In  In40  1  0.32651116  0.65347559  -0.02159359  1
  In  In41  1  0.84054516  0.85955953  0.36000613  1
  In  In42  1  0.51911543  0.66982567  0.17938459  1
  In  In43  1  0.17720921  0.86889915  0.67413160  1
  In  In44  1  0.15654032  0.49467930  0.00107628  1
  In  In45  1  0.01718003  0.67089470  0.30984423  1
  In  In46  1  -0.02217391  0.68557112  0.68028059  1
  In  In47  1  0.50648705  0.32542157  0.83885062  1
  In  In48  1  0.67384414  0.68624951  0.66119213  1
  In  In49  1  -0.00880457  0.15973193  0.20359809  1
  In  In50  1  0.33752349  0.49610918  0.82965340  1
  In  In51  1  0.82160780  0.67016046  0.50377227  1
  In  In52  1  0.32433414  -0.00470665  0.00196327  1
  In  In53  1  -0.01509995  -0.00656150  0.65455587  1
  In  In54  1  0.15907100  0.85727659  0.32342542  1
  In  In55  1  0.67351237  0.48646427  0.16007952  1
  In  In56  1  0.50904555  0.31240746  0.49583359  1
  In  In57  1  0.32511763  0.33619790  0.34071201  1
  In  In58  1  0.32150838  0.17242571  0.16408923  1
  In  In59  1  -0.00751506  0.82215386  0.16509508  1
  In  In60  1  0.18647217  0.32347632  0.81350291  1
  In  In61  1  0.51944503  0.83533938  0.33477140  1
  In  In62  1  0.50220812  0.31949708  0.14017140  1
  In  In63  1  0.14954055  -0.02231979  0.18351693  1
  In  In64  1  0.49923480  0.01975046  0.80010678  1
  In  In65  1  0.68172829  0.67140181  0.32053363  1
  In  In66  1  0.67431819  0.15365737  0.83657745  1
  In  In67  1  0.51926108  0.17377921  -0.01012013  1
  In  In68  1  -0.01027225  0.16171532  0.83087394  1
  In  In69  1  -0.02228937  0.50504169  0.84201038  1
  In  In70  1  -0.00321387  0.34982815  -0.00358354  1
  In  In71  1  -0.00892353  0.81418005  0.85334767  1
  Te  Te72  1  0.08290770  0.07664910  0.08139871  1
  Te  Te73  1  0.07088294  0.11784415  0.36734861  1
  Te  Te74  1  0.08668829  0.08063696  0.74328577  1
  Te  Te75  1  0.07937053  0.41492985  0.10060690  1
  Te  Te76  1  0.07463020  0.40852551  0.40310822  1
  Te  Te77  1  0.08232630  0.42558110  0.75643655  1
  Te  Te78  1  0.06657913  0.73584422  0.07009422  1
  Te  Te79  1  0.07175296  0.76594867  0.41720278  1
  Te  Te80  1  0.09591233  0.75673900  0.75041981  1
  Te  Te81  1  0.41908309  0.07733419  0.09154479  1
  Te  Te82  1  0.45496532  0.04245371  0.47252324  1
  Te  Te83  1  0.38411372  0.07091578  0.72515725  1
  Te  Te84  1  0.42358433  0.41651719  0.06261884  1
  Te  Te85  1  0.41765702  0.41814522  0.43016249  1
  Te  Te86  1  0.41932288  0.40675023  0.73865746  1
  Te  Te87  1  0.41583741  0.74395770  0.08205147  1
  Te  Te88  1  0.41789142  0.75288914  0.41943157  1
  Te  Te89  1  0.45458125  0.79206850  0.71868391  1
  Te  Te90  1  0.73911234  0.05476536  0.07826808  1
  Te  Te91  1  0.76303286  0.06684847  0.44565846  1
  Te  Te92  1  0.75690086  0.06369265  0.74574063  1
  Te  Te93  1  0.76943119  0.41916054  0.06977322  1
  Te  Te94  1  0.74753184  0.42250170  0.42365868  1
  Te  Te95  1  0.75305847  0.41669974  0.74882726  1
  Te  Te96  1  0.79039367  0.75732415  0.07810301  1
  Te  Te97  1  0.73430544  0.76854844  0.42627735  1
  Te  Te98  1  0.75490524  0.76310038  0.76534378  1
  Te  Te99  1  0.10184367  0.22894986  0.27039038  1
  Te  Te100  1  0.06138797  0.22683683  0.56666613  1
  Te  Te101  1  0.08759507  0.24943249  0.90884528  1
  Te  Te102  1  0.06227367  0.56628052  0.21572163  1
  Te  Te103  1  0.07952886  0.60107253  0.58939941  1
  Te  Te104  1  0.03426264  0.59831854  0.95415965  1
  Te  Te105  1  0.03124452  0.93870759  0.27846683  1
  Te  Te106  1  0.08535307  0.91956269  0.56547079  1
  Te  Te107  1  0.07742765  0.91402410  0.93163333  1
  Te  Te108  1  0.42436679  0.24905697  0.26207148  1
  Te  Te109  1  0.43956246  0.22831966  0.59883220  1
  Te  Te110  1  0.41117250  0.24545842  0.92179101  1
  Te  Te111  1  0.40749986  0.59775066  0.25824203  1
  Te  Te112  1  0.40639726  0.57991712  0.57654874  1
  Te  Te113  1  0.43793074  0.57206747  0.91604054  1
  Te  Te114  1  0.41952993  0.92765759  0.25121571  1
  Te  Te115  1  0.35468760  0.86530438  0.54005797  1
  Te  Te116  1  0.41486816  0.90939079  0.91323514  1
  Te  Te117  1  0.75120002  0.22875530  0.23186339  1
  Te  Te118  1  0.73761075  0.23585962  0.58738883  1
  Te  Te119  1  0.74140418  0.26040472  0.91374660  1
  Te  Te120  1  0.76693905  0.59167358  0.22150471  1
  Te  Te121  1  0.74838906  0.57875725  0.59285828  1
  Te  Te122  1  0.75525141  0.57731924  0.93470616  1
  Te  Te123  1  0.76498418  0.93924185  0.25674348  1
  Te  Te124  1  0.76118520  0.94961327  0.55837096  1
  Te  Te125  1  0.72761562  0.97238822  0.95424302  1
  Te  Te126  1  0.24455681  0.27529103  0.09189496  1
  Te  Te127  1  0.24169948  0.24091799  0.42413966  1
  Te  Te128  1  0.28303930  0.23348994  0.74761538  1
  Te  Te129  1  0.24544407  0.58639641  0.08750471  1
  Te  Te130  1  0.25272790  0.55596662  0.43314796  1
  Te  Te131  1  0.24310243  0.58753581  0.75081015  1
  Te  Te132  1  0.23931075  0.89965084  0.08637067  1
  Te  Te133  1  0.26501876  0.91146921  0.42571575  1
  Te  Te134  1  0.29147582  0.94997194  0.74233086  1
  Te  Te135  1  0.61319943  0.24463587  0.07936432  1
  Te  Te136  1  0.60440840  0.22019434  0.42099830  1
  Te  Te137  1  0.56993713  0.21981782  0.74681508  1
  Te  Te138  1  0.57535813  0.57288808  0.07868811  1
  Te  Te139  1  0.60286214  0.58949383  0.42397600  1
  Te  Te140  1  0.57665584  0.60097325  0.75573274  1
  Te  Te141  1  0.63549979  0.90682474  0.07234633  1
  Te  Te142  1  0.58371272  0.92085925  0.43677905  1
  Te  Te143  1  0.59474681  0.91796997  0.75266425  1
  Te  Te144  1  0.92919108  0.23065963  0.07207590  1
  Te  Te145  1  0.92306868  0.25722223  0.39434493  1
  Te  Te146  1  0.89663221  0.26247284  0.76504230  1
  Te  Te147  1  0.93909978  0.65548085  0.06460059  1
  Te  Te148  1  0.91820287  0.58905444  0.41171248  1
  Te  Te149  1  0.89342789  0.57044885  0.73139500  1
  Te  Te150  1  0.88346409  0.90418459  0.09931094  1
  Te  Te151  1  0.95953258  0.92985455  0.41533689  1
  Te  Te152  1  0.91307204  0.91042003  0.75957630  1
  Te  Te153  1  0.24060105  0.08041871  0.25531842  1
  Te  Te154  1  0.24341675  0.07383657  0.56953687  1
  Te  Te155  1  0.26574900  0.09769289  0.90454361  1
  Te  Te156  1  0.23815358  0.41451756  0.24488337  1
  Te  Te157  1  0.27066645  0.38730889  0.59015014  1
  Te  Te158  1  0.25549469  0.40737290  0.92249784  1
  Te  Te159  1  0.21250774  0.73847626  0.24013191  1
  Te  Te160  1  0.25854002  0.75647918  0.59393986  1
  Te  Te161  1  0.23730071  0.76312194  0.92095220  1
  Te  Te162  1  0.59170610  0.09548167  0.23981890  1
  Te  Te163  1  0.55381227  0.09925642  0.58002792  1
  Te  Te164  1  0.58655893  0.05279484  0.92494140  1
  Te  Te165  1  0.58012639  0.41003760  0.25863250  1
  Te  Te166  1  0.59450580  0.41722790  0.56988065  1
  Te  Te167  1  0.59279296  0.40238390  0.93090869  1
  Te  Te168  1  0.61513114  0.77633027  0.22931252  1
  Te  Te169  1  0.59466001  0.78083469  0.57777749  1
  Te  Te170  1  0.60467340  0.75731277  0.91253210  1
  Te  Te171  1  0.88409908  0.05891109  0.23361609  1
  Te  Te172  1  0.91625749  0.08049111  0.55636132  1
  Te  Te173  1  0.89778562  0.06634009  0.90250025  1
  Te  Te174  1  0.93458501  0.41324427  0.24492209  1
  Te  Te175  1  0.91054200  0.41300149  0.58568741  1
  Te  Te176  1  0.88802020  0.42015941  0.92482870  1
  Te  Te177  1  0.89713204  0.75036928  0.26351019  1
  Te  Te178  1  0.91699533  0.77118641  0.57055022  1
  Te  Te179  1  0.87630190  0.77602193  0.94576517  1
