# generated using pymatgen
data_In2Te3
_symmetry_space_group_name_H-M   'P 1'
_cell_length_a   19.00243802
_cell_length_b   18.99117466
_cell_length_c   18.98183725
_cell_angle_alpha   89.84212963
_cell_angle_beta   89.77684359
_cell_angle_gamma   90.13044501
_symmetry_Int_Tables_number   1
_chemical_formula_structural   In2Te3
_chemical_formula_sum   'In72 Te108'
_cell_volume   6850.04333989
_cell_formula_units_Z   36
loop_
 _symmetry_equiv_pos_site_id
 _symmetry_equiv_pos_as_xyz
  1  'x, y, z'
loop_
 _atom_site_type_symbol
 _atom_site_label
 _atom_site_symmetry_multiplicity
 _atom_site_fract_x
 _atom_site_fract_y
 _atom_site_fract_z
 _atom_site_occupancy
  In  In0  1  0.65834859  0.48191492  0.16145015  1
  In  In1  1  0.35787103  0.15793661  0.86506309  1
  In  In2  1  0.19528400  0.19338849  0.28777961  1
  In  In3  1  0.69897870  0.68045616  0.64536228  1
  In  In4  1  0.30390038  0.52530750  0.46215233  1
  In  In5  1  0.33151354  0.01452749  0.01739910  1
  In  In6  1  0.01016830  0.82466815  0.47393710  1
  In  In7  1  -0.00872005  0.62086319  -0.02427514  1
  In  In8  1  0.51408303  0.01110050  0.15312552  1
  In  In9  1  0.49511832  0.52866538  0.66558291  1
  In  In10  1  0.86522601  -0.00195570  0.45488837  1
  In  In11  1  0.66615526  0.03440592  -0.02841814  1
  In  In12  1  0.34344990  0.70355289  0.66706092  1
  In  In13  1  0.33843798  0.03155106  0.66772475  1
  In  In14  1  0.47663911  0.47802537  0.30346004  1
  In  In15  1  0.66729521  0.53372739  0.52465943  1
  In  In16  1  0.16779455  0.81938211  -0.02182151  1
  In  In17  1  0.84108445  0.33176296  0.53583784  1
  In  In18  1  0.31680452  0.51110638  0.17094316  1
  In  In19  1  0.17050569  0.63925523  0.84279074  1
  In  In20  1  0.01523989  0.67343553  0.32939403  1
  In  In21  1  0.49196941  0.48273742  0.01643330  1
  In  In22  1  0.81124622  0.82702096  0.25929161  1
  In  In23  1  0.66461592  -0.01904459  0.30778250  1
  In  In24  1  0.19477016  -0.00482915  0.37186402  1
  In  In25  1  0.34002381  0.35222518  0.66668017  1
  In  In26  1  0.84746678  0.18068419  -0.03489537  1
  In  In27  1  0.15526404  0.66523681  0.16736622  1
  In  In28  1  0.65750458  0.17900121  0.14267539  1
  In  In29  1  0.44069405  0.00554038  0.47997680  1
  In  In30  1  0.47801523  0.82792095  0.31038618  1
  In  In31  1  0.14020497  0.34405497  0.17002771  1
  In  In32  1  -0.00208055  0.32626390  0.36245473  1
  In  In33  1  0.49404375  0.67300021  0.45246589  1
  In  In34  1  0.67448469  0.48322094  0.82522781  1
  In  In35  1  0.43771571  0.18046679  0.24617546  1
  In  In36  1  0.01285879  0.00573770  0.66172661  1
  In  In37  1  0.03552778  0.03099304  0.03044474  1
  In  In38  1  0.01940639  0.85466340  0.18464748  1
  In  In39  1  0.84979537  0.30924862  0.15369981  1
  In  In40  1  0.00191196  0.17670096  0.51509363  1
  In  In41  1  0.15975116  0.51649941  0.65570786  1
  In  In42  1  0.50768569  0.64746012  0.86025030  1
  In  In43  1  0.30837392  0.47022005  0.84358175  1
  In  In44  1  -0.01576775  0.81940581  0.84978496  1
  In  In45  1  0.83638772  -0.01519081  0.83777876  1
  In  In46  1  0.34722388  0.87464691  0.82980448  1
  In  In47  1  0.69487962  0.29072733  0.75099862  1
  In  In48  1  0.67740981  0.82040964  0.85378893  1
  In  In49  1  -0.00535594  0.48694917  0.51044754  1
  In  In50  1  0.83861461  0.46769696  -0.01157415  1
  In  In51  1  0.31686971  0.67356726  0.03134917  1
  In  In52  1  0.67525626  0.00788837  0.65526072  1
  In  In53  1  0.19702134  0.02140435  0.84194213  1
  In  In54  1  0.31578713  0.19411299  0.48476867  1
  In  In55  1  0.16975845  0.18646650  0.66782927  1
  In  In56  1  0.66333847  0.15864111  0.50770339  1
  In  In57  1  0.86953900  0.18829587  0.73623379  1
  In  In58  1  0.13681513  0.81807865  0.66302097  1
  In  In59  1  0.68231462  0.31172672  0.33039797  1
  In  In60  1  0.63119528  0.66643938  0.30720687  1
  In  In61  1  0.16049752  0.30762692  0.85020952  1
  In  In62  1  0.31419319  0.83977599  0.16832795  1
  In  In63  1  0.50898791  0.30795329  0.85649743  1
  In  In64  1  0.80773411  0.50139754  0.34961535  1
  In  In65  1  0.67503430  0.85020484  0.48130859  1
  In  In66  1  0.83257226  0.68457676  0.51442761  1
  In  In67  1  0.53546424  0.84677795  0.66729185  1
  In  In68  1  0.50047105  0.35192780  0.51165638  1
  In  In69  1  0.83245587  0.63986757  0.83220709  1
  In  In70  1  0.67678004  0.67611469  0.04021294  1
  In  In71  1  -0.00836406  0.47813616  0.16087186  1
  Te  Te72  1  0.08969926  0.09362092  0.15002264  1
  Te  Te73  1  0.07539162  0.08253612  0.42382910  1
  Te  Te74  1  0.09225307  0.09231455  0.75756848  1
  Te  Te75  1  0.06165502  0.40103535  0.05800143  1
  Te  Te76  1  0.08947829  0.42483102  0.41679056  1
  Te  Te77  1  0.11415479  0.42435631  0.76441144  1
  Te  Te78  1  0.07603375  0.72608842  0.05236323  1
  Te  Te79  1  0.11714185  0.74133143  0.41133150  1
  Te  Te80  1  0.07221218  0.72656704  0.76699150  1
  Te  Te81  1  0.40422358  0.10701342  0.11309247  1
  Te  Te82  1  0.40442384  0.12139490  0.38383153  1
  Te  Te83  1  0.42674908  0.05757815  0.78106394  1
  Te  Te84  1  0.40567032  0.40579417  0.10863139  1
  Te  Te85  1  0.39967424  0.41242122  0.41715122  1
  Te  Te86  1  0.43766611  0.42690858  0.76365744  1
  Te  Te87  1  0.41003942  0.77266358  0.07826136  1
  Te  Te88  1  0.39231515  0.77204501  0.41809023  1
  Te  Te89  1  0.44893798  0.75644199  0.76369662  1
  Te  Te90  1  0.76321320  0.10246670  0.06646645  1
  Te  Te91  1  0.73750353  0.06658341  0.41219309  1
  Te  Te92  1  0.75682665  0.08447364  0.75837402  1
  Te  Te93  1  0.74477243  0.38760327  0.07870855  1
  Te  Te94  1  0.73706365  0.40550879  0.44272145  1
  Te  Te95  1  0.78905716  0.41105462  0.76221258  1
  Te  Te96  1  0.73616317  0.77133533  0.13512347  1
  Te  Te97  1  0.72536913  0.72635250  0.41302646  1
  Te  Te98  1  0.77060793  0.75946174  0.75118226  1
  Te  Te99  1  0.05054729  0.24332989  0.24915471  1
  Te  Te100  1  0.07777701  0.27598894  0.59517948  1
  Te  Te101  1  0.06015804  0.23455577  0.93175257  1
  Te  Te102  1  0.08058369  0.56154578  0.25008986  1
  Te  Te103  1  0.07229132  0.59549745  0.57112998  1
  Te  Te104  1  0.07147494  0.53655571  0.88339581  1
  Te  Te105  1  0.12105850  0.89573192  0.27922545  1
  Te  Te106  1  0.08962437  0.92352712  0.56234657  1
  Te  Te107  1  0.09200244  0.91794862  0.89342667  1
  Te  Te108  1  0.35587473  0.30564307  0.23659156  1
  Te  Te109  1  0.41746292  0.24881512  0.58663121  1
  Te  Te110  1  0.40535727  0.26653015  0.95403567  1
  Te  Te111  1  0.40829906  0.59579611  0.25017350  1
  Te  Te112  1  0.41047555  0.58980104  0.55807602  1
  Te  Te113  1  0.39669169  0.57040167  0.93034664  1
  Te  Te114  1  0.40780841  0.93849821  0.23708098  1
  Te  Te115  1  0.41814835  0.91615614  0.60381582  1
  Te  Te116  1  0.42664087  0.93754383  0.93338819  1
  Te  Te117  1  0.76810757  0.22051518  0.24617020  1
  Te  Te118  1  0.73722633  0.24624915  0.60644462  1
  Te  Te119  1  0.76120314  0.27280226  0.88747019  1
  Te  Te120  1  0.74091068  0.58096893  0.24113920  1
  Te  Te121  1  0.79522324  0.55942198  0.61056074  1
  Te  Te122  1  0.73116833  0.57557599  0.93753632  1
  Te  Te123  1  0.77326874  0.96116833  0.21317911  1
  Te  Te124  1  0.76549350  0.91944356  0.57434558  1
  Te  Te125  1  0.75970741  0.90972332  0.94359221  1
  Te  Te126  1  0.24528646  0.23792433  0.14746564  1
  Te  Te127  1  0.21198497  0.26756943  0.41391985  1
  Te  Te128  1  0.28074132  0.24352862  0.75625079  1
  Te  Te129  1  0.21778031  0.56801705  0.06614726  1
  Te  Te130  1  0.24389252  0.62205051  0.37039994  1
  Te  Te131  1  0.27928213  0.58584495  0.74086349  1
  Te  Te132  1  0.22531827  0.91892471  0.07421980  1
  Te  Te133  1  0.31255504  0.93370461  0.43510390  1
  Te  Te134  1  0.23935159  0.91690955  0.73258245  1
  Te  Te135  1  0.55723616  0.22415876  0.04247780  1
  Te  Te136  1  0.57806074  0.25237303  0.42526035  1
  Te  Te137  1  0.56466016  0.21931809  0.75362230  1
  Te  Te138  1  0.56625821  0.58484722  0.09945606  1
  Te  Te139  1  0.57771102  0.54885341  0.40148887  1
  Te  Te140  1  0.60553152  0.60309116  0.74931996  1
  Te  Te141  1  0.59314304  0.93790053  0.05546718  1
  Te  Te142  1  0.56143211  0.91876899  0.41100700  1
  Te  Te143  1  0.60778249  0.92766926  0.77068020  1
  Te  Te144  1  0.94484583  0.25829219  0.05074783  1
  Te  Te145  1  0.89277341  0.23851791  0.42854079  1
  Te  Te146  1  0.97498757  0.26722983  0.80908751  1
  Te  Te147  1  0.89759177  0.56861375  0.08483146  1
  Te  Te148  1  0.90973750  0.59190755  0.41323171  1
  Te  Te149  1  0.89975221  0.57959626  0.71970029  1
  Te  Te150  1  0.94901235  0.92227391  0.07665981  1
  Te  Te151  1  0.89691874  0.86769238  0.38203216  1
  Te  Te152  1  0.92524905  0.90947503  0.74140308  1
  Te  Te153  1  0.21356612  0.05135230  0.23313818  1
  Te  Te154  1  0.24005608  0.09284789  0.57211784  1
  Te  Te155  1  0.23590172  0.11387139  0.95259196  1
  Te  Te156  1  0.23716962  0.41855179  0.25795204  1
  Te  Te157  1  0.25183472  0.42741354  0.57287210  1
  Te  Te158  1  0.25299741  0.37770563  0.94115667  1
  Te  Te159  1  0.26281943  0.72479692  0.25339187  1
  Te  Te160  1  0.23513270  0.74592887  0.58086945  1
  Te  Te161  1  0.27074427  0.75043846  0.89135078  1
  Te  Te162  1  0.58125737  0.10614162  0.25681722  1
  Te  Te163  1  0.56404712  0.06270934  0.56878176  1
  Te  Te164  1  0.58600512  0.14948164  0.91704240  1
  Te  Te165  1  0.58020970  0.37947019  0.24191395  1
  Te  Te166  1  0.59188805  0.42723233  0.60657850  1
  Te  Te167  1  0.59286082  0.40950424  0.93088519  1
  Te  Te168  1  0.58831672  0.78004525  0.22300268  1
  Te  Te169  1  0.57871649  0.74015107  0.56778219  1
  Te  Te170  1  0.57920549  0.74907045  0.94542871  1
  Te  Te171  1  0.95599789  0.03761082  0.34485551  1
  Te  Te172  1  0.90980252  0.10519902  0.61292849  1
  Te  Te173  1  0.93503253  0.06509612  0.91839622  1
  Te  Te174  1  0.89434106  0.40953920  0.26579566  1
  Te  Te175  1  0.95347730  0.38637481  0.61362136  1
  Te  Te176  1  0.89682863  0.39453599  0.87354545  1
  Te  Te177  1  0.93206616  0.73670003  0.22127873  1
  Te  Te178  1  0.93939547  0.75375920  0.58344095  1
  Te  Te179  1  0.89502919  0.73284145  0.93622689  1
