# generated using pymatgen
data_In2Te3
_symmetry_space_group_name_H-M   'P 1'
_cell_length_a   18.95935193
_cell_length_b   18.94975474
_cell_length_c   18.95052374
_cell_angle_alpha   89.97493259
_cell_angle_beta   89.99519185
_cell_angle_gamma   90.09693272
_symmetry_Int_Tables_number   1
_chemical_formula_structural   In2Te3
_chemical_formula_sum   'In72 Te108'
_cell_volume   6808.44030608
_cell_formula_units_Z   36
loop_
 _symmetry_equiv_pos_site_id
 _symmetry_equiv_pos_as_xyz
  1  'x, y, z'
loop_
 _atom_site_type_symbol
 _atom_site_label
 _atom_site_symmetry_multiplicity
 _atom_site_fract_x
 _atom_site_fract_y
 _atom_site_fract_z
 _atom_site_occupancy
  In  In0  1  0.84056270  0.51957113  0.02325487  1
  In  In1  1  0.18373143  0.19127057  0.32159755  1
  In  In2  1  0.48386078  0.48140801  0.68976638  1
  In  In3  1  0.17915534  0.34809708  0.17051564  1
  In  In4  1  0.85328866  0.69370929  0.19461494  1
  In  In5  1  0.17679731  0.52891184  0.01962440  1
  In  In6  1  0.82826038  -0.02204485  0.17809595  1
  In  In7  1  0.49166393  0.68087852  0.86338691  1
  In  In8  1  0.64656811  0.30896526  0.70009253  1
  In  In9  1  0.50429797  0.34294749  0.51115422  1
  In  In10  1  0.01184596  0.00965400  0.01689813  1
  In  In11  1  0.49497380  0.87285006  0.66234666  1
  In  In12  1  0.49555691  -0.00079219  0.15416310  1
  In  In13  1  0.33065742  0.33198742  0.66023036  1
  In  In14  1  0.50780458  0.02100742  0.82109468  1
  In  In15  1  0.51908437  0.66412837  0.49334003  1
  In  In16  1  0.31683799  0.67233074  0.65594108  1
  In  In17  1  0.86111963  0.81414420  0.63523540  1
  In  In18  1  0.81919494  0.63902307  0.81997478  1
  In  In19  1  0.63570993  0.50836757  0.15765277  1
  In  In20  1  0.17355081  0.66001813  0.83207915  1
  In  In21  1  0.00089055  0.18722992  0.49208049  1
  In  In22  1  0.16488568  0.81936371  0.63485502  1
  In  In23  1  0.67606126  0.65885742  0.33969533  1
  In  In24  1  0.66699247  0.02847675  0.67042576  1
  In  In25  1  0.16985891  0.34993888  0.51747626  1
  In  In26  1  0.16996524  0.01451439  0.16992586  1
  In  In27  1  0.32808162  0.82496036  0.85043433  1
  In  In28  1  0.82817521  0.83591639  0.01037833  1
  In  In29  1  0.34842738  0.32779069  0.32753818  1
  In  In30  1  0.33262642  0.01148417  0.67419690  1
  In  In31  1  -0.00682952  0.47873187  0.83075725  1
  In  In32  1  0.00764087  0.34837967  0.65903415  1
  In  In33  1  0.82777186  0.48908697  0.65029120  1
  In  In34  1  0.30778397  0.53546449  0.47404709  1
  In  In35  1  -0.00532523  0.68080753  0.02150307  1
  In  In36  1  0.34358803  0.65725517  0.01336392  1
  In  In37  1  0.17541891  0.00415121  0.84776661  1
  In  In38  1  0.85444921  -0.02587782  0.49145745  1
  In  In39  1  0.48014576  0.53920036  0.31847467  1
  In  In40  1  0.82698157  0.32196572  0.15700761  1
  In  In41  1  0.65215052  0.14795688  0.14559017  1
  In  In42  1  0.31717916  0.33213831  0.01299711  1
  In  In43  1  0.67236728  0.30502379  -0.02550027  1
  In  In44  1  0.67613807  0.64413939  0.65196031  1
  In  In45  1  0.65577890  0.17485204  0.51378339  1
  In  In46  1  0.67324797  -0.01116892  0.00309567  1
  In  In47  1  -0.00653177  -0.01895747  0.33658700  1
  In  In48  1  0.14106352  0.81789440  0.35743682  1
  In  In49  1  0.67445048  0.82529787  0.47857174  1
  In  In50  1  -0.01501027  0.84452171  0.82428570  1
  In  In51  1  -0.01023751  0.34193444  0.01219240  1
  In  In52  1  0.16979282  0.66367070  0.17542551  1
  In  In53  1  0.84676600  0.16437849  0.68111201  1
  In  In54  1  0.52015345  0.84233625  0.00072460  1
  In  In55  1  0.49587050  0.80638404  0.33320311  1
  In  In56  1  0.02081958  -0.02928937  0.68017273  1
  In  In57  1  -0.00069053  0.15616032  0.84476350  1
  In  In58  1  0.67071913  -0.01968996  0.33000512  1
  In  In59  1  0.83468142  0.14006124  0.31972365  1
  In  In60  1  0.84276036  0.49527084  0.34962028  1
  In  In61  1  -0.00861949  0.31638140  0.33391774  1
  In  In62  1  0.48444468  0.47885855  0.00903147  1
  In  In63  1  0.15699984  0.34561918  0.82256353  1
  In  In64  1  0.18272237  0.00398181  0.49020062  1
  In  In65  1  0.01835272  0.52884553  0.48968153  1
  In  In66  1  0.31625696  0.84080445  0.17415710  1
  In  In67  1  0.66187380  0.35625469  0.32832733  1
  In  In68  1  0.47861295  0.18480131  0.00111480  1
  In  In69  1  0.45262261  0.02594005  0.47336881  1
  In  In70  1  0.32577114  0.03722224  -0.00697559  1
  In  In71  1  0.67030743  0.49507262  0.83517133  1
  Te  Te72  1  0.11744530  0.10351515  0.06357156  1
  Te  Te73  1  0.07779583  0.09629523  0.39956002  1
  Te  Te74  1  0.09285425  0.08286823  0.74589263  1
  Te  Te75  1  0.08156336  0.43432404  0.09138906  1
  Te  Te76  1  0.07980708  0.41030381  0.41312878  1
  Te  Te77  1  0.09852522  0.44929333  0.72563207  1
  Te  Te78  1  0.09946906  0.75722629  0.08778734  1
  Te  Te79  1  0.06915465  0.73270751  0.46421717  1
  Te  Te80  1  0.08772563  0.75568592  0.75212548  1
  Te  Te81  1  0.39920161  0.10640788  0.10631348  1
  Te  Te82  1  0.39711590  0.10865460  0.36260516  1
  Te  Te83  1  0.42956188  0.11259681  0.73373619  1
  Te  Te84  1  0.41148777  0.39688848  0.10608358  1
  Te  Te85  1  0.41593455  0.43852771  0.42652775  1
  Te  Te86  1  0.41889984  0.37843994  0.77191268  1
  Te  Te87  1  0.41796318  0.76764662  0.08587278  1
  Te  Te88  1  0.40802756  0.73016686  0.42334941  1
  Te  Te89  1  0.42164187  0.76354316  0.74595186  1
  Te  Te90  1  0.76844202  0.08024653  0.08027433  1
  Te  Te91  1  0.74648560  0.07419341  0.43176228  1
  Te  Te92  1  0.74068031  0.10921444  0.77452996  1
  Te  Te93  1  0.73540847  0.41378152  0.07734713  1
  Te  Te94  1  0.75134326  0.41150845  0.42865494  1
  Te  Te95  1  0.75909169  0.40445292  0.75524344  1
  Te  Te96  1  0.75974369  0.73498560  0.09125133  1
  Te  Te97  1  0.76916562  0.71990452  0.43932496  1
  Te  Te98  1  0.75913904  0.74518705  0.73002282  1
  Te  Te99  1  0.07570220  0.24676806  0.23111879  1
  Te  Te100  1  0.09537648  0.24210982  0.59604421  1
  Te  Te101  1  0.08036377  0.25934489  0.92189029  1
  Te  Te102  1  0.09118497  0.58418684  0.27198856  1
  Te  Te103  1  0.10351155  0.62508835  0.56566732  1
  Te  Te104  1  0.06619777  0.57948284  0.91895371  1
  Te  Te105  1  0.08867196  0.90860700  0.24424538  1
  Te  Te106  1  0.07459669  0.91401055  0.55336064  1
  Te  Te107  1  0.08286366  0.90943285  0.92015147  1
  Te  Te108  1  0.41772892  0.21970202  0.25926474  1
  Te  Te109  1  0.40978592  0.24791271  0.56852026  1
  Te  Te110  1  0.40462655  0.27158241  0.90803148  1
  Te  Te111  1  0.39361738  0.60853257  0.22608149  1
  Te  Te112  1  0.42975415  0.58312512  0.59098019  1
  Te  Te113  1  0.40336377  0.56798488  0.90670180  1
  Te  Te114  1  0.42008055  0.91575197  0.25561745  1
  Te  Te115  1  0.38996017  0.92040615  0.56473066  1
  Te  Te116  1  0.41811945  0.92843389  0.91629905  1
  Te  Te117  1  0.73529402  0.23487474  0.25082600  1
  Te  Te118  1  0.75254305  0.25209815  0.59971720  1
  Te  Te119  1  0.74422169  0.22864504  0.87547786  1
  Te  Te120  1  0.74862473  0.56260949  0.24408318  1
  Te  Te121  1  0.77645370  0.59399139  0.55708728  1
  Te  Te122  1  0.73563158  0.58826545  0.93628136  1
  Te  Te123  1  0.76524635  0.88450565  0.27348042  1
  Te  Te124  1  0.74083116  0.92094505  0.57966213  1
  Te  Te125  1  0.75966669  0.91718194  0.90987769  1
  Te  Te126  1  0.23337420  0.23604031  0.09018775  1
  Te  Te127  1  0.25789568  0.25915609  0.43476609  1
  Te  Te128  1  0.23655623  0.25273561  0.74293622  1
  Te  Te129  1  0.28937827  0.56001156  0.12119594  1
  Te  Te130  1  0.20803029  0.57363836  0.37367405  1
  Te  Te131  1  0.27304316  0.58033767  0.76090190  1
  Te  Te132  1  0.25075584  0.93001487  0.06932766  1
  Te  Te133  1  0.24638085  0.91761754  0.39104748  1
  Te  Te134  1  0.24542263  0.90143862  0.74565562  1
  Te  Te135  1  0.57658637  0.26361975  0.08733670  1
  Te  Te136  1  0.57913889  0.25420761  0.41123133  1
  Te  Te137  1  0.56052338  0.19859884  0.74162377  1
  Te  Te138  1  0.55460914  0.59270890  0.07097375  1
  Te  Te139  1  0.59478413  0.55794019  0.41900229  1
  Te  Te140  1  0.57835177  0.59206314  0.75903626  1
  Te  Te141  1  0.60593886  0.90485640  0.11016778  1
  Te  Te142  1  0.56403076  0.91929892  0.42766626  1
  Te  Te143  1  0.60173383  0.92016911  0.75927011  1
  Te  Te144  1  0.90682194  0.23577553  0.07096571  1
  Te  Te145  1  0.88415667  0.24719935  0.41656138  1
  Te  Te146  1  0.93049841  0.26476277  0.75831031  1
  Te  Te147  1  0.93572728  0.58332533  0.12060291  1
  Te  Te148  1  0.95696219  0.59235406  0.36661162  1
  Te  Te149  1  0.92435932  0.57397493  0.73368866  1
  Te  Te150  1  0.93159112  0.90369209  0.09576793  1
  Te  Te151  1  0.90646177  0.87016508  0.39437070  1
  Te  Te152  1  0.89024821  0.92712923  0.73789112  1
  Te  Te153  1  0.25920912  0.07009106  0.27724839  1
  Te  Te154  1  0.25847600  0.09341268  0.57731732  1
  Te  Te155  1  0.26934507  0.11197716  0.88082251  1
  Te  Te156  1  0.24428267  0.42217056  0.28157226  1
  Te  Te157  1  0.25703970  0.45091212  0.58741666  1
  Te  Te158  1  0.23644973  0.42869924  0.92516969  1
  Te  Te159  1  0.25171710  0.74722167  0.27331142  1
  Te  Te160  1  0.26974025  0.76034656  0.54870942  1
  Te  Te161  1  0.23901095  0.74325929  0.94112153  1
  Te  Te162  1  0.58029503  0.07748638  0.25858449  1
  Te  Te163  1  0.55915540  0.07602332  0.57508039  1
  Te  Te164  1  0.57693180  0.08770540  0.93705692  1
  Te  Te165  1  0.55177256  0.41968747  0.24733691  1
  Te  Te166  1  0.59447787  0.41978952  0.60657104  1
  Te  Te167  1  0.57744376  0.40352217  0.90924235  1
  Te  Te168  1  0.59291477  0.73831906  0.24971571  1
  Te  Te169  1  0.58226566  0.76362397  0.59310697  1
  Te  Te170  1  0.60270746  0.76182001  0.91128336  1
  Te  Te171  1  0.93612386  0.07605631  0.23137634  1
  Te  Te172  1  0.92478342  0.08074802  0.57526472  1
  Te  Te173  1  0.92034529  0.05180286  0.90988915  1
  Te  Te174  1  0.91477709  0.40933081  0.24305807  1
  Te  Te175  1  0.92612036  0.42103601  0.55638465  1
  Te  Te176  1  0.89056244  0.41695103  0.92308989  1
  Te  Te177  1  0.94280567  0.77031209  0.27946361  1
  Te  Te178  1  0.96713340  0.72602986  0.58367377  1
  Te  Te179  1  0.91013210  0.73385979  0.90474088  1
