# generated using pymatgen
data_In2Te3
_symmetry_space_group_name_H-M   'P 1'
_cell_length_a   18.90264882
_cell_length_b   18.90876183
_cell_length_c   18.90410252
_cell_angle_alpha   89.99736089
_cell_angle_beta   89.91111542
_cell_angle_gamma   90.10462170
_symmetry_Int_Tables_number   1
_chemical_formula_structural   In2Te3
_chemical_formula_sum   'In72 Te108'
_cell_volume   6756.79237879
_cell_formula_units_Z   36
loop_
 _symmetry_equiv_pos_site_id
 _symmetry_equiv_pos_as_xyz
  1  'x, y, z'
loop_
 _atom_site_type_symbol
 _atom_site_label
 _atom_site_symmetry_multiplicity
 _atom_site_fract_x
 _atom_site_fract_y
 _atom_site_fract_z
 _atom_site_occupancy
  In  In0  1  0.51494095  0.32205916  0.81559399  1
  In  In1  1  -0.01711426  0.30755615  0.00006409  1
  In  In2  1  0.50578521  0.16940982  0.00709806  1
  In  In3  1  0.82912741  0.49695857  0.01781495  1
  In  In4  1  -0.01879264  0.83518467  0.52358063  1
  In  In5  1  0.65084205  0.48642786  0.50190389  1
  In  In6  1  0.67442645  0.83450926  0.16401147  1
  In  In7  1  0.31561078  0.18743755  0.79308863  1
  In  In8  1  0.17511760  0.51533606  0.33913595  1
  In  In9  1  0.35727920  0.64898673  -0.00815730  1
  In  In10  1  -0.01311710  0.85637146  0.84079516  1
  In  In11  1  0.67567484  0.68107991  0.32974266  1
  In  In12  1  0.52167112  0.81212303  0.68214365  1
  In  In13  1  0.34408310  0.00926417  0.67508653  1
  In  In14  1  0.00616496  0.67247897  0.66017111  1
  In  In15  1  0.82495977  0.47790297  0.66459030  1
  In  In16  1  0.02546511  0.66989847  0.30382148  1
  In  In17  1  0.13822563  0.86494177  0.32139968  1
  In  In18  1  0.84269866  0.01389483  0.83623945  1
  In  In19  1  0.67366590  0.18697469  0.83287073  1
  In  In20  1  -0.02600592  0.15536446  0.15509132  1
  In  In21  1  0.49312223  0.00295113  0.81726514  1
  In  In22  1  0.81981607  0.51661600  0.31945568  1
  In  In23  1  0.66640526  0.00559964  0.32696802  1
  In  In24  1  0.34821465  0.83820380  0.81298345  1
  In  In25  1  0.16851887  -0.02212919  0.51563714  1
  In  In26  1  -0.02677721  0.69462104  -0.01512442  1
  In  In27  1  0.15967572  0.14332019  0.32220238  1
  In  In28  1  0.52439685  0.31822792  0.50969508  1
  In  In29  1  0.33744224  0.67379430  0.32474484  1
  In  In30  1  0.64358952  0.02659983  0.64186784  1
  In  In31  1  0.14933863  0.85027507  -0.01927592  1
  In  In32  1  0.65071742  0.66762035  -0.01847381  1
  In  In33  1  -0.03181683  0.18641580  0.81537570  1
  In  In34  1  0.35281392  0.01670630  0.35080907  1
  In  In35  1  0.15597718  0.47307245  0.67031366  1
  In  In36  1  0.82968674  0.67930938  0.16835288  1
  In  In37  1  0.32741969  0.31900124  0.02082414  1
  In  In38  1  -0.04622274  0.33734556  0.33621211  1
  In  In39  1  0.33199238  0.49921094  0.15908189  1
  In  In40  1  0.51186234  0.66136392  0.16202872  1
  In  In41  1  0.18651670  0.66959916  0.49322318  1
  In  In42  1  0.67515453  0.50997390  0.80720006  1
  In  In43  1  0.83958865  0.01475571  0.16217470  1
  In  In44  1  -0.00143388  0.18431798  0.51231626  1
  In  In45  1  0.18338758  0.49947054  0.00010735  1
  In  In46  1  0.70010415  0.00612187  0.00877120  1
  In  In47  1  -0.02691742  0.47712507  0.50525732  1
  In  In48  1  -0.00461790  0.47895222  0.81829100  1
  In  In49  1  0.36476002  0.17810623  0.50575069  1
  In  In50  1  0.69212694  0.31307617  0.31778208  1
  In  In51  1  0.33152415  0.18722508  0.17728316  1
  In  In52  1  -0.02642504  0.84241799  0.14165024  1
  In  In53  1  -0.00347665  -0.02026486  0.32376019  1
  In  In54  1  0.51059902  -0.00439116  0.17345040  1
  In  In55  1  0.32751610  0.81904063  0.16574680  1
  In  In56  1  0.15813035  0.66958908  0.84419643  1
  In  In57  1  0.35717908  0.48870277  0.83682473  1
  In  In58  1  0.80474146  0.32232568  0.54160913  1
  In  In59  1  0.49633822  0.33974379  0.18562652  1
  In  In60  1  0.69368290  0.33089652  -0.01205881  1
  In  In61  1  0.50369727  0.65940510  0.52134632  1
  In  In62  1  0.15261006  0.32997365  0.17017647  1
  In  In63  1  0.66204785  0.86327002  0.48722877  1
  In  In64  1  0.13765044  0.01756850  0.83034764  1
  In  In65  1  0.82844958  0.03135143  0.50988877  1
  In  In66  1  0.33236225  -0.00213130  -0.03030273  1
  In  In67  1  0.16043781  0.32968092  0.51026695  1
  In  In68  1  0.35919493  0.33008401  0.35848908  1
  In  In69  1  0.84204427  0.66662501  0.50799470  1
  In  In70  1  0.34702597  0.82551404  0.52691405  1
  In  In71  1  0.33515767  0.64581541  0.65256762  1
  Te  Te72  1  0.07205216  0.06501872  0.09918379  1
  Te  Te73  1  0.07723929  0.07054546  0.42802557  1
  Te  Te74  1  0.06124528  0.09960660  0.73386122  1
  Te  Te75  1  0.07884847  0.41229281  0.06840795  1
  Te  Te76  1  0.08146437  0.41322223  0.40550882  1
  Te  Te77  1  0.09901457  0.38183183  0.77384483  1
  Te  Te78  1  0.07989470  0.75426170  0.07684980  1
  Te  Te79  1  0.08083438  0.75758950  0.42712211  1
  Te  Te80  1  0.08130209  0.76326126  0.75673919  1
  Te  Te81  1  0.40729801  0.08051593  0.08342195  1
  Te  Te82  1  0.45697015  0.08035273  0.43939463  1
  Te  Te83  1  0.43690079  0.11549508  0.73270990  1
  Te  Te84  1  0.42732759  0.42034744  0.07236544  1
  Te  Te85  1  0.46489838  0.41578834  0.41180914  1
  Te  Te86  1  0.41063302  0.39293377  0.73714187  1
  Te  Te87  1  0.43020805  0.75502782  0.07376241  1
  Te  Te88  1  0.42642831  0.74913490  0.42317338  1
  Te  Te89  1  0.42224947  0.72085383  0.75447691  1
  Te  Te90  1  0.72535851  0.10499863  0.11935015  1
  Te  Te91  1  0.72020758  0.10037999  0.43257041  1
  Te  Te92  1  0.74804467  0.09247847  0.73703801  1
  Te  Te93  1  0.74217438  0.41209158  0.10060580  1
  Te  Te94  1  0.76687424  0.42068683  0.42486026  1
  Te  Te95  1  0.77092654  0.39139449  0.77563389  1
  Te  Te96  1  0.75177309  0.75289816  0.06256771  1
  Te  Te97  1  0.76237707  0.76238165  0.42150846  1
  Te  Te98  1  0.67715827  0.67255724  0.77718820  1
  Te  Te99  1  0.06411662  0.24659531  0.26461094  1
  Te  Te100  1  0.10362658  0.23325330  0.61108422  1
  Te  Te101  1  0.07058958  0.22461652  0.91663705  1
  Te  Te102  1  0.09182704  0.56321535  0.22941437  1
  Te  Te103  1  0.08360322  0.57575700  0.56910057  1
  Te  Te104  1  0.06875186  0.57499751  0.92198445  1
  Te  Te105  1  0.08213395  0.94561671  0.19746348  1
  Te  Te106  1  0.07390569  0.91311364  0.60663007  1
  Te  Te107  1  0.05315910  0.95882899  0.94252785  1
  Te  Te108  1  0.43791291  0.22867080  0.27509002  1
  Te  Te109  1  0.40633320  0.28572660  0.59650784  1
  Te  Te110  1  0.41297238  0.24457113  0.91303159  1
  Te  Te111  1  0.42518665  0.57279568  0.25299957  1
  Te  Te112  1  0.43528191  0.55328473  0.59811221  1
  Te  Te113  1  0.45220893  0.57067781  0.91306045  1
  Te  Te114  1  0.41178527  0.91145913  0.25371478  1
  Te  Te115  1  0.43985677  0.91830445  0.60029885  1
  Te  Te116  1  0.43792797  0.90254222  0.91751971  1
  Te  Te117  1  0.77486609  0.23966260  0.21955951  1
  Te  Te118  1  0.75576515  0.21791249  0.63429853  1
  Te  Te119  1  0.77540269  0.21494288  0.94033792  1
  Te  Te120  1  0.72413724  0.58400103  0.22337350  1
  Te  Te121  1  0.74487202  0.57780992  0.58285292  1
  Te  Te122  1  0.76383426  0.58300269  0.91327020  1
  Te  Te123  1  0.76433568  0.91476215  0.25350509  1
  Te  Te124  1  0.74910865  0.92871909  0.59295737  1
  Te  Te125  1  0.76011728  0.91524415  0.91088808  1
  Te  Te126  1  0.22076297  0.22751606  0.08060948  1
  Te  Te127  1  0.24494632  0.23378074  0.41090639  1
  Te  Te128  1  0.21363635  0.26259097  0.72084957  1
  Te  Te129  1  0.24804028  0.60429022  0.08951580  1
  Te  Te130  1  0.28400856  0.57262614  0.42768569  1
  Te  Te131  1  0.24186208  0.57469855  0.76037524  1
  Te  Te132  1  0.25440976  0.91517706  0.07062141  1
  Te  Te133  1  0.26232286  0.90510158  0.41784595  1
  Te  Te134  1  0.24332679  0.92923431  0.75628177  1
  Te  Te135  1  0.58552083  0.26909984  0.08471360  1
  Te  Te136  1  0.62149280  0.23428823  0.42786907  1
  Te  Te137  1  0.60988474  0.26013757  0.71642217  1
  Te  Te138  1  0.58466195  0.57168493  0.07215384  1
  Te  Te139  1  0.58594971  0.58960751  0.41101386  1
  Te  Te140  1  0.56766406  0.58503051  0.73335741  1
  Te  Te141  1  0.58937141  0.91771559  0.06964756  1
  Te  Te142  1  0.56456817  0.92260204  0.39616144  1
  Te  Te143  1  0.60135567  0.92026879  0.75211021  1
  Te  Te144  1  0.88791691  0.27107425  0.11481403  1
  Te  Te145  1  0.88451818  0.24518793  0.43306410  1
  Te  Te146  1  0.87077319  0.27546039  0.74130966  1
  Te  Te147  1  0.92532892  0.59317175  0.08858498  1
  Te  Te148  1  0.93004839  0.59248950  0.40715374  1
  Te  Te149  1  0.91436173  0.57965965  0.73956467  1
  Te  Te150  1  0.87969237  0.91757280  0.05709763  1
  Te  Te151  1  0.90168874  0.92204182  0.42872153  1
  Te  Te152  1  0.92830860  0.94359073  0.73709471  1
  Te  Te153  1  0.25985881  0.06642297  0.24012843  1
  Te  Te154  1  0.26042522  0.08367656  0.57369992  1
  Te  Te155  1  0.24661030  0.09967694  0.89950498  1
  Te  Te156  1  0.26359706  0.39824838  0.25181898  1
  Te  Te157  1  0.25262613  0.42627751  0.57002263  1
  Te  Te158  1  0.25619696  0.40026078  0.91379235  1
  Te  Te159  1  0.22624123  0.75247525  0.25848664  1
  Te  Te160  1  0.23806418  0.75653585  0.60699638  1
  Te  Te161  1  0.26031266  0.75500153  0.91783588  1
  Te  Te162  1  0.59892347  0.09934585  0.23088578  1
  Te  Te163  1  0.57744207  0.11444621  0.54238510  1
  Te  Te164  1  0.58841657  0.08191978  0.91414128  1
  Te  Te165  1  0.58856903  0.41112995  0.27706078  1
  Te  Te166  1  0.60584872  0.39525482  0.60989843  1
  Te  Te167  1  0.59643750  0.41243449  0.90330558  1
  Te  Te168  1  0.57411597  0.76501220  0.25508544  1
  Te  Te169  1  0.61253383  0.74868279  0.57808203  1
  Te  Te170  1  0.58563302  0.74771854  0.87661189  1
  Te  Te171  1  0.90632167  0.09128437  0.27780240  1
  Te  Te172  1  0.92896585  0.08957365  0.60203133  1
  Te  Te173  1  0.89697745  0.11561994  0.93239643  1
  Te  Te174  1  0.91709754  0.43994221  0.23989036  1
  Te  Te175  1  0.93588653  0.37912613  0.61178838  1
  Te  Te176  1  0.90380965  0.40796596  0.91682525  1
  Te  Te177  1  0.91709264  0.76512009  0.26042747  1
  Te  Te178  1  0.88639441  0.75911407  0.61991061  1
  Te  Te179  1  0.89315151  0.74777541  0.87610988  1
