# generated using pymatgen
data_In2Te3
_symmetry_space_group_name_H-M   'P 1'
_cell_length_a   18.86823890
_cell_length_b   18.87400130
_cell_length_c   18.85656745
_cell_angle_alpha   89.90979944
_cell_angle_beta   89.95817880
_cell_angle_gamma   89.96494060
_symmetry_Int_Tables_number   1
_chemical_formula_structural   In2Te3
_chemical_formula_sum   'In72 Te108'
_cell_volume   6715.17370465
_cell_formula_units_Z   36
loop_
 _symmetry_equiv_pos_site_id
 _symmetry_equiv_pos_as_xyz
  1  'x, y, z'
loop_
 _atom_site_type_symbol
 _atom_site_label
 _atom_site_symmetry_multiplicity
 _atom_site_fract_x
 _atom_site_fract_y
 _atom_site_fract_z
 _atom_site_occupancy
  In  In0  1  0.34923773  0.49523794  0.48513639  1
  In  In1  1  0.03086861  0.32447706  0.32440496  1
  In  In2  1  0.18978571  0.66242620  0.51066405  1
  In  In3  1  0.64482471  0.82349854  0.81274159  1
  In  In4  1  0.01177621  0.49579141  0.84597677  1
  In  In5  1  -0.00809686  0.15378364  0.81528133  1
  In  In6  1  0.20322875  0.84910617  0.67444230  1
  In  In7  1  0.65173384  0.84526900  0.47938416  1
  In  In8  1  0.02797660  0.00113247  0.01689453  1
  In  In9  1  0.34008791  0.85156787  0.19014050  1
  In  In10  1  0.16956640  0.30227973  0.47730012  1
  In  In11  1  0.15128308  0.48878182  0.67485757  1
  In  In12  1  0.16599220  0.33984500  0.83995827  1
  In  In13  1  -0.01108577  0.66929849  0.68070176  1
  In  In14  1  0.01110809  0.32128048  0.02372448  1
  In  In15  1  0.32285931  0.67355722  0.66806818  1
  In  In16  1  0.45220208  0.15763712  0.03294542  1
  In  In17  1  0.83698782  0.33718843  0.82806565  1
  In  In18  1  0.51310093  0.16075356  0.63958065  1
  In  In19  1  0.47997887  0.71592239  0.47311669  1
  In  In20  1  0.65009812  0.15401855  0.85330270  1
  In  In21  1  0.51133572  0.48591237  0.00461464  1
  In  In22  1  0.33289030  0.48615491  0.85778634  1
  In  In23  1  0.49827957  0.66618691  0.15923982  1
  In  In24  1  0.64469735  0.01428048  0.01538627  1
  In  In25  1  0.85159106  0.63805057  0.18134972  1
  In  In26  1  0.51006468  0.66799712  0.84459508  1
  In  In27  1  0.01058153  0.47943965  0.16524248  1
  In  In28  1  0.65213994  0.82752890  0.14201952  1
  In  In29  1  0.31502055  0.14994163  0.84907307  1
  In  In30  1  0.35630274  0.33254154  0.64981296  1
  In  In31  1  0.83208818  0.84839613  0.36312929  1
  In  In32  1  0.03171641  0.83868707  0.17140843  1
  In  In33  1  0.14044905  0.18171907  0.66190011  1
  In  In34  1  0.18041724  0.87422978  0.32674068  1
  In  In35  1  0.49699730  0.30305018  0.86086497  1
  In  In36  1  0.68382885  0.66232226  0.65535894  1
  In  In37  1  0.79974190  0.83053871  0.64935379  1
  In  In38  1  0.51092428  0.48360129  0.32098785  1
  In  In39  1  0.30852144  0.15682347  0.17928064  1
  In  In40  1  0.48137326  0.86118638  0.66056632  1
  In  In41  1  0.83252712  0.14793984  0.62334883  1
  In  In42  1  0.66305919  0.50567511  0.50959306  1
  In  In43  1  0.31339426  0.48913591  0.19469530  1
  In  In44  1  0.52114539  0.50634613  0.66535249  1
  In  In45  1  0.00851288  0.03243858  0.66043201  1
  In  In46  1  0.84169170  0.15194911  0.02113214  1
  In  In47  1  0.18414860  0.17312889  0.03318018  1
  In  In48  1  0.19013637  0.83817973  0.01906529  1
  In  In49  1  0.51456582  0.29123381  0.43901553  1
  In  In50  1  0.68449764  0.34018353  0.65113854  1
  In  In51  1  -0.01252394  0.83260788  0.84122914  1
  In  In52  1  0.81557044  0.61896495  0.86859811  1
  In  In53  1  0.16210485  0.67618084  0.86800894  1
  In  In54  1  0.68178207  0.35199747  0.02615115  1
  In  In55  1  0.17556603  0.03031231  0.48218295  1
  In  In56  1  0.00064351  0.84465379  0.50391834  1
  In  In57  1  0.80886132  0.18503438  0.31331533  1
  In  In58  1  0.84365248  0.48190030  0.34034992  1
  In  In59  1  0.64754149  0.02039318  0.31419721  1
  In  In60  1  0.84076600  -0.00319720  0.17994340  1
  In  In61  1  0.66602192  0.66935597  0.32321866  1
  In  In62  1  0.65030962  -0.00750088  0.64223172  1
  In  In63  1  0.82950335  0.32891221  0.49532009  1
  In  In64  1  -0.00387633  0.46984440  0.47847424  1
  In  In65  1  0.50399597  0.31641530  0.16561445  1
  In  In66  1  0.81932484  -0.01964923  0.81469724  1
  In  In67  1  0.83115098  0.81130766  -0.01413957  1
  In  In68  1  0.16949393  0.66456360  0.14778576  1
  In  In69  1  0.33544438  0.01193446  0.66356273  1
  In  In70  1  0.47939646  0.86043618  -0.01394886  1
  In  In71  1  0.01181443  0.67707568  0.32797289  1
  Te  Te72  1  0.06643504  0.11297983  0.10298732  1
  Te  Te73  1  0.10371807  0.12732999  0.39289929  1
  Te  Te74  1  0.10995157  0.06973117  0.76591473  1
  Te  Te75  1  0.11265503  0.38244387  0.11474467  1
  Te  Te76  1  0.12040234  0.42977141  0.39616981  1
  Te  Te77  1  0.05849378  0.39115958  0.74411870  1
  Te  Te78  1  0.07239109  0.74494692  0.06258223  1
  Te  Te79  1  0.09980209  0.76182838  0.42090836  1
  Te  Te80  1  0.10129076  0.75185661  0.74243229  1
  Te  Te81  1  0.37568425  0.04779389  0.10044883  1
  Te  Te82  1  0.39484588  0.14064601  0.38959202  1
  Te  Te83  1  0.42256486  0.10333230  0.74994596  1
  Te  Te84  1  0.41390698  0.41662403  0.09709551  1
  Te  Te85  1  0.40413234  0.39200309  0.38493551  1
  Te  Te86  1  0.42778663  0.41992174  0.75545467  1
  Te  Te87  1  0.40768719  0.76517687  0.08381847  1
  Te  Te88  1  0.40433610  0.78645968  0.37013648  1
  Te  Te89  1  0.42221977  0.75187164  0.75254254  1
  Te  Te90  1  0.73522013  0.08854212  0.11057480  1
  Te  Te91  1  0.75762493  0.07253079  0.39525482  1
  Te  Te92  1  0.73783920  0.08718568  0.74200088  1
  Te  Te93  1  0.78730368  0.44618075  0.06601350  1
  Te  Te94  1  0.73047399  0.40987711  0.41240748  1
  Te  Te95  1  0.74441279  0.42503143  0.75420316  1
  Te  Te96  1  0.76009273  0.73173758  0.09447473  1
  Te  Te97  1  0.75024661  0.73794686  0.43047504  1
  Te  Te98  1  0.76927944  0.74579251  0.77234805  1
  Te  Te99  1  0.11063972  0.21493018  0.25847074  1
  Te  Te100  1  0.06157435  0.26546335  0.57119740  1
  Te  Te101  1  0.08063156  0.23328327  0.91148573  1
  Te  Te102  1  0.09340266  0.57875423  0.24973511  1
  Te  Te103  1  0.07632976  0.58337183  0.57976169  1
  Te  Te104  1  0.10943088  0.55827159  0.93888825  1
  Te  Te105  1  0.06422111  0.94561499  0.26589707  1
  Te  Te106  1  0.10543210  0.92677110  0.58496988  1
  Te  Te107  1  0.09369548  0.90916624  0.91446145  1
  Te  Te108  1  0.43127452  0.21701113  0.25743899  1
  Te  Te109  1  0.41608538  0.23716907  0.54838133  1
  Te  Te110  1  0.37747716  0.25788657  0.93865955  1
  Te  Te111  1  0.41661359  0.58602462  0.26084082  1
  Te  Te112  1  0.42448384  0.59349530  0.58456577  1
  Te  Te113  1  0.41739702  0.58719279  0.93349844  1
  Te  Te114  1  0.40271363  0.92739493  0.30265303  1
  Te  Te115  1  0.42488033  0.95305880  0.56043189  1
  Te  Te116  1  0.36778346  0.91987300  0.91167953  1
  Te  Te117  1  0.71141912  0.27305694  0.24297735  1
  Te  Te118  1  0.72536528  0.23046776  0.55449251  1
  Te  Te119  1  0.75683560  0.23829618  0.92124745  1
  Te  Te120  1  0.74251152  0.55993260  0.25131522  1
  Te  Te121  1  0.77222152  0.56887805  0.58510116  1
  Te  Te122  1  0.73500944  0.55950476  0.97911082  1
  Te  Te123  1  0.74175752  0.89775474  0.24800881  1
  Te  Te124  1  0.75952026  0.93575097  0.55119248  1
  Te  Te125  1  0.73193029  0.92132259  0.92714956  1
  Te  Te126  1  0.24808648  0.27941253  0.11661703  1
  Te  Te127  1  0.26611662  0.21612473  0.39367056  1
  Te  Te128  1  0.25840867  0.26069037  0.74458605  1
  Te  Te129  1  0.26995699  0.57870176  0.08538254  1
  Te  Te130  1  0.26949577  0.59273729  0.40952839  1
  Te  Te131  1  0.24630266  0.57606218  0.75725041  1
  Te  Te132  1  0.24411276  0.93924540  0.11338175  1
  Te  Te133  1  0.27728332  0.93885587  0.42065118  1
  Te  Te134  1  0.28824330  0.92023271  0.77543024  1
  Te  Te135  1  0.58089538  0.24178552  0.05892012  1
  Te  Te136  1  0.61501783  0.21679450  0.35190368  1
  Te  Te137  1  0.58665444  0.25268500  0.74441276  1
  Te  Te138  1  0.59516816  0.57740540  0.08770480  1
  Te  Te139  1  0.56955596  0.59319198  0.42387058  1
  Te  Te140  1  0.60781739  0.58353775  0.76389092  1
  Te  Te141  1  0.55129550  0.93446671  0.10464214  1
  Te  Te142  1  0.56172015  0.92639745  0.39490349  1
  Te  Te143  1  0.56702054  0.94058386  0.76092004  1
  Te  Te144  1  0.90811867  0.25190090  0.10568804  1
  Te  Te145  1  0.92019897  0.25267816  0.40320431  1
  Te  Te146  1  0.89962183  0.23760828  0.72836826  1
  Te  Te147  1  0.93171512  0.57014126  0.07878562  1
  Te  Te148  1  0.92254136  0.58920316  0.41520006  1
  Te  Te149  1  0.90930813  0.56522036  0.75628116  1
  Te  Te150  1  0.91354933  0.90969868  0.07033046  1
  Te  Te151  1  0.94849366  0.93416371  0.39696929  1
  Te  Te152  1  0.92433469  0.91142668  0.72518970  1
  Te  Te153  1  0.21332820  0.09620257  0.28020013  1
  Te  Te154  1  0.25158806  0.11244881  0.58482572  1
  Te  Te155  1  0.24537720  0.06676213  0.94858246  1
  Te  Te156  1  0.25625580  0.40966875  0.30482464  1
  Te  Te157  1  0.24793360  0.41647505  0.57918100  1
  Te  Te158  1  0.22764670  0.42623363  0.94272001  1
  Te  Te159  1  0.23802845  0.75486900  0.25110484  1
  Te  Te160  1  0.27871877  0.77591608  0.56452115  1
  Te  Te161  1  0.27010207  0.76200535  0.91864998  1
  Te  Te162  1  0.55845895  0.11776197  0.24561574  1
  Te  Te163  1  0.57322079  0.06856097  0.54160624  1
  Te  Te164  1  0.54038148  0.08081080  0.92667200  1
  Te  Te165  1  0.60486174  0.40086133  0.23791080  1
  Te  Te166  1  0.56260639  0.39841145  0.56502314  1
  Te  Te167  1  0.59817603  0.40478242  0.90785514  1
  Te  Te168  1  0.56939787  0.76441632  0.25506430  1
  Te  Te169  1  0.58379692  0.75954174  0.59488963  1
  Te  Te170  1  0.59008895  0.75859067  0.93727479  1
  Te  Te171  1  0.91467529  0.10547072  0.24421414  1
  Te  Te172  1  0.93830536  0.08503196  0.54380357  1
  Te  Te173  1  0.91142537  0.06139275  0.90817376  1
  Te  Te174  1  0.91678445  0.38950927  0.24545803  1
  Te  Te175  1  0.90365980  0.42306462  0.58178637  1
  Te  Te176  1  0.92077015  0.40868739  0.93269080  1
  Te  Te177  1  0.91442620  0.76682454  0.25096034  1
  Te  Te178  1  0.90794061  0.74832185  0.57815406  1
  Te  Te179  1  0.93021157  0.71683087  0.91809220  1
