# generated using pymatgen
data_In2Te3
_symmetry_space_group_name_H-M   'P 1'
_cell_length_a   18.92652213
_cell_length_b   18.95571897
_cell_length_c   18.96265769
_cell_angle_alpha   89.93686471
_cell_angle_beta   90.13516679
_cell_angle_gamma   90.03770171
_symmetry_Int_Tables_number   1
_chemical_formula_structural   In2Te3
_chemical_formula_sum   'In72 Te108'
_cell_volume   6803.12918729
_cell_formula_units_Z   36
loop_
 _symmetry_equiv_pos_site_id
 _symmetry_equiv_pos_as_xyz
  1  'x, y, z'
loop_
 _atom_site_type_symbol
 _atom_site_label
 _atom_site_symmetry_multiplicity
 _atom_site_fract_x
 _atom_site_fract_y
 _atom_site_fract_z
 _atom_site_occupancy
  In  In0  1  0.53530617  0.63416240  0.18316771  1
  In  In1  1  0.14954318  0.81036849  0.66875594  1
  In  In2  1  0.68696347  0.18205962  0.51677309  1
  In  In3  1  0.15884588  0.15711627  0.67390760  1
  In  In4  1  0.53547947  0.48055683  0.67859989  1
  In  In5  1  0.83582862  0.17131910  0.33054314  1
  In  In6  1  0.34064159  0.52611995  0.83449633  1
  In  In7  1  0.47487603  0.19079176  0.31779909  1
  In  In8  1  0.13407349  0.81753955  0.31094264  1
  In  In9  1  -0.05106208  0.64174778  0.35053723  1
  In  In10  1  0.32546924  0.01536687  -0.01472399  1
  In  In11  1  0.66405661  0.81606730  0.14829126  1
  In  In12  1  -0.01038898  0.67378995  0.67644813  1
  In  In13  1  0.15687890  0.00409618  0.82781014  1
  In  In14  1  0.69637145  0.00195462  0.70906416  1
  In  In15  1  0.15885758  0.31435421  0.16563369  1
  In  In16  1  0.32301873  0.47971231  0.17679668  1
  In  In17  1  0.65796901  0.79904875  0.50140304  1
  In  In18  1  0.64252960  0.01665534  0.32796492  1
  In  In19  1  0.52481337  0.49076266  0.33992167  1
  In  In20  1  -0.00110524  0.51637656  0.82301232  1
  In  In21  1  -0.07453430  0.50913537  0.20122869  1
  In  In22  1  0.69339068  0.66501555  -0.00071802  1
  In  In23  1  0.68434364  0.17752572  0.83039535  1
  In  In24  1  0.32112544  0.32382047  0.66081158  1
  In  In25  1  0.16828848  0.67167209  0.50761840  1
  In  In26  1  0.35945516  0.83021869  0.48624929  1
  In  In27  1  0.15382353  0.49853215  -0.01286016  1
  In  In28  1  0.82696231  0.01391565  0.14631402  1
  In  In29  1  0.33258669  0.68755993  -0.00375247  1
  In  In30  1  0.49633029  0.84459352  0.00244658  1
  In  In31  1  0.30957410  -0.00564022  0.30185692  1
  In  In32  1  0.12194313  0.16929633  0.27840585  1
  In  In33  1  0.35751633  0.18002117  0.48406125  1
  In  In34  1  0.02386989  0.01423191  0.65318044  1
  In  In35  1  0.18315831  0.01981276  0.46681739  1
  In  In36  1  0.69256705  0.35660482  0.30545378  1
  In  In37  1  0.83110458  0.83213535  0.32083721  1
  In  In38  1  0.48971461  -0.01056571  0.83514822  1
  In  In39  1  -0.00725923  0.85587767  0.16251127  1
  In  In40  1  0.33379038  0.68227355  0.34738437  1
  In  In41  1  0.50220949  0.34154726  0.50747696  1
  In  In42  1  0.33645635  0.84352802  0.15061609  1
  In  In43  1  0.71793802  0.00357121  -0.03539888  1
  In  In44  1  0.53214286  0.36187182  0.86996522  1
  In  In45  1  0.69048210  0.32382190  0.67265391  1
  In  In46  1  0.86343818  0.17170515  0.00994069  1
  In  In47  1  -0.02213871  0.83511228  0.51704661  1
  In  In48  1  -0.02927444  0.69725726  -0.03032984  1
  In  In49  1  0.30886386  0.31823127  0.31756710  1
  In  In50  1  0.70712691  0.62211272  0.32960719  1
  In  In51  1  0.34607640  0.52772071  0.49115261  1
  In  In52  1  0.83699220  0.82718003  0.67355952  1
  In  In53  1  0.82713185  0.48822005  0.02072052  1
  In  In54  1  0.51936268  0.67332321  0.82314948  1
  In  In55  1  0.35473220  0.64140826  0.67721546  1
  In  In56  1  0.33915191  0.34373189  0.01448463  1
  In  In57  1  0.16386721  0.84095386  -0.03409728  1
  In  In58  1  0.13273818  0.34974260  0.47483554  1
  In  In59  1  0.47010954  0.00617700  0.16815814  1
  In  In60  1  0.84558417  -0.02862816  0.49790782  1
  In  In61  1  0.13256291  0.64876117  0.16493047  1
  In  In62  1  0.82305108  0.49227864  0.64399140  1
  In  In63  1  0.53220791  0.19530467  0.00136805  1
  In  In64  1  -0.02046921  0.31800856  0.03676802  1
  In  In65  1  0.84910281  0.32848661  0.83437352  1
  In  In66  1  0.12912579  0.31876979  0.85457030  1
  In  In67  1  0.00076051  0.18158061  0.48951768  1
  In  In68  1  0.15892691  0.47727553  0.66938242  1
  In  In69  1  0.53240214  0.02672832  0.50523163  1
  In  In70  1  0.34705763  0.00103511  0.68316791  1
  In  In71  1  0.52500232  0.80999726  0.64767256  1
  Te  Te72  1  0.12157786  0.09138441  0.15314499  1
  Te  Te73  1  0.06757647  0.08185002  0.39667957  1
  Te  Te74  1  0.05040599  0.11125303  0.76926418  1
  Te  Te75  1  0.07771315  0.42448676  0.09075666  1
  Te  Te76  1  0.02672749  0.44462620  0.43626392  1
  Te  Te77  1  0.05540027  0.39720928  0.74669072  1
  Te  Te78  1  0.08065037  0.75814685  0.07287787  1
  Te  Te79  1  0.06004140  0.73396841  0.41914292  1
  Te  Te80  1  0.04234120  0.78173047  0.76481257  1
  Te  Te81  1  0.42178528  0.10290232  0.06259283  1
  Te  Te82  1  0.41276790  0.06667323  0.40085741  1
  Te  Te83  1  0.42058831  0.09721988  0.76347254  1
  Te  Te84  1  0.41757244  0.45389657  0.06903061  1
  Te  Te85  1  0.40390007  0.40534928  0.41056840  1
  Te  Te86  1  0.40548029  0.42331241  0.74019450  1
  Te  Te87  1  0.44132601  0.73848097  0.10234363  1
  Te  Te88  1  0.44577495  0.72595892  0.43139359  1
  Te  Te89  1  0.41992640  0.75930613  0.74629550  1
  Te  Te90  1  0.73376578  0.10643079  0.07294330  1
  Te  Te91  1  0.74846677  0.06809268  0.42660976  1
  Te  Te92  1  0.79712788  0.09478237  0.77357638  1
  Te  Te93  1  0.75010010  0.36819764  0.06408148  1
  Te  Te94  1  0.77365122  0.43105850  0.40580668  1
  Te  Te95  1  0.75312093  0.42261080  0.76726201  1
  Te  Te96  1  0.77737232  0.75311166  0.08428120  1
  Te  Te97  1  0.76788057  0.73599625  0.41882306  1
  Te  Te98  1  0.75200635  0.76978423  0.78003228  1
  Te  Te99  1  0.04710763  0.29478010  0.26047771  1
  Te  Te100  1  0.08400467  0.26041142  0.58937078  1
  Te  Te101  1  0.07695617  0.23168133  0.96112821  1
  Te  Te102  1  0.05453204  0.56891263  0.26473855  1
  Te  Te103  1  0.07917912  0.58388511  0.59224107  1
  Te  Te104  1  0.08371405  0.60783473  0.90869520  1
  Te  Te105  1  0.09808849  0.93683503  0.23032080  1
  Te  Te106  1  0.10563579  0.91657520  0.55993623  1
  Te  Te107  1  0.06463741  0.94500097  0.92880814  1
  Te  Te108  1  0.39905138  0.26446087  0.21605669  1
  Te  Te109  1  0.43352425  0.24087682  0.59965424  1
  Te  Te110  1  0.42552595  0.26506929  0.91642070  1
  Te  Te111  1  0.40905910  0.57857115  0.26227468  1
  Te  Te112  1  0.45316594  0.57505942  0.58482563  1
  Te  Te113  1  0.43481733  0.59674652  0.92928232  1
  Te  Te114  1  0.42311433  0.89704410  0.26347081  1
  Te  Te115  1  0.43306610  0.92825051  0.57811854  1
  Te  Te116  1  0.39180891  0.90048916  0.90958490  1
  Te  Te117  1  0.71505490  0.21741788  0.26075526  1
  Te  Te118  1  0.79120530  0.25898729  0.58690476  1
  Te  Te119  1  0.75554458  0.25991363  0.93568930  1
  Te  Te120  1  0.77874780  0.55541738  0.21907615  1
  Te  Te121  1  0.70974803  0.56747203  0.58806308  1
  Te  Te122  1  0.77478822  0.57508290  0.91513184  1
  Te  Te123  1  0.74038845  0.92935832  0.24724168  1
  Te  Te124  1  0.73523226  0.91099845  0.58475348  1
  Te  Te125  1  0.76460881  0.88781581  0.88692054  1
  Te  Te126  1  0.22696676  0.25394623  0.04800665  1
  Te  Te127  1  0.23379308  0.24161362  0.42477549  1
  Te  Te128  1  0.23729803  0.25220145  0.76313194  1
  Te  Te129  1  0.24582718  0.58668999  0.08176588  1
  Te  Te130  1  0.23281064  0.58248687  0.40428074  1
  Te  Te131  1  0.23052157  0.58842544  0.74608070  1
  Te  Te132  1  0.23941269  0.92531418  0.07299006  1
  Te  Te133  1  0.24447559  0.88865295  0.40311343  1
  Te  Te134  1  0.24022546  0.91099136  0.74113311  1
  Te  Te135  1  0.59495843  0.30269377  0.08226280  1
  Te  Te136  1  0.57540004  0.23622053  0.42662024  1
  Te  Te137  1  0.58048057  0.26632952  0.76400922  1
  Te  Te138  1  0.62131040  0.56652091  0.08726767  1
  Te  Te139  1  0.60787507  0.57223444  0.42745436  1
  Te  Te140  1  0.59751452  0.55382866  0.78935911  1
  Te  Te141  1  0.58174805  0.93141453  0.09164049  1
  Te  Te142  1  0.58539822  0.91140651  0.42172452  1
  Te  Te143  1  0.58453158  0.90698853  0.75050566  1
  Te  Te144  1  0.92297087  0.22443667  0.13749769  1
  Te  Te145  1  0.89538868  0.26417536  0.42826978  1
  Te  Te146  1  0.90892854  0.20505118  0.78408159  1
  Te  Te147  1  0.93504447  0.59004327  0.06786643  1
  Te  Te148  1  0.88634395  0.53517407  0.43687966  1
  Te  Te149  1  0.88939111  0.58885476  0.75020255  1
  Te  Te150  1  0.90165917  0.91642589  0.05939153  1
  Te  Te151  1  0.93753519  0.91451816  0.39219813  1
  Te  Te152  1  0.94211880  0.91657835  0.73111321  1
  Te  Te153  1  0.25701750  0.11022460  0.22533212  1
  Te  Te154  1  0.26159091  0.08767680  0.57953550  1
  Te  Te155  1  0.24922803  0.09791612  0.89221796  1
  Te  Te156  1  0.21573970  0.42409880  0.26500074  1
  Te  Te157  1  0.25446233  0.42116169  0.56248842  1
  Te  Te158  1  0.24582465  0.42083446  0.89544520  1
  Te  Te159  1  0.24350482  0.74423813  0.23104110  1
  Te  Te160  1  0.27370977  0.74807101  0.58624337  1
  Te  Te161  1  0.24594641  0.74376184  0.89335260  1
  Te  Te162  1  0.56870385  0.10624508  0.23060836  1
  Te  Te163  1  0.60976322  0.09309268  0.61606195  1
  Te  Te164  1  0.59073349  0.07775217  0.91187843  1
  Te  Te165  1  0.57159814  0.40427372  0.23271201  1
  Te  Te166  1  0.62060526  0.41308159  0.56752353  1
  Te  Te167  1  0.61901414  0.41498446  0.97721637  1
  Te  Te168  1  0.61367302  0.73367377  0.26428354  1
  Te  Te169  1  0.62686240  0.70528582  0.61453155  1
  Te  Te170  1  0.59242953  0.76051520  0.92447118  1
  Te  Te171  1  0.91698920  0.08533904  0.23933206  1
  Te  Te172  1  0.91494655  0.08263719  0.57350351  1
  Te  Te173  1  0.92779001  0.04462362  0.97157621  1
  Te  Te174  1  0.83604120  0.40325713  0.25962178  1
  Te  Te175  1  0.93920223  0.44424935  0.56531560  1
  Te  Te176  1  0.93689417  0.41840472  0.92393102  1
  Te  Te177  1  0.92058077  0.74376949  0.23810374  1
  Te  Te178  1  0.89024562  0.72525267  0.57254761  1
  Te  Te179  1  0.86684742  0.76677567  0.88835532  1
