# generated using pymatgen
data_In2Te3
_symmetry_space_group_name_H-M   'P 1'
_cell_length_a   18.83056041
_cell_length_b   18.82254066
_cell_length_c   18.82567333
_cell_angle_alpha   90.00091183
_cell_angle_beta   89.98779706
_cell_angle_gamma   89.90321351
_symmetry_Int_Tables_number   1
_chemical_formula_structural   In2Te3
_chemical_formula_sum   'In72 Te108'
_cell_volume   6672.54295218
_cell_formula_units_Z   36
loop_
 _symmetry_equiv_pos_site_id
 _symmetry_equiv_pos_as_xyz
  1  'x, y, z'
loop_
 _atom_site_type_symbol
 _atom_site_label
 _atom_site_symmetry_multiplicity
 _atom_site_fract_x
 _atom_site_fract_y
 _atom_site_fract_z
 _atom_site_occupancy
  In  In0  1  0.69535129  0.86556210  0.19461452  1
  In  In1  1  0.31875243  0.18048655  0.50135590  1
  In  In2  1  0.65422279  0.17577540  0.84897622  1
  In  In3  1  -0.01729072  0.35366222  0.66412170  1
  In  In4  1  0.33749030  0.17756037  0.17052237  1
  In  In5  1  0.85187791  0.64714615  0.83198687  1
  In  In6  1  0.66495955  0.00682546  0.66098326  1
  In  In7  1  -0.00268524  0.18757537  0.83371385  1
  In  In8  1  0.67636139  0.50341585  0.48781155  1
  In  In9  1  0.81875733  -0.00242792  0.84526096  1
  In  In10  1  0.65487472  0.84552774  0.83141762  1
  In  In11  1  0.18180433  0.34478629  0.49410444  1
  In  In12  1  0.49060270  0.67241553  0.52034015  1
  In  In13  1  0.18798802  0.34514790  0.85879278  1
  In  In14  1  0.46868137  0.48743993  0.33168057  1
  In  In15  1  0.85501024  0.51996994  0.00747956  1
  In  In16  1  0.33791506  -0.01497288  0.68627372  1
  In  In17  1  0.84419310  -0.01113428  0.46838688  1
  In  In18  1  0.48386641  0.49669990  0.65418902  1
  In  In19  1  0.50614824  -0.00752732  0.50484681  1
  In  In20  1  0.66799425  0.67192551  0.63550745  1
  In  In21  1  0.15332677  0.65533372  0.19874173  1
  In  In22  1  0.83818864  0.32739311  0.16287644  1
  In  In23  1  0.00818267  0.81057021  0.83769864  1
  In  In24  1  0.32991073  0.00270856  0.30923749  1
  In  In25  1  0.49322308  0.70055229  0.13770349  1
  In  In26  1  0.02137627  0.33953178  0.02144257  1
  In  In27  1  0.83204445  0.15332659  0.32382031  1
  In  In28  1  0.81367213  0.32454625  0.83607069  1
  In  In29  1  0.50321119  0.81193248  0.66095490  1
  In  In30  1  0.67740673  0.68817381  0.02328847  1
  In  In31  1  0.51312777  0.31334744  0.45765221  1
  In  In32  1  0.19164022  0.86572278  0.00944483  1
  In  In33  1  0.85268457  0.48689643  0.34916848  1
  In  In34  1  0.15574177  0.82135201  0.64121470  1
  In  In35  1  0.48766750  0.01600554  0.16542610  1
  In  In36  1  0.00770275  -0.01069499  0.33944669  1
  In  In37  1  0.46749126  0.86230102  -0.02138861  1
  In  In38  1  0.16768333  -0.00947677  0.49406919  1
  In  In39  1  -0.01020861  0.82749555  0.18217438  1
  In  In40  1  0.68661903  0.33175303  0.66784930  1
  In  In41  1  0.65073279  0.48887230  0.82068704  1
  In  In42  1  0.32235761  0.50303993  0.16763147  1
  In  In43  1  0.32229989  0.33983394  0.67673291  1
  In  In44  1  0.66056521  0.00494378  0.02117065  1
  In  In45  1  0.47596902  0.14267587  0.67865186  1
  In  In46  1  0.68839743  0.67166076  0.34970633  1
  In  In47  1  0.85167636  0.67250483  0.48361023  1
  In  In48  1  0.31166543  0.65328011  0.34572151  1
  In  In49  1  0.00207190  0.15027288  0.17419480  1
  In  In50  1  0.00125941  0.00045512  0.02065462  1
  In  In51  1  0.15527419  0.81716638  0.33242646  1
  In  In52  1  0.21430227  0.01145911  0.86726273  1
  In  In53  1  0.49370922  0.15782773  0.02080828  1
  In  In54  1  0.50555545  0.84376028  0.33308034  1
  In  In55  1  0.17962343  0.34973657  0.17187018  1
  In  In56  1  0.47489142  0.32251933  0.85108812  1
  In  In57  1  0.01177820  0.67276263  -0.00449341  1
  In  In58  1  0.31698539  0.66219726  0.66133968  1
  In  In59  1  0.84308026  0.34855646  0.51474482  1
  In  In60  1  0.66676365  0.14360664  0.17627650  1
  In  In61  1  0.48195314  0.49685154  -0.01520911  1
  In  In62  1  0.18341657  0.67492307  0.84149924  1
  In  In63  1  -0.00661495  0.13855601  0.49142279  1
  In  In64  1  0.15866741  0.19206991  0.67376351  1
  In  In65  1  0.47327648  0.64658702  0.85648174  1
  In  In66  1  0.83809252  0.81851517  0.65303757  1
  In  In67  1  0.67322588  0.49415722  0.17271355  1
  In  In68  1  0.01385777  0.50224541  0.82855108  1
  In  In69  1  0.01488220  0.35627072  0.34153190  1
  In  In70  1  0.01135155  -0.00467054  0.65960515  1
  In  In71  1  0.49768652  0.32063062  0.17903160  1
  Te  Te72  1  0.10380953  0.08099646  0.09067151  1
  Te  Te73  1  0.10509240  0.09250068  0.39913723  1
  Te  Te74  1  0.08661301  0.08529038  0.75824196  1
  Te  Te75  1  0.10193509  0.44355639  0.08488520  1
  Te  Te76  1  0.08270946  0.44521191  0.43988284  1
  Te  Te77  1  0.09910068  0.40618418  0.74608067  1
  Te  Te78  1  0.09787323  0.76539053  0.08081065  1
  Te  Te79  1  0.08875579  0.71190788  0.41449922  1
  Te  Te80  1  0.08161040  0.72618864  0.73683312  1
  Te  Te81  1  0.38101354  0.04179929  0.04980776  1
  Te  Te82  1  0.39726110  0.07119482  0.42903176  1
  Te  Te83  1  0.40416203  0.07264893  0.79059530  1
  Te  Te84  1  0.41193265  0.40755288  0.08740039  1
  Te  Te85  1  0.39997360  0.40242046  0.42904725  1
  Te  Te86  1  0.40626926  0.43153110  0.76747889  1
  Te  Te87  1  0.39098227  0.75006020  0.04252702  1
  Te  Te88  1  0.41528259  0.74791312  0.41099966  1
  Te  Te89  1  0.40722569  0.74315857  0.75664104  1
  Te  Te90  1  0.76574192  0.08439639  0.08449929  1
  Te  Te91  1  0.74492054  0.08763503  0.42295260  1
  Te  Te92  1  0.74594667  0.09565689  0.75412372  1
  Te  Te93  1  0.75705241  0.41966898  0.06987425  1
  Te  Te94  1  0.74330706  0.39573929  0.40527306  1
  Te  Te95  1  0.76976183  0.43720452  0.74030591  1
  Te  Te96  1  0.77198198  0.75437384  0.11931826  1
  Te  Te97  1  0.77297665  0.77606620  0.41120849  1
  Te  Te98  1  0.74161162  0.74343496  0.75603410  1
  Te  Te99  1  0.08254356  0.25601867  0.24838397  1
  Te  Te100  1  0.06416934  0.25049657  0.56983239  1
  Te  Te101  1  0.09904523  0.24327166  0.93164399  1
  Te  Te102  1  0.03333224  0.59871705  0.26033741  1
  Te  Te103  1  0.15466394  0.64868920  0.54430677  1
  Te  Te104  1  0.10427054  0.57284231  0.92688642  1
  Te  Te105  1  0.09748187  0.92181784  0.23778105  1
  Te  Te106  1  0.05837086  0.90030387  0.55071926  1
  Te  Te107  1  0.08303324  0.92336213  0.90676076  1
  Te  Te108  1  0.42006480  0.23998978  0.27778460  1
  Te  Te109  1  0.42032560  0.25655600  0.58904180  1
  Te  Te110  1  0.39560293  0.23689784  0.94080049  1
  Te  Te111  1  0.42615647  0.60356104  0.23984483  1
  Te  Te112  1  0.38987553  0.56592196  0.55801118  1
  Te  Te113  1  0.36313043  0.56873976  0.92454854  1
  Te  Te114  1  0.40980024  0.89801373  0.22728363  1
  Te  Te115  1  0.40779718  0.90173184  0.58052455  1
  Te  Te116  1  0.40021274  0.93461763  0.86947254  1
  Te  Te117  1  0.74183181  0.25491730  0.25350293  1
  Te  Te118  1  0.75064162  0.24681843  0.56677667  1
  Te  Te119  1  0.75226282  0.23908955  0.93804338  1
  Te  Te120  1  0.76703484  0.57719153  0.25808924  1
  Te  Te121  1  0.77018219  0.57682014  0.57970417  1
  Te  Te122  1  0.73644012  0.58188909  0.91790250  1
  Te  Te123  1  0.78512719  0.94503548  0.28026427  1
  Te  Te124  1  0.75262863  0.91653056  0.57640002  1
  Te  Te125  1  0.74442433  0.90352740  0.93922611  1
  Te  Te126  1  0.25548389  0.25950088  0.07882653  1
  Te  Te127  1  0.24045636  0.24978472  0.39836422  1
  Te  Te128  1  0.26393367  0.23621175  0.77150947  1
  Te  Te129  1  0.23240589  0.59125710  0.09047800  1
  Te  Te130  1  0.19856182  0.58068735  0.40998964  1
  Te  Te131  1  0.23511691  0.57367828  0.74555490  1
  Te  Te132  1  0.28290927  0.93406573  0.10308109  1
  Te  Te133  1  0.25739827  0.90635937  0.40629135  1
  Te  Te134  1  0.22348199  0.90796943  0.74775228  1
  Te  Te135  1  0.59545590  0.24843911  0.08737839  1
  Te  Te136  1  0.56576139  0.20947758  0.36967343  1
  Te  Te137  1  0.57358643  0.25858622  0.74484888  1
  Te  Te138  1  0.57749574  0.57634438  0.08367491  1
  Te  Te139  1  0.57031754  0.58429316  0.41443801  1
  Te  Te140  1  0.57229967  0.59796731  0.73684246  1
  Te  Te141  1  0.57500781  0.90188274  0.09472224  1
  Te  Te142  1  0.59697957  0.93497285  0.40245376  1
  Te  Te143  1  0.56402437  0.92782269  0.74313303  1
  Te  Te144  1  0.92250610  0.23636593  0.07524198  1
  Te  Te145  1  0.92125085  0.24962024  0.40674378  1
  Te  Te146  1  0.89943559  0.24703274  0.73379864  1
  Te  Te147  1  0.93603014  0.59940409  0.10301227  1
  Te  Te148  1  0.94902978  0.59874917  0.39296513  1
  Te  Te149  1  0.93862149  0.58529824  0.73157724  1
  Te  Te150  1  0.91045492  0.90166015  0.07930546  1
  Te  Te151  1  0.91995497  0.88205701  0.39617386  1
  Te  Te152  1  0.91464853  0.91238083  0.75684458  1
  Te  Te153  1  0.23730626  0.08259845  0.22584281  1
  Te  Te154  1  0.23963598  0.07911737  0.59796360  1
  Te  Te155  1  0.26351317  0.10623188  0.96934597  1
  Te  Te156  1  0.25096076  0.43073573  0.27426137  1
  Te  Te157  1  0.23696156  0.43184016  0.59970881  1
  Te  Te158  1  0.28756600  0.43074542  0.92219468  1
  Te  Te159  1  0.26162784  0.75356900  0.24148100  1
  Te  Te160  1  0.26369699  0.75823476  0.55401803  1
  Te  Te161  1  0.26608512  0.77015587  0.92062356  1
  Te  Te162  1  0.56819334  0.08196117  0.27418229  1
  Te  Te163  1  0.58353916  0.10452094  0.57688732  1
  Te  Te164  1  0.57029884  0.07057041  0.91878344  1
  Te  Te165  1  0.58527059  0.41220908  0.26570448  1
  Te  Te166  1  0.58617466  0.41440349  0.57570002  1
  Te  Te167  1  0.58615751  0.39980404  0.92476552  1
  Te  Te168  1  0.59837018  0.74427902  0.24681335  1
  Te  Te169  1  0.60096653  0.77509225  0.54814723  1
  Te  Te170  1  0.57324051  0.74703766  0.91917056  1
  Te  Te171  1  0.90049576  0.04591281  0.23744946  1
  Te  Te172  1  0.90114319  0.07319495  0.59146546  1
  Te  Te173  1  0.91927383  0.08658138  0.91687131  1
  Te  Te174  1  0.93139087  0.42433804  0.23208435  1
  Te  Te175  1  0.94061066  0.45016591  0.55974894  1
  Te  Te176  1  0.92270557  0.41149644  0.91305716  1
  Te  Te177  1  0.88758742  0.72996148  0.22393983  1
  Te  Te178  1  0.93740100  0.73149289  0.58994205  1
  Te  Te179  1  0.89887660  0.75426399  0.92828493  1
