# generated using pymatgen
data_In2Te3
_symmetry_space_group_name_H-M   'P 1'
_cell_length_a   18.75836732
_cell_length_b   18.75230812
_cell_length_c   18.74607234
_cell_angle_alpha   90.05755215
_cell_angle_beta   90.06100733
_cell_angle_gamma   90.03283356
_symmetry_Int_Tables_number   1
_chemical_formula_structural   In2Te3
_chemical_formula_sum   'In72 Te108'
_cell_volume   6594.16056412
_cell_formula_units_Z   36
loop_
 _symmetry_equiv_pos_site_id
 _symmetry_equiv_pos_as_xyz
  1  'x, y, z'
loop_
 _atom_site_type_symbol
 _atom_site_label
 _atom_site_symmetry_multiplicity
 _atom_site_fract_x
 _atom_site_fract_y
 _atom_site_fract_z
 _atom_site_occupancy
  In  In0  1  0.32032390  0.65643491  0.33244335  1
  In  In1  1  -0.01841928  0.01548418  0.32393461  1
  In  In2  1  -0.03023970  0.20427874  0.80767681  1
  In  In3  1  0.84859929  0.65125311  0.49785588  1
  In  In4  1  0.52803688  0.33219088  0.83725063  1
  In  In5  1  -0.00896644  0.17109574  0.50838762  1
  In  In6  1  0.85316374  0.47945569  0.32190871  1
  In  In7  1  0.31182225  0.85641659  0.84463774  1
  In  In8  1  0.50572612  0.16669995  0.34044565  1
  In  In9  1  0.31602446  0.83329216  0.51006321  1
  In  In10  1  0.15927522  0.19349971  0.66290287  1
  In  In11  1  0.16331789  0.81070219  -0.00122095  1
  In  In12  1  0.31676459  0.48840446  0.49515328  1
  In  In13  1  -0.01626800  0.64826891  -0.00645345  1
  In  In14  1  0.34735470  0.00589104  0.68212096  1
  In  In15  1  0.64264735  0.82489954  0.15411941  1
  In  In16  1  0.50391755  0.64659509  0.82686098  1
  In  In17  1  0.51508548  0.48821106  0.64273386  1
  In  In18  1  0.19086863  -0.00543407  0.82023121  1
  In  In19  1  0.64799993  0.00837359  0.33124964  1
  In  In20  1  0.49042172  0.47020545  0.01234171  1
  In  In21  1  0.84420504  0.46584517  0.69135181  1
  In  In22  1  0.16578230  0.33903119  0.83065019  1
  In  In23  1  0.65181371  0.48448485  0.15852340  1
  In  In24  1  0.64640542  0.66695995  0.33066229  1
  In  In25  1  0.66122522  0.67204825  0.67689676  1
  In  In26  1  0.32410572  0.14549579  0.16656252  1
  In  In27  1  0.83356449  0.48222296  0.00984548  1
  In  In28  1  0.85371456  0.19499969  0.01743345  1
  In  In29  1  0.50799956  0.00121338  0.16890443  1
  In  In30  1  0.00572732  0.00943410  0.02137832  1
  In  In31  1  0.02676322  0.33773602  0.34608906  1
  In  In32  1  0.14886484  0.35236815  0.16741218  1
  In  In33  1  0.14990434  0.65470240  0.82542987  1
  In  In34  1  0.33216355  0.18376450  0.48124393  1
  In  In35  1  0.15580731  0.15629007  -0.00120890  1
  In  In36  1  0.84459473  0.65077021  0.14901570  1
  In  In37  1  0.82303411  0.00799650  0.83144483  1
  In  In38  1  0.68250866  0.03608558  0.65873431  1
  In  In39  1  0.50045257  0.32863474  0.14690013  1
  In  In40  1  0.84146756  0.01953056  0.49127109  1
  In  In41  1  0.29342313  0.68047246  0.66411803  1
  In  In42  1  0.02346786  0.63188855  0.64524555  1
  In  In43  1  0.68454322  0.33429846  -0.00342135  1
  In  In44  1  0.67180632  0.48773419  0.49278719  1
  In  In45  1  0.35361744  0.33561722  -0.00250829  1
  In  In46  1  0.83543436  0.35184334  0.49901230  1
  In  In47  1  0.33309763  0.83313321  0.18287720  1
  In  In48  1  0.15789670  0.01177383  0.18193811  1
  In  In49  1  0.50578351  0.84648528  0.67752225  1
  In  In50  1  0.32134359  0.49972040  0.84103019  1
  In  In51  1  0.67732714  0.65159200  -0.01975000  1
  In  In52  1  0.66512157  0.86648875  0.47594995  1
  In  In53  1  0.66721088  0.18826097  0.50554250  1
  In  In54  1  -0.00248680  0.81003151  0.83689236  1
  In  In55  1  0.01784804  0.01418622  0.65020553  1
  In  In56  1  0.04368528  0.66847104  0.34294254  1
  In  In57  1  0.84770500  0.81032951  0.66636453  1
  In  In58  1  -0.00076943  0.48606050  0.83598590  1
  In  In59  1  -0.00729081  0.84851016  0.17207030  1
  In  In60  1  0.49127683  0.65706219  0.49134863  1
  In  In61  1  0.82379675  0.02350882  0.15717161  1
  In  In62  1  0.35791054  -0.00151607  0.01135893  1
  In  In63  1  0.49328288  0.84529361  0.02965343  1
  In  In64  1  0.66282987  0.84897450  0.82727507  1
  In  In65  1  0.32827418  0.33286650  0.65771433  1
  In  In66  1  0.19032964  0.61931038  0.15979166  1
  In  In67  1  0.17414497  -0.00297566  0.48869828  1
  In  In68  1  0.50295588  0.16682869  0.66308246  1
  In  In69  1  0.47621183  0.66455306  0.18602467  1
  In  In70  1  0.30754818  0.34597090  0.33555917  1
  In  In71  1  0.84762054  0.85172160  0.33891198  1
  Te  Te72  1  0.06488879  0.11418751  0.11537025  1
  Te  Te73  1  0.08054863  0.09361253  0.41234273  1
  Te  Te74  1  0.08372279  0.09448260  0.76346663  1
  Te  Te75  1  0.05069631  0.39777893  0.06533186  1
  Te  Te76  1  0.07402794  0.44475985  0.43764961  1
  Te  Te77  1  0.07929791  0.41087654  0.73506388  1
  Te  Te78  1  0.06888707  0.73996280  0.09382319  1
  Te  Te79  1  0.09456473  0.76076492  0.44454621  1
  Te  Te80  1  0.08574905  0.75234748  0.72903366  1
  Te  Te81  1  0.44458151  0.11445400  0.06888412  1
  Te  Te82  1  0.40972316  0.07924200  0.41167686  1
  Te  Te83  1  0.42151746  0.09907088  0.76822354  1
  Te  Te84  1  0.38586988  0.43180626  0.11528127  1
  Te  Te85  1  0.41398167  0.40568864  0.42188968  1
  Te  Te86  1  0.42013830  0.42004469  0.75360247  1
  Te  Te87  1  0.39396259  0.73993304  0.07921305  1
  Te  Te88  1  0.40853858  0.75482714  0.41175622  1
  Te  Te89  1  0.41494006  0.74588123  0.74916491  1
  Te  Te90  1  0.74266413  0.10687585  0.06524505  1
  Te  Te91  1  0.75672732  0.09976689  0.39347156  1
  Te  Te92  1  0.73438057  0.11474704  0.77531028  1
  Te  Te93  1  0.76501627  0.39342874  0.11549397  1
  Te  Te94  1  0.73996902  0.40116058  0.38620076  1
  Te  Te95  1  0.76848126  0.37204561  0.78108403  1
  Te  Te96  1  0.74996434  0.74812837  0.07687322  1
  Te  Te97  1  0.75111564  0.74386514  0.42130310  1
  Te  Te98  1  0.75916355  0.74206081  0.77064687  1
  Te  Te99  1  0.11612258  0.24642077  0.26835040  1
  Te  Te100  1  0.06050320  0.27526414  0.58992175  1
  Te  Te101  1  0.07106298  0.25290937  0.91575164  1
  Te  Te102  1  0.09029863  0.55806676  0.25165136  1
  Te  Te103  1  0.10649216  0.55409734  0.54541659  1
  Te  Te104  1  0.09425319  0.56401052  0.93251011  1
  Te  Te105  1  0.08537095  0.91094181  0.27348230  1
  Te  Te106  1  0.09291059  0.90976804  0.57899408  1
  Te  Te107  1  0.08629792  0.92021413  0.91515346  1
  Te  Te108  1  0.40460065  0.24951561  0.24839694  1
  Te  Te109  1  0.43038033  0.26359811  0.56844398  1
  Te  Te110  1  0.43470737  0.24548141  0.91370642  1
  Te  Te111  1  0.41010393  0.55910380  0.26414918  1
  Te  Te112  1  0.40548129  0.58903802  0.59846471  1
  Te  Te113  1  0.41354332  0.58089389  0.93323157  1
  Te  Te114  1  0.39960006  0.94519283  0.25227621  1
  Te  Te115  1  0.42251693  0.92435640  0.57668668  1
  Te  Te116  1  0.43895885  0.92256430  0.89719472  1
  Te  Te117  1  0.79267079  0.20488932  0.28179803  1
  Te  Te118  1  0.77126574  0.25076929  0.59139487  1
  Te  Te119  1  0.77148707  0.25503159  0.90248476  1
  Te  Te120  1  0.74964311  0.58450477  0.25126800  1
  Te  Te121  1  0.75162664  0.57827310  0.59163471  1
  Te  Te122  1  0.77137146  0.56840650  0.90467378  1
  Te  Te123  1  0.74463575  0.91323361  0.24470760  1
  Te  Te124  1  0.75796729  0.91145699  0.59062940  1
  Te  Te125  1  0.74543203  0.92317252  0.92504652  1
  Te  Te126  1  0.24702118  0.25091044  0.08256803  1
  Te  Te127  1  0.22034644  0.26171517  0.42313552  1
  Te  Te128  1  0.26440889  0.24256572  0.76394891  1
  Te  Te129  1  0.27025091  0.57159992  0.04913801  1
  Te  Te130  1  0.22422066  0.58582257  0.42588427  1
  Te  Te131  1  0.22907374  0.56037513  0.73448101  1
  Te  Te132  1  0.23497082  0.92214223  0.07721030  1
  Te  Te133  1  0.26096454  0.91567992  0.39954262  1
  Te  Te134  1  0.24365521  0.89432352  0.71523814  1
  Te  Te135  1  0.59986940  0.24249300  0.07684053  1
  Te  Te136  1  0.58727369  0.26922681  0.41110561  1
  Te  Te137  1  0.60330213  0.24321297  0.74488863  1
  Te  Te138  1  0.57735304  0.59819706  0.08723569  1
  Te  Te139  1  0.56721576  0.55791954  0.40335060  1
  Te  Te140  1  0.60227833  0.55443249  0.75352136  1
  Te  Te141  1  0.60987278  0.94408709  0.06325937  1
  Te  Te142  1  0.55085963  0.92340193  0.40397083  1
  Te  Te143  1  0.58566709  0.95507103  0.74919111  1
  Te  Te144  1  0.94329957  0.28856069  0.09409877  1
  Te  Te145  1  0.90555323  0.24857679  0.40574915  1
  Te  Te146  1  0.88835965  0.30095264  0.71893218  1
  Te  Te147  1  0.94579806  0.54765211  0.10335143  1
  Te  Te148  1  0.94058600  0.56634640  0.41163046  1
  Te  Te149  1  0.92251523  0.59064378  0.75107334  1
  Te  Te150  1  0.89919800  0.91294317  0.07216055  1
  Te  Te151  1  0.94055010  0.91699186  0.43909597  1
  Te  Te152  1  0.92410895  0.92032598  0.74553980  1
  Te  Te153  1  0.24675032  0.08402926  0.27612756  1
  Te  Te154  1  0.25007925  0.09187598  0.59223920  1
  Te  Te155  1  0.26569451  0.08479647  0.91961895  1
  Te  Te156  1  0.22591630  0.44615825  0.25653393  1
  Te  Te157  1  0.22593158  0.40954381  0.58432522  1
  Te  Te158  1  0.23730640  0.41996947  0.94111622  1
  Te  Te159  1  0.22831204  0.74509741  0.24616939  1
  Te  Te160  1  0.21163225  0.72552783  0.54338240  1
  Te  Te161  1  0.25715598  0.73086028  0.90908533  1
  Te  Te162  1  0.59810977  0.10971795  0.22968988  1
  Te  Te163  1  0.57628372  0.07747540  0.55846604  1
  Te  Te164  1  0.51997077  0.04540729  0.95385392  1
  Te  Te165  1  0.58263066  0.39509097  0.25244204  1
  Te  Te166  1  0.60925999  0.39058160  0.58692354  1
  Te  Te167  1  0.60460345  0.43846052  0.91715051  1
  Te  Te168  1  0.55471537  0.77126590  0.26534656  1
  Te  Te169  1  0.58345684  0.75353133  0.57364982  1
  Te  Te170  1  0.57222010  0.75333692  0.91705637  1
  Te  Te171  1  0.90960077  0.12155269  0.23624469  1
  Te  Te172  1  0.89705233  0.09872462  0.60911409  1
  Te  Te173  1  0.92905927  0.09071163  0.91604098  1
  Te  Te174  1  0.92691181  0.37812504  0.23942828  1
  Te  Te175  1  0.93603027  0.42904468  0.57884224  1
  Te  Te176  1  0.92168572  0.39438168  0.92583292  1
  Te  Te177  1  0.91490154  0.73805401  0.26084133  1
  Te  Te178  1  0.94489877  0.74582789  0.56868862  1
  Te  Te179  1  0.89965992  0.75071037  0.92836610  1
