# generated using pymatgen
data_In2Te3
_symmetry_space_group_name_H-M   'P 1'
_cell_length_a   19.01567636
_cell_length_b   19.01688694
_cell_length_c   18.98844327
_cell_angle_alpha   90.24548930
_cell_angle_beta   90.16897264
_cell_angle_gamma   89.76626359
_symmetry_Int_Tables_number   1
_chemical_formula_structural   In2Te3
_chemical_formula_sum   'In72 Te108'
_cell_volume   6866.43157973
_cell_formula_units_Z   36
loop_
 _symmetry_equiv_pos_site_id
 _symmetry_equiv_pos_as_xyz
  1  'x, y, z'
loop_
 _atom_site_type_symbol
 _atom_site_label
 _atom_site_symmetry_multiplicity
 _atom_site_fract_x
 _atom_site_fract_y
 _atom_site_fract_z
 _atom_site_occupancy
  In  In0  1  0.82992827  0.48418061  0.32920165  1
  In  In1  1  0.20075482  -0.03088013  0.47860333  1
  In  In2  1  0.34318214  0.85206339  0.84637630  1
  In  In3  1  0.16230110  0.68229398  0.47492020  1
  In  In4  1  0.17936694  0.15377119  -0.00252143  1
  In  In5  1  0.49883236  0.50784665  0.01445959  1
  In  In6  1  -0.00430715  0.32247031  0.65689299  1
  In  In7  1  0.48795236  0.86733273  0.63999534  1
  In  In8  1  0.66339592  0.52631658  0.14205712  1
  In  In9  1  0.34738380  0.83260512  0.17908191  1
  In  In10  1  0.01377336  -0.00461960  0.63359432  1
  In  In11  1  0.83431009  0.01021413  0.14965825  1
  In  In12  1  0.51889916  0.51542804  0.68624204  1
  In  In13  1  0.31414785  0.33126830  0.67472758  1
  In  In14  1  -0.00144567  0.32640068  0.00675077  1
  In  In15  1  0.65627808  0.34301668  0.34806718  1
  In  In16  1  0.00108818  0.49470245  0.50029463  1
  In  In17  1  0.32610429  0.15100550  0.19065725  1
  In  In18  1  0.80094652  0.67099968  0.84303787  1
  In  In19  1  0.16807908  0.64960136  0.81644265  1
  In  In20  1  -0.00967657  0.32844291  0.33528598  1
  In  In21  1  0.34007249  0.48291204  0.85398414  1
  In  In22  1  0.16989973  0.00625177  0.82883010  1
  In  In23  1  0.50557387  0.15807481  0.66149644  1
  In  In24  1  0.00662073  0.50614106  0.18165979  1
  In  In25  1  0.82424894  -0.00848370  0.84542380  1
  In  In26  1  0.16905345  0.83100421  0.66108405  1
  In  In27  1  0.46724253  0.69337072  0.47666278  1
  In  In28  1  0.82029114  0.63345471  0.51087175  1
  In  In29  1  0.15979645  0.32723933  0.17358493  1
  In  In30  1  -0.01420403  0.15044882  0.81366590  1
  In  In31  1  0.67954298  0.81502834  0.17260403  1
  In  In32  1  0.48917936  0.00541599  0.18766357  1
  In  In33  1  0.19274941  0.83449792  0.02698834  1
  In  In34  1  0.66056490  0.33760241  -0.00755515  1
  In  In35  1  0.02246294  0.67751629  0.00738480  1
  In  In36  1  0.00816802  0.51077101  0.85757006  1
  In  In37  1  0.65269197  -0.00072487  -0.00763755  1
  In  In38  1  0.18034933  0.50920951  0.32171844  1
  In  In39  1  -0.02940077  0.64293416  0.64528679  1
  In  In40  1  0.32654370  0.30928039  0.35180093  1
  In  In41  1  0.65243136  0.66814880  0.31684522  1
  In  In42  1  -0.02012545  0.81204811  0.84275877  1
  In  In43  1  0.33251184  0.47308238  0.51006160  1
  In  In44  1  0.51390484  0.31529784  0.84579681  1
  In  In45  1  0.86546277  0.80773252  0.66145720  1
  In  In46  1  0.32121602  0.13493500  0.48566342  1
  In  In47  1  0.85142390  0.00328175  0.48103836  1
  In  In48  1  0.65863517  0.84560211  0.50041774  1
  In  In49  1  0.22009468  -0.05531975  0.23746717  1
  In  In50  1  0.53661734  0.69215733  0.86880238  1
  In  In51  1  0.82527350  0.16352706  0.32968135  1
  In  In52  1  0.02923954  0.14684152  0.48256091  1
  In  In53  1  0.50804830  -0.00935579  0.83263880  1
  In  In54  1  0.83413853  0.82954932  0.33229839  1
  In  In55  1  0.35163504  0.17316121  0.82742385  1
  In  In56  1  0.65663509  -0.00459513  0.36111867  1
  In  In57  1  0.33653552  0.67547589  0.02157398  1
  In  In58  1  0.65828781  0.16265976  0.16542563  1
  In  In59  1  0.16149378  0.35026201  0.83389470  1
  In  In60  1  0.83272323  0.50398742  -0.00430695  1
  In  In61  1  0.66717256  0.15699783  0.82142157  1
  In  In62  1  -0.00533651  0.70847403  0.32682282  1
  In  In63  1  0.00090980  -0.01776888  0.00882218  1
  In  In64  1  0.49014889  0.34769031  0.18238201  1
  In  In65  1  0.00537552  0.17126543  0.16100884  1
  In  In66  1  0.47753597  0.54474500  0.31834601  1
  In  In67  1  0.80427952  0.32563149  0.53496014  1
  In  In68  1  0.79534030  0.36001608  0.79086153  1
  In  In69  1  0.66674135  0.00752045  0.65556332  1
  In  In70  1  0.51074079  0.34733823  0.51867307  1
  In  In71  1  0.33738778  0.66661682  0.67892475  1
  Te  Te72  1  0.09403350  0.07025114  0.08982237  1
  Te  Te73  1  0.10648542  0.05392674  0.39741775  1
  Te  Te74  1  0.09145414  0.08699554  0.72664124  1
  Te  Te75  1  0.08700778  0.42332217  0.08216888  1
  Te  Te76  1  0.08942513  0.41788444  0.40540221  1
  Te  Te77  1  0.06874260  0.42790023  0.74502792  1
  Te  Te78  1  0.08933091  0.76772033  0.10845508  1
  Te  Te79  1  0.11537826  0.78207876  0.37422806  1
  Te  Te80  1  0.07035239  0.73860551  0.73927895  1
  Te  Te81  1  0.41806985  0.09212531  0.09400561  1
  Te  Te82  1  0.43826460  0.04920392  0.45995769  1
  Te  Te83  1  0.41551554  0.06630152  0.73858710  1
  Te  Te84  1  0.40860368  0.41818632  0.08307168  1
  Te  Te85  1  0.42817561  0.42191836  0.40325348  1
  Te  Te86  1  0.42532447  0.40540020  0.74805009  1
  Te  Te87  1  0.42765624  0.78206001  0.06432972  1
  Te  Te88  1  0.36502935  0.73857008  0.37864106  1
  Te  Te89  1  0.42401687  0.77080578  0.74523971  1
  Te  Te90  1  0.74669160  0.09688935  0.06160360  1
  Te  Te91  1  0.74142961  0.09735083  0.43603069  1
  Te  Te92  1  0.76892728  0.08222308  0.73763790  1
  Te  Te93  1  0.74978504  0.41457772  0.08672020  1
  Te  Te94  1  0.74263507  0.43116561  0.43760608  1
  Te  Te95  1  0.73394457  0.46066383  0.70159787  1
  Te  Te96  1  0.68737445  0.71310782  0.06389894  1
  Te  Te97  1  0.74508317  0.73790597  0.42614164  1
  Te  Te98  1  0.75124349  0.76137697  0.73680957  1
  Te  Te99  1  0.09026259  0.23589582  0.27003943  1
  Te  Te100  1  0.08816198  0.24957992  0.56911215  1
  Te  Te101  1  0.07867066  0.23099932  0.91209967  1
  Te  Te102  1  0.08897189  0.60779277  0.25445546  1
  Te  Te103  1  0.09337948  0.58786455  0.57637819  1
  Te  Te104  1  0.11588972  0.57898773  0.93935209  1
  Te  Te105  1  0.09669361  0.86747553  0.23161967  1
  Te  Te106  1  0.08400459  0.89245169  0.55270423  1
  Te  Te107  1  0.08793865  0.90271383  0.90481786  1
  Te  Te108  1  0.42856290  0.23854904  0.26676438  1
  Te  Te109  1  0.41252424  0.25243750  0.58625240  1
  Te  Te110  1  0.40361369  0.26780625  0.92653836  1
  Te  Te111  1  0.38539149  0.59018795  0.21256629  1
  Te  Te112  1  0.42006844  0.57799377  0.58266619  1
  Te  Te113  1  0.41357977  0.60666691  0.90252958  1
  Te  Te114  1  0.39503528  0.93640809  0.28062871  1
  Te  Te115  1  0.40123635  0.91731519  0.53067305  1
  Te  Te116  1  0.44174996  0.91098415  0.93749117  1
  Te  Te117  1  0.73999164  0.25984325  0.25053087  1
  Te  Te118  1  0.71427666  0.25255833  0.61981941  1
  Te  Te119  1  0.74923757  0.25985310  0.89760978  1
  Te  Te120  1  0.75879291  0.58816189  0.24355029  1
  Te  Te121  1  0.75300724  0.59907498  0.63501923  1
  Te  Te122  1  0.72734562  0.56974288  0.91884095  1
  Te  Te123  1  0.74703367  0.93546142  0.25265975  1
  Te  Te124  1  0.77078519  0.91546562  0.57846828  1
  Te  Te125  1  0.74504804  0.90017306  0.92790427  1
  Te  Te126  1  0.25497364  0.24539740  0.08997511  1
  Te  Te127  1  0.23684998  0.25037681  0.44900256  1
  Te  Te128  1  0.23147299  0.23831481  0.75870409  1
  Te  Te129  1  0.25681112  0.60296808  0.11947418  1
  Te  Te130  1  0.26504364  0.58170850  0.42313189  1
  Te  Te131  1  0.25855425  0.55508649  0.74244226  1
  Te  Te132  1  0.27079219  0.94103164  0.09364531  1
  Te  Te133  1  0.30065106  0.87845260  0.40847604  1
  Te  Te134  1  0.25999707  0.92300236  0.73816797  1
  Te  Te135  1  0.57261761  0.25955883  0.08607072  1
  Te  Te136  1  0.58376292  0.25234892  0.43452041  1
  Te  Te137  1  0.60069667  0.26299749  0.72552092  1
  Te  Te138  1  0.55350022  0.61650874  0.10019112  1
  Te  Te139  1  0.57492899  0.59477578  0.42381230  1
  Te  Te140  1  0.59427676  0.62239538  0.75294337  1
  Te  Te141  1  0.59356797  0.92607125  0.10912938  1
  Te  Te142  1  0.56860124  0.87923955  0.38771239  1
  Te  Te143  1  0.59669799  0.90727185  0.74244221  1
  Te  Te144  1  0.90694257  0.24299492  0.08128500  1
  Te  Te145  1  0.89858383  0.25732910  0.42969758  1
  Te  Te146  1  0.89724027  0.25096922  0.74477874  1
  Te  Te147  1  0.92447960  0.58675280  0.08323466  1
  Te  Te148  1  0.92490643  0.58056293  0.39958103  1
  Te  Te149  1  0.91148099  0.58851663  0.77163936  1
  Te  Te150  1  0.90420318  0.90149028  0.08045339  1
  Te  Te151  1  0.92923259  0.92708845  0.38466689  1
  Te  Te152  1  0.93157550  0.92444690  0.74832760  1
  Te  Te153  1  0.23098114  0.08494163  0.28309415  1
  Te  Te154  1  0.24564746  0.05945964  0.58507811  1
  Te  Te155  1  0.27559176  0.07152753  0.91482985  1
  Te  Te156  1  0.26434381  0.40509693  0.25109180  1
  Te  Te157  1  0.22659102  0.40649706  0.58466259  1
  Te  Te158  1  0.24383429  0.41280418  0.93666358  1
  Te  Te159  1  0.28414028  0.70902985  0.23941956  1
  Te  Te160  1  0.26102347  0.74640450  0.57619489  1
  Te  Te161  1  0.24250228  0.75091281  0.90350464  1
  Te  Te162  1  0.58114208  0.09485646  0.27520632  1
  Te  Te163  1  0.56627251  0.06345156  0.56176416  1
  Te  Te164  1  0.56728417  0.10286177  0.91746913  1
  Te  Te165  1  0.58671100  0.44781074  0.25120444  1
  Te  Te166  1  0.60523998  0.43310369  0.59569543  1
  Te  Te167  1  0.58208719  0.43603099  0.90806459  1
  Te  Te168  1  0.56541219  0.77150557  0.25830014  1
  Te  Te169  1  0.56681073  0.75307940  0.57630780  1
  Te  Te170  1  0.62784276  0.78166931  0.94115635  1
  Te  Te171  1  0.92401638  0.07980326  0.25174380  1
  Te  Te172  1  0.92036196  0.09965690  0.57651279  1
  Te  Te173  1  0.91604266  0.08037528  0.92674612  1
  Te  Te174  1  0.91014919  0.40110761  0.23024740  1
  Te  Te175  1  0.90517604  0.42709358  0.59303355  1
  Te  Te176  1  0.91013266  0.40315712  0.90368774  1
  Te  Te177  1  0.89475911  0.74696697  0.22762294  1
  Te  Te178  1  0.92753744  0.74332246  0.54154179  1
  Te  Te179  1  0.89880324  0.73877509  0.94342864  1
