# generated using pymatgen
data_In2Te3
_symmetry_space_group_name_H-M   'P 1'
_cell_length_a   18.77049086
_cell_length_b   18.76887241
_cell_length_c   18.77239939
_cell_angle_alpha   90.03299883
_cell_angle_beta   89.97182746
_cell_angle_gamma   89.99507256
_symmetry_Int_Tables_number   1
_chemical_formula_structural   In2Te3
_chemical_formula_sum   'In72 Te108'
_cell_volume   6613.53218125
_cell_formula_units_Z   36
loop_
 _symmetry_equiv_pos_site_id
 _symmetry_equiv_pos_as_xyz
  1  'x, y, z'
loop_
 _atom_site_type_symbol
 _atom_site_label
 _atom_site_symmetry_multiplicity
 _atom_site_fract_x
 _atom_site_fract_y
 _atom_site_fract_z
 _atom_site_occupancy
  In  In0  1  0.00795895  0.65104306  -0.00792155  1
  In  In1  1  -0.04923950  0.04968160  0.31800574  1
  In  In2  1  0.83284436  0.65297294  0.84515531  1
  In  In3  1  -0.01861825  0.84779681  0.17967367  1
  In  In4  1  0.53890640  0.02196239  0.17172657  1
  In  In5  1  0.16949730  0.83211482  0.31182422  1
  In  In6  1  0.34625559  0.00637789  0.69520771  1
  In  In7  1  0.34309820  0.17377423  0.15121355  1
  In  In8  1  0.32595638  0.81973983  0.16703676  1
  In  In9  1  0.32819549  0.49004609  0.15543318  1
  In  In10  1  0.36394208  0.50187455  0.83780959  1
  In  In11  1  0.35910711  0.16517646  0.83331302  1
  In  In12  1  0.66483187  0.66197723  0.33762493  1
  In  In13  1  0.34564542  0.82290944  0.49996738  1
  In  In14  1  0.52113137  0.65170263  0.15742175  1
  In  In15  1  0.80763966  0.33884214  0.51170428  1
  In  In16  1  0.82793201  0.66671423  0.51026777  1
  In  In17  1  0.53655638  0.03839342  0.52190207  1
  In  In18  1  0.17718463  0.64500064  0.50192399  1
  In  In19  1  0.32073801  0.34017123  0.33819846  1
  In  In20  1  0.83318372  0.48480878  0.33926675  1
  In  In21  1  0.49831003  0.33675066  0.16651366  1
  In  In22  1  0.66830421  0.47757534  0.16111366  1
  In  In23  1  -0.01215963  0.04237431  -0.00346337  1
  In  In24  1  0.66903916  0.66736136  -0.00638980  1
  In  In25  1  0.49935125  0.84149222  0.35671303  1
  In  In26  1  0.82033747  0.82626743  0.01698444  1
  In  In27  1  -0.03695025  0.82422193  0.52199310  1
  In  In28  1  0.33815325  0.00670488  0.33205656  1
  In  In29  1  0.17373800  0.03162102  0.82368243  1
  In  In30  1  0.16936147  0.48926491  0.66281871  1
  In  In31  1  0.51815114  0.48195903  0.31708125  1
  In  In32  1  0.83204227  0.84759932  0.33582919  1
  In  In33  1  0.51225623  0.18500562  -0.00558117  1
  In  In34  1  0.16166102  0.80872387  0.66382767  1
  In  In35  1  0.16264962  0.64892052  0.83877433  1
  In  In36  1  0.82034585  0.32780971  0.83291035  1
  In  In37  1  -0.01238988  0.49344587  0.15694507  1
  In  In38  1  0.51393379  0.46167014  0.68189217  1
  In  In39  1  -0.01326474  -0.00098331  0.68183938  1
  In  In40  1  0.01631181  0.68444832  0.32744563  1
  In  In41  1  0.49843365  0.65969774  0.50726601  1
  In  In42  1  0.83735591  0.02982846  0.82697387  1
  In  In43  1  0.33245722  0.31727232  -0.00596250  1
  In  In44  1  0.16171849  0.63508502  0.15795273  1
  In  In45  1  0.49295523  0.83166540  -0.00073929  1
  In  In46  1  0.81514449  0.04838644  0.19122598  1
  In  In47  1  -0.01220111  0.86786236  0.81452110  1
  In  In48  1  0.17488817  0.01181365  0.15731446  1
  In  In49  1  0.17179946  0.17639147  0.00830300  1
  In  In50  1  0.64767448  0.64306104  0.67183679  1
  In  In51  1  0.82831384  0.49813985  0.68493113  1
  In  In52  1  0.50728300  -0.00297731  0.81148788  1
  In  In53  1  0.66537321  0.02689244  0.33459295  1
  In  In54  1  0.01163140  0.34045563  0.32034956  1
  In  In55  1  0.81852880  0.48071024  0.01025680  1
  In  In56  1  -0.01702745  0.32542929  0.01917661  1
  In  In57  1  0.00369710  0.47746119  0.50074168  1
  In  In58  1  0.35088686  0.18230566  0.49921857  1
  In  In59  1  0.53272497  0.29527050  0.48767149  1
  In  In60  1  0.82813215  0.18394833  0.66751896  1
  In  In61  1  0.17019294  0.33725441  0.82520267  1
  In  In62  1  0.15314309  0.16370620  0.65913736  1
  In  In63  1  0.65842938  0.01340396  0.01644828  1
  In  In64  1  0.77301169  0.01921059  0.52916888  1
  In  In65  1  0.32653618  0.49128519  0.50881669  1
  In  In66  1  0.65452776  0.83678411  0.83768600  1
  In  In67  1  -0.00126334  0.19513593  0.50415484  1
  In  In68  1  0.35393108  0.81253756  0.83244225  1
  In  In69  1  0.50157778  0.82759226  0.67550716  1
  In  In70  1  0.16638584  0.82737171  -0.01183895  1
  In  In71  1  0.13974139  0.02796586  0.48716817  1
  Te  Te72  1  0.07061892  0.11246103  0.10569658  1
  Te  Te73  1  0.07253244  0.12020760  0.38863126  1
  Te  Te74  1  0.05610583  0.10737862  0.76535023  1
  Te  Te75  1  0.08450787  0.41486267  0.07868569  1
  Te  Te76  1  0.10209808  0.41007126  0.41462484  1
  Te  Te77  1  0.07216118  0.41556719  0.74714827  1
  Te  Te78  1  0.08026639  0.76071948  0.09832618  1
  Te  Te79  1  0.09020453  0.76670024  0.43267030  1
  Te  Te80  1  0.06705688  0.74454285  0.76323027  1
  Te  Te81  1  0.43368854  0.07749187  0.07435807  1
  Te  Te82  1  0.43692723  0.08740543  0.41370216  1
  Te  Te83  1  0.45357616  0.11180875  0.72361504  1
  Te  Te84  1  0.42657316  0.41891192  0.06066734  1
  Te  Te85  1  0.43566219  0.40712230  0.42366101  1
  Te  Te86  1  0.39697286  0.39306586  0.74172975  1
  Te  Te87  1  0.41266564  0.72890879  0.07891137  1
  Te  Te88  1  0.40914845  0.72516742  0.40101493  1
  Te  Te89  1  0.41525915  0.72327942  0.73298580  1
  Te  Te90  1  0.75957562  0.11411352  0.06390279  1
  Te  Te91  1  0.75735468  0.11848007  0.41697123  1
  Te  Te92  1  0.73234692  0.09283006  0.74113726  1
  Te  Te93  1  0.74316278  0.37322290  0.08260301  1
  Te  Te94  1  0.72682163  0.40555559  0.40522203  1
  Te  Te95  1  0.71993248  0.40959575  0.74583928  1
  Te  Te96  1  0.73616333  0.74162881  0.10242980  1
  Te  Te97  1  0.74267522  0.76139122  0.42531965  1
  Te  Te98  1  0.73744595  0.73449482  0.75757982  1
  Te  Te99  1  0.06832203  0.23221507  0.23755945  1
  Te  Te100  1  0.09680978  0.27670332  0.58122401  1
  Te  Te101  1  0.07986079  0.25257115  0.91684402  1
  Te  Te102  1  0.07851888  0.56222297  0.26347115  1
  Te  Te103  1  0.06821135  0.58602620  0.58766587  1
  Te  Te104  1  0.08806336  0.55069649  0.92160536  1
  Te  Te105  1  0.07411270  0.94119002  0.25787335  1
  Te  Te106  1  0.08455993  0.91904705  0.59020568  1
  Te  Te107  1  0.08158664  0.93832238  0.92165542  1
  Te  Te108  1  0.41842905  0.24808945  0.26110846  1
  Te  Te109  1  0.43808400  0.25210931  0.59531641  1
  Te  Te110  1  0.44271014  0.27792179  0.89356003  1
  Te  Te111  1  0.42252383  0.57457446  0.24544084  1
  Te  Te112  1  0.42523484  0.56446425  0.59876523  1
  Te  Te113  1  0.46743484  0.59107741  0.89508515  1
  Te  Te114  1  0.42208312  0.91824686  0.23930643  1
  Te  Te115  1  0.42373178  0.92862047  0.57887895  1
  Te  Te116  1  0.41428258  0.92916335  0.91134729  1
  Te  Te117  1  0.74937538  0.18209682  0.23479906  1
  Te  Te118  1  0.71288439  0.25657878  0.59782762  1
  Te  Te119  1  0.70881752  0.24988697  0.89881089  1
  Te  Te120  1  0.75049846  0.57547155  0.24557362  1
  Te  Te121  1  0.73886364  0.56312610  0.57732960  1
  Te  Te122  1  0.73246997  0.55731558  0.90767754  1
  Te  Te123  1  0.73888497  0.92494295  0.24449800  1
  Te  Te124  1  0.76068131  0.89853078  0.60883062  1
  Te  Te125  1  0.75363490  0.92422608  0.91641067  1
  Te  Te126  1  0.23629308  0.27464667  0.10626716  1
  Te  Te127  1  0.24214398  0.24837279  0.42615942  1
  Te  Te128  1  0.25741737  0.23772144  0.74599352  1
  Te  Te129  1  0.25408943  0.57761334  0.05967012  1
  Te  Te130  1  0.25409906  0.56768850  0.40433377  1
  Te  Te131  1  0.26082001  0.57724736  0.74828377  1
  Te  Te132  1  0.25999117  0.91909487  0.07064843  1
  Te  Te133  1  0.25045955  0.91572509  0.42013355  1
  Te  Te134  1  0.24067834  0.90351129  0.75871947  1
  Te  Te135  1  0.60050253  0.27173031  0.07708340  1
  Te  Te136  1  0.61946632  0.19617337  0.41533733  1
  Te  Te137  1  0.61283773  0.28286667  0.78126434  1
  Te  Te138  1  0.58348401  0.55333586  0.05943443  1
  Te  Te139  1  0.58801435  0.56542520  0.42639386  1
  Te  Te140  1  0.56870390  0.56835697  0.77761540  1
  Te  Te141  1  0.59258798  0.89852056  0.09232708  1
  Te  Te142  1  0.59837949  0.92837801  0.43359390  1
  Te  Te143  1  0.60923872  0.92712465  0.72204033  1
  Te  Te144  1  0.87971522  0.23382163  0.07524617  1
  Te  Te145  1  0.90327699  0.27082322  0.41488300  1
  Te  Te146  1  0.92395393  0.26026997  0.74857708  1
  Te  Te147  1  0.89936829  0.59386105  0.08078700  1
  Te  Te148  1  0.92211565  0.58867193  0.41413759  1
  Te  Te149  1  0.92714328  0.57026340  0.76759177  1
  Te  Te150  1  0.90762123  0.93983783  0.08211937  1
  Te  Te151  1  0.92354011  0.93371031  0.42072647  1
  Te  Te152  1  0.86670542  0.90725843  0.72296200  1
  Te  Te153  1  0.25070628  0.10286182  0.25405037  1
  Te  Te154  1  0.25491006  0.06963115  0.58800665  1
  Te  Te155  1  0.26857626  0.08725534  0.92967769  1
  Te  Te156  1  0.23549410  0.41076351  0.23990938  1
  Te  Te157  1  0.23992356  0.39022675  0.57554536  1
  Te  Te158  1  0.25565292  0.42393846  0.91745266  1
  Te  Te159  1  0.25158394  0.71917613  0.25487148  1
  Te  Te160  1  0.27011421  0.72817689  0.59320743  1
  Te  Te161  1  0.26391450  0.72936898  0.92453230  1
  Te  Te162  1  0.59556018  0.13640876  0.25132295  1
  Te  Te163  1  0.63835413  0.11352222  0.60093525  1
  Te  Te164  1  0.59117073  0.08814943  0.90207348  1
  Te  Te165  1  0.61501183  0.37614753  0.26518217  1
  Te  Te166  1  0.60142614  0.39479554  0.57922913  1
  Te  Te167  1  0.62904022  0.39281163  0.87852332  1
  Te  Te168  1  0.57857370  0.75675004  0.25452051  1
  Te  Te169  1  0.59456699  0.75439005  0.57751019  1
  Te  Te170  1  0.55810762  0.73541020  0.89860981  1
  Te  Te171  1  0.91570303  0.17094570  0.22369836  1
  Te  Te172  1  0.91534037  0.08204371  0.57268654  1
  Te  Te173  1  0.89519781  0.13027525  0.92055149  1
  Te  Te174  1  0.89507692  0.39759495  0.23150649  1
  Te  Te175  1  0.91454314  0.40262416  0.59898515  1
  Te  Te176  1  0.91635391  0.41866631  0.91308359  1
  Te  Te177  1  0.89788536  0.73975633  0.24744952  1
  Te  Te178  1  0.91164141  0.72577578  0.61772935  1
  Te  Te179  1  0.92283631  0.76513180  0.92052911  1
