# generated using pymatgen
data_In2Te3
_symmetry_space_group_name_H-M   'P 1'
_cell_length_a   18.78546213
_cell_length_b   18.78959423
_cell_length_c   18.78299208
_cell_angle_alpha   90.02179834
_cell_angle_beta   89.93373831
_cell_angle_gamma   89.94701879
_symmetry_Int_Tables_number   1
_chemical_formula_structural   In2Te3
_chemical_formula_sum   'In72 Te108'
_cell_volume   6629.84770788
_cell_formula_units_Z   36
loop_
 _symmetry_equiv_pos_site_id
 _symmetry_equiv_pos_as_xyz
  1  'x, y, z'
loop_
 _atom_site_type_symbol
 _atom_site_label
 _atom_site_symmetry_multiplicity
 _atom_site_fract_x
 _atom_site_fract_y
 _atom_site_fract_z
 _atom_site_occupancy
  In  In0  1  0.32030990  0.66991066  0.66870689  1
  In  In1  1  0.85646784  0.33883349  0.83953444  1
  In  In2  1  0.84853839  0.68302566  0.81567509  1
  In  In3  1  0.13461593  0.52756693  -0.01960875  1
  In  In4  1  0.49869576  0.81827717  0.00249564  1
  In  In5  1  0.00983796  0.31569613  0.67112767  1
  In  In6  1  0.50037661  0.65540407  0.49145686  1
  In  In7  1  0.50517537  0.17013025  -0.02885933  1
  In  In8  1  0.80401053  0.12110906  0.01572311  1
  In  In9  1  0.69152806  0.85046257  0.18145651  1
  In  In10  1  0.69505016  0.65898963  0.67544031  1
  In  In11  1  0.66949260  0.84385327  0.49528168  1
  In  In12  1  0.18093701  0.32742728  0.82658712  1
  In  In13  1  0.84420602  -0.00875522  0.83760696  1
  In  In14  1  0.82819806  0.50121344  0.65347757  1
  In  In15  1  0.14728792  0.83435339  0.66723273  1
  In  In16  1  0.00071331  0.49702750  0.52154888  1
  In  In17  1  0.01310824  0.34022027  0.00170041  1
  In  In18  1  0.66086349  0.66972390  0.32427407  1
  In  In19  1  0.17189569  0.52360404  0.31578050  1
  In  In20  1  0.84838642  0.84618328  -0.01564367  1
  In  In21  1  0.32843933  0.85910254  0.18537461  1
  In  In22  1  0.30199166  0.86246189  0.46451842  1
  In  In23  1  0.15469533  0.01028330  0.17032863  1
  In  In24  1  0.50842910  0.47340365  0.67155923  1
  In  In25  1  0.66939114  0.30931227  0.64442047  1
  In  In26  1  0.50858945  -0.01568100  0.16408576  1
  In  In27  1  0.67759373  0.69216084  0.00311035  1
  In  In28  1  0.50632554  0.32274947  0.17364605  1
  In  In29  1  0.82124596  0.48104474  0.32814112  1
  In  In30  1  0.66979993  0.15827518  0.82605157  1
  In  In31  1  0.32246546  -0.00269944  0.01977364  1
  In  In32  1  0.49846463  0.65497089  0.16242272  1
  In  In33  1  0.00565233  0.66114909  0.67935134  1
  In  In34  1  0.00752860  0.83448122  0.49215039  1
  In  In35  1  0.67054138  0.50676172  0.84589205  1
  In  In36  1  0.33394499  0.67127710  0.34106232  1
  In  In37  1  0.65642169  0.33873736  0.00624503  1
  In  In38  1  0.33512966  0.17546047  0.50368614  1
  In  In39  1  0.16277775  0.17042487  0.00135526  1
  In  In40  1  0.16353205  0.50151678  0.66834012  1
  In  In41  1  0.67789322  -0.01295315  0.66887427  1
  In  In42  1  -0.00408365  0.31650573  0.32614498  1
  In  In43  1  0.83524773  0.15686250  0.32973759  1
  In  In44  1  0.33179231  0.83457600  0.84617525  1
  In  In45  1  0.00373336  0.69141844  0.32644443  1
  In  In46  1  0.16120938  0.33275820  0.50867096  1
  In  In47  1  0.50949862  0.14906310  0.32226835  1
  In  In48  1  0.47965267  0.18343763  0.66565761  1
  In  In49  1  0.81932325  0.66298951  0.49192867  1
  In  In50  1  0.71254601  0.47846253  0.17910035  1
  In  In51  1  0.34856052  0.48433454  0.18770579  1
  In  In52  1  0.01280460  0.16424687  0.16420037  1
  In  In53  1  0.66066917  0.32594658  0.35156397  1
  In  In54  1  0.33613113  0.49418830  0.82659329  1
  In  In55  1  0.16169524  0.68377004  0.14591660  1
  In  In56  1  0.33103443  0.02959401  0.66219445  1
  In  In57  1  0.49698501  0.50535482  0.01105587  1
  In  In58  1  0.31124805  0.66278235  -0.02221860  1
  In  In59  1  0.00027026  0.00651865  0.34294191  1
  In  In60  1  -0.00553769  0.84974108  0.16267334  1
  In  In61  1  0.83470161  0.33706551  0.16879524  1
  In  In62  1  0.51444900  -0.00411699  0.49817560  1
  In  In63  1  -0.01935725  0.01985718  0.66489247  1
  In  In64  1  0.12888639  -0.01581257  0.83750705  1
  In  In65  1  0.68286990  0.15793916  0.48276900  1
  In  In66  1  0.33407782  0.17575766  0.82151022  1
  In  In67  1  0.15914203  0.15848614  0.33947197  1
  In  In68  1  0.50972597  0.85007631  0.67632237  1
  In  In69  1  0.31086793  0.17757631  0.16966554  1
  In  In70  1  0.83467990  0.85377855  0.67694212  1
  In  In71  1  0.34664221  0.47050858  0.47478084  1
  Te  Te72  1  0.06725041  0.06613779  0.05888101  1
  Te  Te73  1  0.05452550  0.11183087  0.43596825  1
  Te  Te74  1  0.08482018  0.08831290  0.74500497  1
  Te  Te75  1  0.08618468  0.43728409  0.08636170  1
  Te  Te76  1  0.08144651  0.42490937  0.41191470  1
  Te  Te77  1  0.07638142  0.42098312  0.76134297  1
  Te  Te78  1  0.03878045  0.73339157  0.07661601  1
  Te  Te79  1  0.10058505  0.74139376  0.42536400  1
  Te  Te80  1  0.08789191  0.74438246  0.77054760  1
  Te  Te81  1  0.41686590  0.09349475  0.09258851  1
  Te  Te82  1  0.41352650  0.07470442  0.41579292  1
  Te  Te83  1  0.43527432  0.07480880  0.76374471  1
  Te  Te84  1  0.41282469  0.39730158  0.07796935  1
  Te  Te85  1  0.44063330  0.43376368  0.36967384  1
  Te  Te86  1  0.41070704  0.39400911  0.74864942  1
  Te  Te87  1  0.39479696  0.74441493  0.09137130  1
  Te  Te88  1  0.42064439  0.76576277  0.42337489  1
  Te  Te89  1  0.41957825  0.74999491  0.75273667  1
  Te  Te90  1  0.73078794  0.06042771  0.12922039  1
  Te  Te91  1  0.74106045  0.05376339  0.39155813  1
  Te  Te92  1  0.77351307  0.08608716  0.73917983  1
  Te  Te93  1  0.77757485  0.42613283  0.04497205  1
  Te  Te94  1  0.76926447  0.38907245  0.42974187  1
  Te  Te95  1  0.74247922  0.41246357  0.74729345  1
  Te  Te96  1  0.77839383  0.76022851  0.09359648  1
  Te  Te97  1  0.75829590  0.76459215  0.39793856  1
  Te  Te98  1  0.73727049  0.77495904  0.76484051  1
  Te  Te99  1  0.10556688  0.25974046  0.23515808  1
  Te  Te100  1  0.08063923  0.22682947  0.57387096  1
  Te  Te101  1  0.07539155  0.24329647  0.90011865  1
  Te  Te102  1  0.06751276  0.59192185  0.22870763  1
  Te  Te103  1  0.09853497  0.60199545  0.57321896  1
  Te  Te104  1  0.05413956  0.62711653  0.90940712  1
  Te  Te105  1  0.09958135  0.90879000  0.27549995  1
  Te  Te106  1  0.08120609  0.93677107  0.57678130  1
  Te  Te107  1  0.11166348  0.88579826  0.94384474  1
  Te  Te108  1  0.40869880  0.24946759  0.26416042  1
  Te  Te109  1  0.41789042  0.27848265  0.57158451  1
  Te  Te110  1  0.40406716  0.26218285  0.91870101  1
  Te  Te111  1  0.43623588  0.57346136  0.27935144  1
  Te  Te112  1  0.40981393  0.57468933  0.58677681  1
  Te  Te113  1  0.42565614  0.59157304  0.90681493  1
  Te  Te114  1  0.43084996  0.91882038  0.27248809  1
  Te  Te115  1  0.40906263  0.91455097  0.58055731  1
  Te  Te116  1  0.42242327  0.92813167  0.92631258  1
  Te  Te117  1  0.74184783  0.24657864  0.24776599  1
  Te  Te118  1  0.77598797  0.21886369  0.58486225  1
  Te  Te119  1  0.75180585  0.24689110  0.92395183  1
  Te  Te120  1  0.77705755  0.60988080  0.24082433  1
  Te  Te121  1  0.72517384  0.56270571  0.55915692  1
  Te  Te122  1  0.76595406  0.60016440  0.91758209  1
  Te  Te123  1  0.75189505  0.95625487  0.26585996  1
  Te  Te124  1  0.77527263  0.93363128  0.56124217  1
  Te  Te125  1  0.73941179  0.91942207  0.91498394  1
  Te  Te126  1  0.24193130  0.26847235  0.07707537  1
  Te  Te127  1  0.25060176  0.26102644  0.40691225  1
  Te  Te128  1  0.24131689  0.23800848  0.72561325  1
  Te  Te129  1  0.26204422  0.57712216  0.09437675  1
  Te  Te130  1  0.25103740  0.58241299  0.43313429  1
  Te  Te131  1  0.23432743  0.59349373  0.76857259  1
  Te  Te132  1  0.22110230  0.90011182  0.08062281  1
  Te  Te133  1  0.21128117  0.94179391  0.38152020  1
  Te  Te134  1  0.25346203  0.92215456  0.74659551  1
  Te  Te135  1  0.59093823  0.22977982  0.08734483  1
  Te  Te136  1  0.56416342  0.24021744  0.43337373  1
  Te  Te137  1  0.57823859  0.25879459  0.75696917  1
  Te  Te138  1  0.60876415  0.57389744  0.09180216  1
  Te  Te139  1  0.59880938  0.57322801  0.41718128  1
  Te  Te140  1  0.58285873  0.58593905  0.74847151  1
  Te  Te141  1  0.60159327  0.90851930  0.06961999  1
  Te  Te142  1  0.58232155  0.91229337  0.39703567  1
  Te  Te143  1  0.59103588  0.92610284  0.77228098  1
  Te  Te144  1  0.90979852  0.23931921  0.07774017  1
  Te  Te145  1  0.92482401  0.23137115  0.42356857  1
  Te  Te146  1  0.91779771  0.23534725  0.75613137  1
  Te  Te147  1  0.85088850  0.54167470  0.12119875  1
  Te  Te148  1  0.91868682  0.57562538  0.41484413  1
  Te  Te149  1  0.92134048  0.56027585  0.75682525  1
  Te  Te150  1  0.91094638  0.94107513  0.08073050  1
  Te  Te151  1  0.90981641  0.91805253  0.42101964  1
  Te  Te152  1  0.94635813  0.90226753  0.76497230  1
  Te  Te153  1  0.26144723  0.06730853  0.26546426  1
  Te  Te154  1  0.23717232  0.08101394  0.56255350  1
  Te  Te155  1  0.24788363  0.07511539  0.91159978  1
  Te  Te156  1  0.24857265  0.40869576  0.26470009  1
  Te  Te157  1  0.25985363  0.41333281  0.59329291  1
  Te  Te158  1  0.24049079  0.42819296  0.92549286  1
  Te  Te159  1  0.24018541  0.75589746  0.25694485  1
  Te  Te160  1  0.24877240  0.76610203  0.57464179  1
  Te  Te161  1  0.21909107  0.77013108  0.92575180  1
  Te  Te162  1  0.60790071  0.08060702  0.22977295  1
  Te  Te163  1  0.58847689  0.09044043  0.59523322  1
  Te  Te164  1  0.60125904  0.06931035  0.92325986  1
  Te  Te165  1  0.58615571  0.42237504  0.25767450  1
  Te  Te166  1  0.58787629  0.40527566  0.56741579  1
  Te  Te167  1  0.56648869  0.41298859  0.90905796  1
  Te  Te168  1  0.57502300  0.76194598  0.23842173  1
  Te  Te169  1  0.59257168  0.74637942  0.58872995  1
  Te  Te170  1  0.57318018  0.73312694  0.90777575  1
  Te  Te171  1  0.91630061  0.06908342  0.23160220  1
  Te  Te172  1  0.87734075  0.09706684  0.59285183  1
  Te  Te173  1  0.91726074  0.08237190  0.92981497  1
  Te  Te174  1  0.93750020  0.42718189  0.23818541  1
  Te  Te175  1  0.90716530  0.39397273  0.58016513  1
  Te  Te176  1  0.92891697  0.43576020  0.92387824  1
  Te  Te177  1  0.90543232  0.77416585  0.25520097  1
  Te  Te178  1  0.90544288  0.74115102  0.59204794  1
  Te  Te179  1  0.93457521  0.72984676  0.93280363  1
