# generated using pymatgen
data_In2Te3
_symmetry_space_group_name_H-M   'P 1'
_cell_length_a   19.00435837
_cell_length_b   19.01954416
_cell_length_c   19.02122165
_cell_angle_alpha   90.02361680
_cell_angle_beta   89.88969743
_cell_angle_gamma   90.03925586
_symmetry_Int_Tables_number   1
_chemical_formula_structural   In2Te3
_chemical_formula_sum   'In72 Te108'
_cell_volume   6875.28615004
_cell_formula_units_Z   36
loop_
 _symmetry_equiv_pos_site_id
 _symmetry_equiv_pos_as_xyz
  1  'x, y, z'
loop_
 _atom_site_type_symbol
 _atom_site_label
 _atom_site_symmetry_multiplicity
 _atom_site_fract_x
 _atom_site_fract_y
 _atom_site_fract_z
 _atom_site_occupancy
  In  In0  1  0.68984077  0.49327938  0.54260017  1
  In  In1  1  0.17142387  0.82850016  0.29419971  1
  In  In2  1  0.84124672  0.82431613  -0.02381413  1
  In  In3  1  0.67307534  0.81404696  0.81630608  1
  In  In4  1  0.65890466  0.33003810  0.69655763  1
  In  In5  1  0.83674008  0.16785985  0.36010473  1
  In  In6  1  0.51840066  0.84798338  -0.00453904  1
  In  In7  1  -0.01699934  0.01716744  0.66819173  1
  In  In8  1  0.67410601  0.14551675  0.15084968  1
  In  In9  1  0.49240875  0.32442136  0.83636010  1
  In  In10  1  0.50586235  0.16077583  0.29735082  1
  In  In11  1  0.17768430  0.00180763  0.49384012  1
  In  In12  1  0.01603363  0.48080750  0.84395444  1
  In  In13  1  0.01728185  0.00661069  0.34184397  1
  In  In14  1  0.00312692  0.17947422  0.17271223  1
  In  In15  1  0.18195318  0.48707244  0.00004881  1
  In  In16  1  0.84417047  0.82774930  0.32508661  1
  In  In17  1  0.18933545  0.85190148  0.67280818  1
  In  In18  1  0.50381011  0.66609959  0.15799207  1
  In  In19  1  0.04423715  0.28360050  -0.02251082  1
  In  In20  1  0.32437027  0.15750727  0.84728662  1
  In  In21  1  0.46236245  0.86653743  0.66754336  1
  In  In22  1  0.31771568  0.32493738  -0.01120079  1
  In  In23  1  0.49897447  0.34817813  0.18753180  1
  In  In24  1  0.14369124  0.48778732  0.68229172  1
  In  In25  1  0.48775560  0.83406641  0.34238285  1
  In  In26  1  0.32519348  0.51185709  0.15938041  1
  In  In27  1  0.13579606  0.67407435  0.83958156  1
  In  In28  1  0.34269666  0.14285691  0.14689240  1
  In  In29  1  0.52569773  0.35048027  0.49665281  1
  In  In30  1  0.83278862  0.68482811  0.15438688  1
  In  In31  1  0.83340943  0.30572541  0.83593404  1
  In  In32  1  0.62907289  0.68050525  0.33568755  1
  In  In33  1  0.33727180  0.01411165  0.34049556  1
  In  In34  1  -0.00156446  0.49273991  0.49505603  1
  In  In35  1  0.83332109  0.15795197  0.67882825  1
  In  In36  1  0.84219928  0.53862640  0.32017190  1
  In  In37  1  0.64377033  0.52418414  0.83704705  1
  In  In38  1  0.67917369  0.14709827  0.51676886  1
  In  In39  1  0.34964973  0.34512262  0.67841222  1
  In  In40  1  0.86016473  0.32622954  0.50469466  1
  In  In41  1  0.17651801  0.33816249  0.16691365  1
  In  In42  1  0.33127270  0.16631113  0.51608982  1
  In  In43  1  0.86685276  0.34098026  0.15781279  1
  In  In44  1  0.81985382  0.01326100  0.83440217  1
  In  In45  1  -0.00084150  0.83169895  0.83338061  1
  In  In46  1  0.82103946  -0.01213321  0.15985975  1
  In  In47  1  0.65842349  0.67493315  -0.00593863  1
  In  In48  1  0.69912279  0.33425416  0.33793092  1
  In  In49  1  0.32565194  0.51851310  0.48416325  1
  In  In50  1  0.15621122  0.32409509  0.51364892  1
  In  In51  1  0.51399528  0.14119126  0.66370939  1
  In  In52  1  0.17013724  0.68478338  0.48424649  1
  In  In53  1  0.49651373  0.51402447  -0.01239470  1
  In  In54  1  -0.01517635  0.00295689  -0.01321081  1
  In  In55  1  0.48419824  0.67945337  0.51654192  1
  In  In56  1  0.49872843  0.50936061  0.35295104  1
  In  In57  1  -0.01179912  0.83293784  0.49499138  1
  In  In58  1  0.68718042  0.31226406  0.01019762  1
  In  In59  1  0.81452317  0.51850631  0.65843522  1
  In  In60  1  -0.03279736  0.66195174  0.64681998  1
  In  In61  1  0.14508857  0.81225204  0.03289491  1
  In  In62  1  0.67466187  0.85339421  0.49614917  1
  In  In63  1  0.81890643  0.65163164  0.52437849  1
  In  In64  1  0.17152326  -0.00322275  0.16784434  1
  In  In65  1  0.81167701  0.48976069  -0.01295942  1
  In  In66  1  0.51658047  0.00610894  0.85812402  1
  In  In67  1  0.01782729  0.52365614  0.16148908  1
  In  In68  1  0.16131621  0.14993777  0.65516494  1
  In  In69  1  0.30675790  0.65775557  0.66908490  1
  In  In70  1  0.34817186  0.82846557  0.16225044  1
  In  In71  1  0.32439541  0.82734408  0.83493292  1
  Te  Te72  1  0.07442130  0.07785021  0.08607189  1
  Te  Te73  1  0.09033160  0.09750327  0.42860713  1
  Te  Te74  1  0.08695932  0.07291091  0.75859798  1
  Te  Te75  1  0.07201139  0.40327574  0.07361130  1
  Te  Te76  1  0.10236686  0.42474752  0.42037623  1
  Te  Te77  1  0.10122737  0.38173505  0.77584842  1
  Te  Te78  1  0.05428876  0.73072123  0.11928136  1
  Te  Te79  1  0.07552611  0.76148223  0.39573428  1
  Te  Te80  1  0.07644519  0.74918932  0.71970222  1
  Te  Te81  1  0.45589615  0.06637147  0.08738373  1
  Te  Te82  1  0.42913638  0.10218454  0.42000008  1
  Te  Te83  1  0.42065853  0.07464345  0.76190456  1
  Te  Te84  1  0.41609490  0.40832767  0.07304616  1
  Te  Te85  1  0.40968031  0.40593200  0.41779155  1
  Te  Te86  1  0.40854116  0.43690298  0.78365530  1
  Te  Te87  1  0.42341013  0.74546523  0.05967044  1
  Te  Te88  1  0.40386694  0.73480508  0.40908448  1
  Te  Te89  1  0.40775741  0.74353131  0.74216488  1
  Te  Te90  1  0.77853228  0.09070449  0.06431342  1
  Te  Te91  1  0.73205624  0.07563886  0.40127995  1
  Te  Te92  1  0.72792167  0.08052101  0.74174624  1
  Te  Te93  1  0.74782210  0.41730189  0.10369291  1
  Te  Te94  1  0.77028017  0.43984147  0.42062894  1
  Te  Te95  1  0.75314417  0.42465869  0.76750676  1
  Te  Te96  1  0.73677274  0.77222750  0.07698911  1
  Te  Te97  1  0.74689853  0.73470780  0.41539078  1
  Te  Te98  1  0.77442465  0.73944518  0.74453620  1
  Te  Te99  1  0.08523185  0.26493282  0.25637646  1
  Te  Te100  1  0.06642184  0.24172042  0.59463436  1
  Te  Te101  1  0.11117744  0.18086220  0.89190456  1
  Te  Te102  1  0.12938362  0.61783205  0.18262846  1
  Te  Te103  1  0.09083315  0.59215773  0.57895135  1
  Te  Te104  1  0.07367326  0.58084960  0.94105142  1
  Te  Te105  1  0.06337247  0.91326860  0.23281009  1
  Te  Te106  1  0.07959951  0.91779191  0.58264229  1
  Te  Te107  1  0.08842238  0.90760138  0.92712668  1
  Te  Te108  1  0.39775562  0.25167264  0.24305639  1
  Te  Te109  1  0.44572012  0.25936140  0.59234364  1
  Te  Te110  1  0.42482515  0.23221851  0.93438538  1
  Te  Te111  1  0.41712939  0.59103169  0.25613311  1
  Te  Te112  1  0.41056497  0.57308291  0.59662971  1
  Te  Te113  1  0.41226280  0.55851331  0.88021719  1
  Te  Te114  1  0.42067869  0.93187178  0.24430624  1
  Te  Te115  1  0.37697443  0.93500189  0.57362144  1
  Te  Te116  1  0.40779594  0.92150168  0.92204163  1
  Te  Te117  1  0.76892932  0.24718484  0.23634596  1
  Te  Te118  1  0.73519086  0.27495001  0.57461646  1
  Te  Te119  1  0.74615393  0.21927951  0.91506281  1
  Te  Te120  1  0.73423291  0.61026552  0.24617630  1
  Te  Te121  1  0.71260295  0.64264008  0.64327994  1
  Te  Te122  1  0.75589016  0.60259875  0.90370337  1
  Te  Te123  1  0.74398842  0.89881445  0.24710622  1
  Te  Te124  1  0.77814610  0.89647295  0.58638257  1
  Te  Te125  1  0.73708966  0.91316010  0.91371590  1
  Te  Te126  1  0.23970581  0.22954171  0.07683028  1
  Te  Te127  1  0.25160427  0.25041970  0.42959818  1
  Te  Te128  1  0.26155232  0.23809327  0.73447925  1
  Te  Te129  1  0.28369782  0.58462146  0.04000527  1
  Te  Te130  1  0.22971212  0.58355745  0.39641450  1
  Te  Te131  1  0.22928453  0.57748847  0.77058169  1
  Te  Te132  1  0.25530179  0.91239099  0.07665628  1
  Te  Te133  1  0.24869522  0.90657603  0.39989114  1
  Te  Te134  1  0.23781914  0.93285226  0.78228259  1
  Te  Te135  1  0.57792796  0.25491454  0.09883124  1
  Te  Te136  1  0.58680666  0.25274329  0.39819431  1
  Te  Te137  1  0.58615615  0.22316662  0.77197383  1
  Te  Te138  1  0.59678542  0.57117475  0.08560021  1
  Te  Te139  1  0.59406338  0.57875823  0.45044098  1
  Te  Te140  1  0.58927358  0.59062991  0.72247451  1
  Te  Te141  1  0.57127541  0.96062340  0.07671710  1
  Te  Te142  1  0.56994781  0.92484222  0.42232891  1
  Te  Te143  1  0.57978589  0.91658743  0.75351728  1
  Te  Te144  1  0.92152011  0.24054972  0.05956830  1
  Te  Te145  1  0.93779743  0.26571784  0.39841958  1
  Te  Te146  1  0.92567009  0.25638201  0.73433583  1
  Te  Te147  1  0.90210222  0.57378374  0.07764426  1
  Te  Te148  1  0.92710613  0.60633016  0.42505384  1
  Te  Te149  1  0.92596804  0.56861238  0.75509901  1
  Te  Te150  1  0.91885196  0.90304396  0.07902346  1
  Te  Te151  1  0.90729013  0.93234142  0.41641219  1
  Te  Te152  1  0.90618884  0.91705879  0.75254342  1
  Te  Te153  1  0.24410063  0.09586591  0.25442947  1
  Te  Te154  1  0.27948716  0.04931182  0.60078509  1
  Te  Te155  1  0.22936041  0.10689471  0.94701884  1
  Te  Te156  1  0.25304323  0.42772890  0.25267856  1
  Te  Te157  1  0.25463390  0.42889297  0.59445912  1
  Te  Te158  1  0.22657570  0.39216838  0.89481178  1
  Te  Te159  1  0.25041072  0.72968361  0.21630985  1
  Te  Te160  1  0.26319533  0.76576559  0.57213626  1
  Te  Te161  1  0.23505556  0.74513191  0.92750158  1
  Te  Te162  1  0.60453517  0.06363584  0.25061303  1
  Te  Te163  1  0.58688252  0.05033673  0.57546023  1
  Te  Te164  1  0.56831449  0.08037067  0.97646681  1
  Te  Te165  1  0.59635316  0.42834259  0.27057142  1
  Te  Te166  1  0.57366495  0.42794466  0.61898868  1
  Te  Te167  1  0.59408145  0.40358438  0.92440341  1
  Te  Te168  1  0.57809481  0.77504840  0.23036867  1
  Te  Te169  1  0.56267863  0.78790021  0.58173333  1
  Te  Te170  1  0.56538386  0.74019689  0.89673056  1
  Te  Te171  1  0.91223203  0.08168334  0.24991434  1
  Te  Te172  1  0.90133794  0.08769725  0.57057737  1
  Te  Te173  1  0.93381443  0.09264547  0.88336174  1
  Te  Te174  1  0.93417115  0.43716441  0.25538447  1
  Te  Te175  1  0.92199644  0.42164876  0.60300716  1
  Te  Te176  1  0.91613382  0.39813071  0.92608812  1
  Te  Te177  1  0.93540574  0.74413553  0.24235827  1
  Te  Te178  1  0.87863327  0.78180482  0.59463515  1
  Te  Te179  1  0.93201234  0.72852784  0.91274960  1
