# generated using pymatgen
data_In2Te3
_symmetry_space_group_name_H-M   'P 1'
_cell_length_a   18.78283189
_cell_length_b   18.78601318
_cell_length_c   18.77964391
_cell_angle_alpha   89.86876222
_cell_angle_beta   90.07159713
_cell_angle_gamma   90.00137243
_symmetry_Int_Tables_number   1
_chemical_formula_structural   In2Te3
_chemical_formula_sum   'In72 Te108'
_cell_volume   6626.45981654
_cell_formula_units_Z   36
loop_
 _symmetry_equiv_pos_site_id
 _symmetry_equiv_pos_as_xyz
  1  'x, y, z'
loop_
 _atom_site_type_symbol
 _atom_site_label
 _atom_site_symmetry_multiplicity
 _atom_site_fract_x
 _atom_site_fract_y
 _atom_site_fract_z
 _atom_site_occupancy
  In  In0  1  0.66223724  0.34040598  0.66097437  1
  In  In1  1  0.82623312  0.68488735  0.83945383  1
  In  In2  1  -0.00160824  0.83201705  0.49419961  1
  In  In3  1  0.32781392  0.64866089  0.32785145  1
  In  In4  1  0.65689941  0.33356887  -0.00892108  1
  In  In5  1  0.82804278  -0.01581065  0.82873811  1
  In  In6  1  0.01938694  0.49149987  0.17147340  1
  In  In7  1  0.14421431  0.81309518  0.66017887  1
  In  In8  1  0.01782057  0.64401567  -0.02178240  1
  In  In9  1  0.15658577  0.01270034  0.82596506  1
  In  In10  1  0.82847326  0.65035670  0.49877414  1
  In  In11  1  0.49840137  0.82250421  -0.00300867  1
  In  In12  1  0.83184922  0.32553152  0.17182234  1
  In  In13  1  0.85490652  -0.01282960  0.16152359  1
  In  In14  1  0.16968686  0.82043559  -0.00003168  1
  In  In15  1  -0.00947404  -0.00015683  0.32987545  1
  In  In16  1  0.36925241  0.19129850  0.48021617  1
  In  In17  1  0.18762520  0.18332924  0.01630448  1
  In  In18  1  0.66852223  0.50445833  0.83137259  1
  In  In19  1  0.49230445  0.02068611  0.49633947  1
  In  In20  1  0.81186462  0.84922453  0.65857963  1
  In  In21  1  0.65101288  0.66959487  0.32740345  1
  In  In22  1  0.66069711  0.16687176  0.15763677  1
  In  In23  1  -0.00481870  0.66016544  0.70429568  1
  In  In24  1  0.82919951  0.19463050  0.00015297  1
  In  In25  1  0.00866562  -0.01731101  0.01749718  1
  In  In26  1  0.34923953  0.82538566  0.15242628  1
  In  In27  1  0.49271135  0.15958070  0.02002842  1
  In  In28  1  0.17098826  0.18085676  0.32522561  1
  In  In29  1  0.83356469  0.34085558  0.48464944  1
  In  In30  1  0.51762050  0.84960090  0.65958904  1
  In  In31  1  0.17577364  0.65641013  0.49202773  1
  In  In32  1  0.33516934  0.82763837  0.85123449  1
  In  In33  1  0.67555445  0.82224720  0.17889268  1
  In  In34  1  0.50843615  0.83023446  0.33305276  1
  In  In35  1  0.50308526  0.35059362  0.82145133  1
  In  In36  1  0.66370110  0.49748546  0.49633392  1
  In  In37  1  0.84301755  0.52619890  0.66244522  1
  In  In38  1  0.48102157  0.00087103  0.17491348  1
  In  In39  1  0.33869839  0.15595274  0.82871094  1
  In  In40  1  0.17618834  0.01029929  0.18607231  1
  In  In41  1  0.83041783  0.49503791  -0.01201479  1
  In  In42  1  0.02479621  0.49714426  0.46886252  1
  In  In43  1  0.83598400  0.68621742  0.16583275  1
  In  In44  1  0.81842609  0.15124901  0.68674714  1
  In  In45  1  0.83488441  0.34624583  0.88035647  1
  In  In46  1  -0.01347449  -0.01845708  0.66205668  1
  In  In47  1  0.49491729  -0.01883511  0.82475248  1
  In  In48  1  0.18449554  0.35533873  0.84639068  1
  In  In49  1  0.16352922  0.34008908  0.16219683  1
  In  In50  1  0.32211404  0.34641283  0.01587974  1
  In  In51  1  0.64680443  0.00532185  0.34693405  1
  In  In52  1  0.33631400  -0.00033645  0.65583093  1
  In  In53  1  0.33592770  0.33687181  0.64603446  1
  In  In54  1  0.82574674  0.15200662  0.33611414  1
  In  In55  1  0.49773678  0.49959279  0.66369344  1
  In  In56  1  0.66402857  -0.01289626  -0.02629998  1
  In  In57  1  0.48263890  0.64623876  0.86559591  1
  In  In58  1  0.18469097  0.17009094  0.62414067  1
  In  In59  1  0.62486992  0.18984965  0.47900829  1
  In  In60  1  0.01449362  0.32564768  0.66868256  1
  In  In61  1  0.17898456  0.49044951  0.66990169  1
  In  In62  1  0.81900982  0.49721873  0.33408172  1
  In  In63  1  0.33409533  0.50614030  0.16226594  1
  In  In64  1  0.35374471  0.35217868  0.31241701  1
  In  In65  1  0.49584373  0.67516245  0.50453220  1
  In  In66  1  0.00784671  0.17087398  0.50803063  1
  In  In67  1  0.00785171  0.16941139  0.84392787  1
  In  In68  1  0.33047626  0.66120978  0.67168135  1
  In  In69  1  0.17763362  0.86084564  0.34661621  1
  In  In70  1  0.84148971  0.81269021  0.33760049  1
  In  In71  1  0.16282385  0.64426375  0.16754134  1
  Te  Te72  1  0.08786615  0.09136359  0.08935409  1
  Te  Te73  1  0.08713348  0.08213938  0.41366142  1
  Te  Te74  1  0.07871275  0.09969261  0.72384001  1
  Te  Te75  1  0.10622486  0.43682407  0.06456616  1
  Te  Te76  1  0.08727856  0.37495734  0.42168388  1
  Te  Te77  1  0.07474135  0.42589037  0.76531776  1
  Te  Te78  1  0.07503535  0.74011616  0.08767970  1
  Te  Te79  1  0.08845733  0.74784972  0.40533294  1
  Te  Te80  1  0.09334264  0.74275478  0.78162628  1
  Te  Te81  1  0.38965474  0.08540685  0.09406234  1
  Te  Te82  1  0.40645182  0.07943378  0.38850389  1
  Te  Te83  1  0.43460309  0.08845651  0.73123523  1
  Te  Te84  1  0.43135555  0.40802056  0.09922870  1
  Te  Te85  1  0.44473383  0.39668784  0.42141145  1
  Te  Te86  1  0.39343625  0.43183573  0.75216145  1
  Te  Te87  1  0.42518677  0.72249596  0.07856541  1
  Te  Te88  1  0.40143603  0.75307455  0.41290472  1
  Te  Te89  1  0.42436245  0.75640521  0.74918337  1
  Te  Te90  1  0.75350216  0.07625543  0.07694800  1
  Te  Te91  1  0.73582801  0.08776007  0.44073339  1
  Te  Te92  1  0.72392212  0.05287323  0.74537121  1
  Te  Te93  1  0.73972276  0.41883270  0.08930545  1
  Te  Te94  1  0.72094840  0.39694304  0.39742907  1
  Te  Te95  1  0.76325225  0.41622153  0.74786761  1
  Te  Te96  1  0.73789481  0.74490289  0.07096107  1
  Te  Te97  1  0.73625340  0.74975528  0.42687989  1
  Te  Te98  1  0.74044340  0.74502031  0.73456388  1
  Te  Te99  1  0.07268429  0.25488351  0.24315786  1
  Te  Te100  1  0.10814093  0.28911725  0.55002982  1
  Te  Te101  1  0.09110493  0.26362345  0.92904027  1
  Te  Te102  1  0.09527794  0.56773571  0.27457013  1
  Te  Te103  1  0.07479850  0.58640363  0.59256500  1
  Te  Te104  1  0.11575258  0.59609256  0.87790878  1
  Te  Te105  1  0.07508755  0.90908335  0.24190113  1
  Te  Te106  1  0.09434415  0.92668909  0.56884739  1
  Te  Te107  1  0.08113720  0.90841041  0.90587556  1
  Te  Te108  1  0.45082615  0.25239519  0.26047562  1
  Te  Te109  1  0.43567278  0.23726268  0.60417306  1
  Te  Te110  1  0.41172125  0.25755335  0.91684207  1
  Te  Te111  1  0.43384644  0.56888438  0.25768104  1
  Te  Te112  1  0.40198399  0.57258076  0.56936993  1
  Te  Te113  1  0.38658471  0.56455721  0.93996367  1
  Te  Te114  1  0.39784642  0.91352237  0.26847859  1
  Te  Te115  1  0.41258620  0.90535701  0.56463124  1
  Te  Te116  1  0.40723279  0.93056268  0.93855824  1
  Te  Te117  1  0.73309150  0.24989757  0.26338466  1
  Te  Te118  1  0.75486419  0.24829979  0.57793678  1
  Te  Te119  1  0.72772364  0.23564260  0.89494162  1
  Te  Te120  1  0.73807293  0.58287679  0.23454989  1
  Te  Te121  1  0.72361290  0.59409061  0.59747831  1
  Te  Te122  1  0.73125761  0.59706380  0.93411316  1
  Te  Te123  1  0.75160432  0.92926019  0.26248132  1
  Te  Te124  1  0.77581133  0.93024663  0.54351991  1
  Te  Te125  1  0.76104602  0.89025691  0.92303163  1
  Te  Te126  1  0.27752907  0.24451476  0.12192398  1
  Te  Te127  1  0.26228667  0.27133264  0.40981510  1
  Te  Te128  1  0.23962042  0.24593316  0.75163240  1
  Te  Te129  1  0.26316548  0.59888908  0.06605352  1
  Te  Te130  1  0.25779101  0.55541070  0.42200955  1
  Te  Te131  1  0.22730091  0.59853757  0.76458365  1
  Te  Te132  1  0.24964635  0.91949862  0.08440039  1
  Te  Te133  1  0.24432281  0.93954145  0.44911259  1
  Te  Te134  1  0.24722390  0.91414909  0.74794934  1
  Te  Te135  1  0.56551988  0.27000152  0.09716188  1
  Te  Te136  1  0.53415927  0.27612556  0.38611859  1
  Te  Te137  1  0.58644320  0.25181668  0.75141274  1
  Te  Te138  1  0.53846456  0.52971259  0.13051456  1
  Te  Te139  1  0.56476649  0.57455733  0.40938525  1
  Te  Te140  1  0.57661425  0.59510538  0.74947588  1
  Te  Te141  1  0.58580599  0.92351878  0.09520908  1
  Te  Te142  1  0.58483212  0.90424110  0.44047961  1
  Te  Te143  1  0.61039481  0.92049914  0.75265899  1
  Te  Te144  1  0.93113158  0.26122327  0.08141237  1
  Te  Te145  1  0.92411023  0.24837457  0.40486413  1
  Te  Te146  1  0.90995335  0.25502649  0.75911625  1
  Te  Te147  1  0.91725440  0.57724878  0.08971516  1
  Te  Te148  1  0.92495819  0.58994193  0.39781235  1
  Te  Te149  1  0.91309847  0.56490536  0.79063020  1
  Te  Te150  1  0.91118949  0.88526214  0.07257503  1
  Te  Te151  1  0.89492397  0.92996003  0.43061344  1
  Te  Te152  1  0.92379673  0.88554092  0.75857722  1
  Te  Te153  1  0.27328855  0.08605416  0.26956891  1
  Te  Te154  1  0.25938354  0.06835535  0.54107851  1
  Te  Te155  1  0.25206974  0.07648649  0.92628655  1
  Te  Te156  1  0.23664876  0.43539695  0.25648712  1
  Te  Te157  1  0.25917978  0.43019683  0.56041936  1
  Te  Te158  1  0.27868274  0.45149443  0.91540042  1
  Te  Te159  1  0.24515929  0.75505876  0.24696063  1
  Te  Te160  1  0.25672538  0.75619092  0.57519702  1
  Te  Te161  1  0.26908158  0.72697918  0.93838145  1
  Te  Te162  1  0.56601308  0.09865874  0.25773989  1
  Te  Te163  1  0.58906928  0.09123721  0.58303021  1
  Te  Te164  1  0.57069838  0.08895685  0.91069143  1
  Te  Te165  1  0.62649434  0.45461872  0.21633767  1
  Te  Te166  1  0.56112542  0.40287621  0.56440848  1
  Te  Te167  1  0.56735546  0.44054745  0.92707390  1
  Te  Te168  1  0.55798826  0.73586742  0.22375275  1
  Te  Te169  1  0.59638913  0.75114581  0.58122591  1
  Te  Te170  1  0.58344055  0.74662275  0.90479051  1
  Te  Te171  1  0.92623446  0.10071418  0.23281961  1
  Te  Te172  1  0.90603767  0.08263094  0.58099825  1
  Te  Te173  1  0.91585106  0.07711077  0.92238892  1
  Te  Te174  1  0.92156322  0.41109095  0.26133968  1
  Te  Te175  1  0.92197966  0.42419674  0.58009147  1
  Te  Te176  1  0.94814864  0.41363941  0.94705509  1
  Te  Te177  1  0.93973293  0.74849216  0.25066409  1
  Te  Te178  1  0.92001077  0.73717306  0.58632660  1
  Te  Te179  1  0.92347820  0.74837076  0.93172408  1
