# generated using pymatgen
data_In2Te3
_symmetry_space_group_name_H-M   'P 1'
_cell_length_a   19.02130178
_cell_length_b   19.03774777
_cell_length_c   18.98191445
_cell_angle_alpha   90.20674993
_cell_angle_beta   90.05894444
_cell_angle_gamma   89.96185925
_symmetry_Int_Tables_number   1
_chemical_formula_structural   In2Te3
_chemical_formula_sum   'In72 Te108'
_cell_volume   6873.73308204
_cell_formula_units_Z   36
loop_
 _symmetry_equiv_pos_site_id
 _symmetry_equiv_pos_as_xyz
  1  'x, y, z'
loop_
 _atom_site_type_symbol
 _atom_site_label
 _atom_site_symmetry_multiplicity
 _atom_site_fract_x
 _atom_site_fract_y
 _atom_site_fract_z
 _atom_site_occupancy
  In  In0  1  0.84218600  0.66843287  0.51126954  1
  In  In1  1  0.47494465  0.35525096  0.47604791  1
  In  In2  1  0.84365536  0.84013729  -0.02309465  1
  In  In3  1  0.62401224  -0.01403405  0.34150626  1
  In  In4  1  0.00586731  0.14814597  0.47695549  1
  In  In5  1  0.49609403  0.68395779  0.83006079  1
  In  In6  1  0.50584381  -0.01655617  0.80815376  1
  In  In7  1  0.50131652  0.15930699  -0.00499100  1
  In  In8  1  0.50913220  0.15706577  0.68819808  1
  In  In9  1  0.17991750  0.00158963  0.20661170  1
  In  In10  1  -0.01585825  0.30295980  -0.01557851  1
  In  In11  1  0.19700108  0.82031460  0.00162211  1
  In  In12  1  0.66765938  0.83629651  0.84046209  1
  In  In13  1  -0.03529871  -0.01590403  0.65141900  1
  In  In14  1  0.00352046  0.17797422  0.18320931  1
  In  In15  1  0.17022457  0.46091902  -0.00299576  1
  In  In16  1  0.64573660  0.18222494  0.49957765  1
  In  In17  1  0.47115482  0.52339026  0.32427081  1
  In  In18  1  0.66863795  0.46824421  0.85928809  1
  In  In19  1  0.46660504  0.32048737  0.81408864  1
  In  In20  1  0.18799106  0.29420072  0.50349460  1
  In  In21  1  0.03468200  0.66779024  0.64314278  1
  In  In22  1  0.64428407  0.84971964  0.17563981  1
  In  In23  1  -0.00793030  0.84860031  0.81571470  1
  In  In24  1  0.65443459  0.35808934  0.34562394  1
  In  In25  1  0.51476510  0.55567903  0.64933654  1
  In  In26  1  0.36339202  0.52646444  0.82077126  1
  In  In27  1  0.34329833  0.33956656  -0.00277228  1
  In  In28  1  0.03377644  0.84623650  0.15890430  1
  In  In29  1  0.46505405  0.31191869  0.20468056  1
  In  In30  1  0.64935708  0.53809125  0.48371897  1
  In  In31  1  0.36212621  -0.00572496  0.33203517  1
  In  In32  1  0.18723668  0.65097866  0.85936786  1
  In  In33  1  0.00210942  0.51225796  0.16264616  1
  In  In34  1  0.80538994  0.34803408  0.48656705  1
  In  In35  1  0.83129246  0.15382049  0.32174303  1
  In  In36  1  0.79721048  0.11313124  0.69822738  1
  In  In37  1  0.65556262  0.15782042  0.16110528  1
  In  In38  1  0.01648083  0.16931603  0.82346960  1
  In  In39  1  0.15889770  0.82705543  0.65089399  1
  In  In40  1  0.85251240  0.64225270  0.83371179  1
  In  In41  1  0.32900843  0.68563905  0.65252937  1
  In  In42  1  0.25207347  0.10201173  0.47963091  1
  In  In43  1  0.78252047  0.14622997  -0.04074704  1
  In  In44  1  0.17868602  -0.01780740  0.80888454  1
  In  In45  1  0.01134643  0.33380514  0.64692447  1
  In  In46  1  -0.01010394  0.82459268  0.49281587  1
  In  In47  1  0.00825834  0.49476822  0.49004290  1
  In  In48  1  0.82852495  0.35505307  0.16950440  1
  In  In49  1  0.31400577  0.27731461  0.65607263  1
  In  In50  1  0.30474085  0.65409923  0.34552690  1
  In  In51  1  0.03646537  0.67908293  0.33407752  1
  In  In52  1  0.83124580  0.82452163  0.32930511  1
  In  In53  1  0.52370531  0.51739123  0.01119747  1
  In  In54  1  0.32054417  0.50151737  0.18082489  1
  In  In55  1  0.84229698  0.47090251  0.02542671  1
  In  In56  1  0.17902034  0.33420338  0.18501430  1
  In  In57  1  0.48532064  -0.01093533  0.16908389  1
  In  In58  1  0.15387903  0.18112115  -0.01555813  1
  In  In59  1  0.48459784  -0.02832406  0.53556474  1
  In  In60  1  0.65914636  0.34845191  0.67396526  1
  In  In61  1  0.79518720  -0.02278571  0.51449844  1
  In  In62  1  0.65231696  0.68742580  0.66011481  1
  In  In63  1  0.00059946  0.00360351  0.00749647  1
  In  In64  1  0.18220613  0.66923364  0.16601832  1
  In  In65  1  0.33339299  -0.01422977  -0.00854532  1
  In  In66  1  0.82658137  0.31065159  0.83302317  1
  In  In67  1  0.02998502  0.49161555  0.80451383  1
  In  In68  1  0.66619214  0.67890984  0.00748559  1
  In  In69  1  0.01380301  0.32935934  0.32116457  1
  In  In70  1  0.47139713  0.68992392  0.48421335  1
  In  In71  1  0.80566442  0.65651763  0.18738353  1
  Te  Te72  1  0.09590225  0.08850197  0.09080040  1
  Te  Te73  1  0.11723845  0.07902712  0.41527555  1
  Te  Te74  1  0.06963040  0.05818746  0.73641264  1
  Te  Te75  1  0.06519221  0.38881439  0.09102873  1
  Te  Te76  1  0.10086707  0.39576604  0.42438043  1
  Te  Te77  1  0.11483766  0.41502699  0.71297272  1
  Te  Te78  1  0.08706716  0.73680410  0.07070578  1
  Te  Te79  1  0.10926768  0.76529357  0.42909850  1
  Te  Te80  1  0.09599506  0.74142371  0.76895417  1
  Te  Te81  1  0.40428479  0.08479410  0.08211400  1
  Te  Te82  1  0.42745531  0.07263238  0.44392786  1
  Te  Te83  1  0.40202637  0.07071987  0.74252038  1
  Te  Te84  1  0.42173407  0.42472832  0.09490290  1
  Te  Te85  1  0.37868860  0.43168990  0.39518868  1
  Te  Te86  1  0.44494224  0.44218059  0.72595058  1
  Te  Te87  1  0.33477653  0.77980781  0.03751930  1
  Te  Te88  1  0.39518532  0.76832649  0.38515440  1
  Te  Te89  1  0.44144837  0.76492274  0.71486639  1
  Te  Te90  1  0.75259949  0.08079456  0.08660339  1
  Te  Te91  1  0.72935875  0.08669189  0.41278774  1
  Te  Te92  1  0.72742310  0.09107817  0.82553578  1
  Te  Te93  1  0.72251308  0.42727813  0.09697650  1
  Te  Te94  1  0.75659758  0.46245294  0.39571621  1
  Te  Te95  1  0.76530167  0.42446652  0.75066407  1
  Te  Te96  1  0.76474478  0.76617610  0.08345598  1
  Te  Te97  1  0.75420522  0.74887276  0.42703284  1
  Te  Te98  1  0.75362201  0.73341201  0.76482116  1
  Te  Te99  1  0.11490099  0.22821240  0.27293216  1
  Te  Te100  1  0.08529470  0.21694846  0.58633703  1
  Te  Te101  1  0.09877682  0.28094693  0.88612424  1
  Te  Te102  1  0.10570355  0.56931660  0.25548991  1
  Te  Te103  1  0.11603282  0.57647123  0.55718492  1
  Te  Te104  1  0.08262281  0.56364968  0.92696467  1
  Te  Te105  1  0.07794360  0.92325680  0.27426018  1
  Te  Te106  1  0.07720438  0.92656354  0.57011399  1
  Te  Te107  1  0.08502581  0.91355671  0.91917117  1
  Te  Te108  1  0.36554784  0.23322849  0.27724715  1
  Te  Te109  1  0.44916572  0.26071579  0.59365968  1
  Te  Te110  1  0.39483644  0.22763676  0.90841873  1
  Te  Te111  1  0.40355805  0.61757006  0.22724356  1
  Te  Te112  1  0.39935513  0.57900487  0.55798081  1
  Te  Te113  1  0.42227276  0.60185228  0.93927779  1
  Te  Te114  1  0.43693800  0.88547556  0.26379353  1
  Te  Te115  1  0.40219018  0.88333212  0.62174814  1
  Te  Te116  1  0.41260751  0.90933651  0.89527516  1
  Te  Te117  1  0.74248419  0.26184963  0.26179720  1
  Te  Te118  1  0.74703111  0.25238738  0.58973196  1
  Te  Te119  1  0.73495670  0.28356215  0.94242161  1
  Te  Te120  1  0.76148985  0.53416579  0.24919707  1
  Te  Te121  1  0.74280860  0.58511202  0.59293212  1
  Te  Te122  1  0.75134910  0.57627982  0.93132935  1
  Te  Te123  1  0.73952924  0.92861155  0.26229141  1
  Te  Te124  1  0.74621208  0.94091730  0.64879539  1
  Te  Te125  1  0.74937178  0.93312848  0.91642928  1
  Te  Te126  1  0.25025986  0.25288766  0.07852675  1
  Te  Te127  1  0.29819388  0.23492346  0.42022065  1
  Te  Te128  1  0.22720741  0.19118117  0.73328164  1
  Te  Te129  1  0.24788023  0.56854925  0.06710523  1
  Te  Te130  1  0.23967157  0.59312524  0.46191900  1
  Te  Te131  1  0.25164229  0.58578018  0.73801541  1
  Te  Te132  1  0.25737047  0.91485659  0.10996021  1
  Te  Te133  1  0.28544262  0.95975960  0.45416550  1
  Te  Te134  1  0.26718474  0.90401027  0.71922537  1
  Te  Te135  1  0.56036230  0.25522074  0.09779046  1
  Te  Te136  1  0.55863988  0.25326443  0.39893962  1
  Te  Te137  1  0.59523758  0.25284960  0.77017902  1
  Te  Te138  1  0.59082628  0.60504903  0.11439941  1
  Te  Te139  1  0.57181587  0.61778027  0.38586814  1
  Te  Te140  1  0.59599130  0.58057499  0.77681731  1
  Te  Te141  1  0.57561915  0.92553902  0.07371839  1
  Te  Te142  1  0.58583613  0.89661066  0.45192045  1
  Te  Te143  1  0.61026005  0.91335728  0.72507378  1
  Te  Te144  1  0.90029889  0.24240121  0.09367790  1
  Te  Te145  1  0.91063305  0.25937830  0.41420452  1
  Te  Te146  1  0.91633037  0.24023297  0.73382057  1
  Te  Te147  1  0.90658108  0.59438391  0.08272408  1
  Te  Te148  1  0.93242028  0.59875734  0.41180991  1
  Te  Te149  1  0.93765249  0.57994683  0.72472626  1
  Te  Te150  1  0.91613198  0.91504457  0.09287160  1
  Te  Te151  1  0.90164458  0.92502360  0.42131716  1
  Te  Te152  1  0.87760953  0.91657827  0.75138679  1
  Te  Te153  1  0.28339391  0.09643916  0.25327374  1
  Te  Te154  1  0.29286086  0.10734458  0.62982841  1
  Te  Te155  1  0.23714733  0.07735608  0.91171503  1
  Te  Te156  1  0.25481712  0.41660622  0.28156654  1
  Te  Te157  1  0.25478469  0.39331269  0.59050880  1
  Te  Te158  1  0.27293396  0.42225042  0.89196061  1
  Te  Te159  1  0.23559878  0.75923789  0.26758062  1
  Te  Te160  1  0.23695862  0.74590173  0.55179088  1
  Te  Te161  1  0.28774046  0.75806976  0.89234430  1
  Te  Te162  1  0.55879896  0.09217041  0.25551114  1
  Te  Te163  1  0.58932460  0.07688245  0.58953180  1
  Te  Te164  1  0.58014987  0.07904646  0.89928036  1
  Te  Te165  1  0.55993456  0.42319166  0.24966005  1
  Te  Te166  1  0.59113847  0.41916853  0.55701459  1
  Te  Te167  1  0.55002687  0.39961036  0.91981631  1
  Te  Te168  1  0.62406400  0.71418506  0.22172787  1
  Te  Te169  1  0.58340201  0.76248156  0.55388016  1
  Te  Te170  1  0.56839364  0.76718486  0.93443056  1
  Te  Te171  1  0.93398446  0.07388865  0.25763094  1
  Te  Te172  1  0.89280630  0.08909983  0.56740570  1
  Te  Te173  1  0.92471313  0.09253722  0.91445577  1
  Te  Te174  1  0.92110792  0.43229268  0.26251855  1
  Te  Te175  1  0.90812972  0.41930079  0.57448700  1
  Te  Te176  1  0.92579076  0.41807586  0.90357436  1
  Te  Te177  1  0.93055530  0.74448890  0.24522435  1
  Te  Te178  1  0.91745218  0.75871648  0.60745800  1
  Te  Te179  1  0.93691519  0.74176661  0.91041919  1
