# generated using pymatgen
data_In2Te3
_symmetry_space_group_name_H-M   'P 1'
_cell_length_a   18.97231720
_cell_length_b   19.00116023
_cell_length_c   19.03452843
_cell_angle_alpha   90.44135033
_cell_angle_beta   89.74343849
_cell_angle_gamma   89.93502373
_symmetry_Int_Tables_number   1
_chemical_formula_structural   In2Te3
_chemical_formula_sum   'In72 Te108'
_cell_volume   6861.59505064
_cell_formula_units_Z   36
loop_
 _symmetry_equiv_pos_site_id
 _symmetry_equiv_pos_as_xyz
  1  'x, y, z'
loop_
 _atom_site_type_symbol
 _atom_site_label
 _atom_site_symmetry_multiplicity
 _atom_site_fract_x
 _atom_site_fract_y
 _atom_site_fract_z
 _atom_site_occupancy
  In  In0  1  0.50639891  0.83316499  0.36040650  1
  In  In1  1  0.31926336  0.80862363  0.84007836  1
  In  In2  1  -0.00342545  0.34553516  -0.01350846  1
  In  In3  1  0.15819231  0.66384649  0.85263086  1
  In  In4  1  0.68777709  0.33122101  0.02150707  1
  In  In5  1  -0.00312967  0.83639917  0.83868563  1
  In  In6  1  0.85392371  0.82434801  0.33514410  1
  In  In7  1  0.48222036  0.16016721  0.34291175  1
  In  In8  1  0.36143903  0.38457055  0.36665489  1
  In  In9  1  0.84104396  0.16373799  -0.00963010  1
  In  In10  1  0.82946535  0.65238045  0.81678190  1
  In  In11  1  0.86831425  0.48937351  0.65342232  1
  In  In12  1  0.02060199  0.49501213  0.47773170  1
  In  In13  1  0.47125790  0.67355928  0.49615505  1
  In  In14  1  0.02485243  0.00444752  0.00622496  1
  In  In15  1  0.00938753  0.01436575  0.32179462  1
  In  In16  1  0.15226159  0.84529014  0.65357887  1
  In  In17  1  0.30804634  0.69378258  0.65619192  1
  In  In18  1  0.31359437  0.64566794  0.35226740  1
  In  In19  1  0.65158320  0.36428128  0.63994421  1
  In  In20  1  0.60850567  0.59169082  0.59416968  1
  In  In21  1  0.69138302  0.50114127  0.15899196  1
  In  In22  1  0.01892942  0.18797479  0.83507623  1
  In  In23  1  0.65657055  0.19122495  0.86565812  1
  In  In24  1  0.81690019  0.49457655  0.33046265  1
  In  In25  1  0.84937926  0.32720542  0.17145342  1
  In  In26  1  0.84358194  0.33783136  0.50438084  1
  In  In27  1  0.33970183  -0.02741702  0.35097036  1
  In  In28  1  0.66333455  0.00419407  0.67242665  1
  In  In29  1  0.30973349  0.52499891  0.15449356  1
  In  In30  1  0.64984547  0.14957196  0.50059709  1
  In  In31  1  0.32694062  0.80478922  0.19920102  1
  In  In32  1  0.68103647  -0.04416863  0.35871018  1
  In  In33  1  0.01200835  0.65982943  -0.01736488  1
  In  In34  1  0.71259676  0.15339909  0.17773847  1
  In  In35  1  0.66136231  0.50301038  0.80448185  1
  In  In36  1  0.65580098  0.81354741  0.17981703  1
  In  In37  1  0.15962766  -0.00172942  0.17849567  1
  In  In38  1  0.03029866  0.68956912  0.35619115  1
  In  In39  1  0.13961046  0.49036341  0.68373298  1
  In  In40  1  0.49319809  0.34998159  0.82187159  1
  In  In41  1  0.20392895  0.18521846  0.33659747  1
  In  In42  1  0.48611564  0.19612447  -0.00473870  1
  In  In43  1  0.46563114  0.84202878  0.63736305  1
  In  In44  1  0.47555797  0.81483964  0.00228405  1
  In  In45  1  0.48883291  0.51593094  -0.02976337  1
  In  In46  1  0.49610233  0.36174958  0.14944392  1
  In  In47  1  0.30578428  -0.01870358  -0.01308322  1
  In  In48  1  0.01718603  0.30726298  0.33994111  1
  In  In49  1  0.46840235  0.17595261  0.68866201  1
  In  In50  1  0.49667013  0.67343991  0.17621499  1
  In  In51  1  0.02970849  0.56824421  0.16098635  1
  In  In52  1  0.16366433  0.01641999  0.82238503  1
  In  In53  1  0.63649736  -0.00279004  -0.04506440  1
  In  In54  1  0.83044371  0.00432532  0.50285900  1
  In  In55  1  0.84591220  0.82513503  0.66892819  1
  In  In56  1  0.01277338  0.16798079  0.51161890  1
  In  In57  1  0.22219715  -0.02717487  0.52215702  1
  In  In58  1  0.17264567  0.34845124  0.15164546  1
  In  In59  1  0.88217364  -0.02324823  0.16891280  1
  In  In60  1  0.51519655  0.01373707  0.15957880  1
  In  In61  1  0.82145710  0.68055636  0.49806980  1
  In  In62  1  0.83532837  0.18288927  0.69135171  1
  In  In63  1  0.17006851  0.31227225  0.50342348  1
  In  In64  1  -0.01824835  0.65973377  0.64758038  1
  In  In65  1  0.33095177  0.18816025  0.15894337  1
  In  In66  1  0.30610510  0.31261157  0.68724574  1
  In  In67  1  0.63943205  0.82985502  0.82406417  1
  In  In68  1  0.30418370  0.46829008  0.84360357  1
  In  In69  1  0.67654214  0.67461638  -0.00189878  1
  In  In70  1  0.63814003  0.34684704  0.35320801  1
  In  In71  1  0.83092131  -0.02795769  0.82964872  1
  Te  Te72  1  0.10880920  0.09466875  0.08286670  1
  Te  Te73  1  0.10248815  0.09880203  0.40849137  1
  Te  Te74  1  0.09371213  0.10967972  0.73190951  1
  Te  Te75  1  0.05570994  0.42746301  0.10091434  1
  Te  Te76  1  0.11492580  0.40633788  0.39878679  1
  Te  Te77  1  0.09323888  0.38449108  0.78015736  1
  Te  Te78  1  0.12286083  0.70672989  0.07233127  1
  Te  Te79  1  0.12456970  0.77352809  0.43089892  1
  Te  Te80  1  0.07329448  0.74148991  0.74567757  1
  Te  Te81  1  0.41326395  0.08139513  0.07158077  1
  Te  Te82  1  0.40816957  0.07244152  0.43268683  1
  Te  Te83  1  0.35887587  0.09493792  0.74796328  1
  Te  Te84  1  0.39882475  0.43429014  0.06294507  1
  Te  Te85  1  0.46836261  0.45918178  0.43748425  1
  Te  Te86  1  0.40279284  0.42886988  0.73499705  1
  Te  Te87  1  0.38858921  0.72266438  0.08337567  1
  Te  Te88  1  0.38430875  0.76811462  0.41723028  1
  Te  Te89  1  0.41901023  0.74446856  0.74483709  1
  Te  Te90  1  0.73101410  0.07732616  0.04854924  1
  Te  Te91  1  0.74848502  0.08442302  0.40503245  1
  Te  Te92  1  0.74032983  0.08765891  0.77498908  1
  Te  Te93  1  0.79351611  0.42682265  0.07331176  1
  Te  Te94  1  0.73853376  0.42457673  0.43865214  1
  Te  Te95  1  0.76007317  0.41355841  0.73297786  1
  Te  Te96  1  0.75542580  0.74110232  0.10083767  1
  Te  Te97  1  0.74313597  0.77199181  0.41470188  1
  Te  Te98  1  0.73877682  0.74671833  0.74144770  1
  Te  Te99  1  0.10503346  0.23939718  0.23674263  1
  Te  Te100  1  0.11816709  0.21749063  0.60380642  1
  Te  Te101  1  0.10204769  0.25012853  0.94062287  1
  Te  Te102  1  0.11027819  0.58676001  0.28173431  1
  Te  Te103  1  0.09240732  0.58672453  0.57397478  1
  Te  Te104  1  0.10973148  0.54816621  0.93620806  1
  Te  Te105  1  0.06552188  0.90427845  0.23907312  1
  Te  Te106  1  0.08931711  0.95546512  0.58301850  1
  Te  Te107  1  0.10248306  0.90930221  0.91629344  1
  Te  Te108  1  0.42557746  0.26842379  0.24729534  1
  Te  Te109  1  0.41819813  0.27660129  0.59767162  1
  Te  Te110  1  0.39707917  0.26913666  0.90239703  1
  Te  Te111  1  0.41202244  0.57698523  0.25429725  1
  Te  Te112  1  0.37247249  0.58582305  0.57108995  1
  Te  Te113  1  0.37689486  0.58074343  0.90469347  1
  Te  Te114  1  0.43959070  0.90895384  0.23882074  1
  Te  Te115  1  0.36178263  0.93064627  0.57852059  1
  Te  Te116  1  0.41362015  0.91226322  0.90632700  1
  Te  Te117  1  0.74279588  0.27251852  0.26403645  1
  Te  Te118  1  0.74226180  0.24368323  0.57977247  1
  Te  Te119  1  0.77569529  0.27322213  0.90915283  1
  Te  Te120  1  0.75429740  0.59688734  0.24946479  1
  Te  Te121  1  0.76428236  0.58365291  0.59707663  1
  Te  Te122  1  0.74665552  0.56831512  0.91111217  1
  Te  Te123  1  0.74502111  0.92926946  0.22535435  1
  Te  Te124  1  0.74791228  0.91104380  0.58818406  1
  Te  Te125  1  0.74169288  0.89152995  0.91928860  1
  Te  Te126  1  0.26774822  0.27694471  0.06389481  1
  Te  Te127  1  0.29523520  0.26292469  0.42961330  1
  Te  Te128  1  0.27786094  0.21859261  0.79805837  1
  Te  Te129  1  0.20323061  0.57500798  0.06168792  1
  Te  Te130  1  0.28333673  0.54657996  0.45439017  1
  Te  Te131  1  0.24005217  0.58648754  0.74777862  1
  Te  Te132  1  0.25711519  0.90540062  0.10575489  1
  Te  Te133  1  0.21352979  0.90329207  0.38761043  1
  Te  Te134  1  0.24792726  0.90778914  0.75312872  1
  Te  Te135  1  0.59002727  0.24390242  0.09712048  1
  Te  Te136  1  0.55777902  0.25278118  0.43920295  1
  Te  Te137  1  0.59765755  0.26090983  0.74526895  1
  Te  Te138  1  0.57747991  0.58287346  0.08205766  1
  Te  Te139  1  0.57759649  0.58107175  0.44361807  1
  Te  Te140  1  0.56275512  0.58053949  0.73505026  1
  Te  Te141  1  0.58101943  0.90364736  0.06866225  1
  Te  Te142  1  0.56721901  0.93539832  0.44579197  1
  Te  Te143  1  0.55615836  0.92079101  0.73877263  1
  Te  Te144  1  0.93226704  0.23775727  0.08250371  1
  Te  Te145  1  0.91128028  0.23316224  0.41804731  1
  Te  Te146  1  0.93322005  0.27484683  0.74940782  1
  Te  Te147  1  0.91726218  0.59289408  0.07317880  1
  Te  Te148  1  0.91331518  0.58354201  0.41863750  1
  Te  Te149  1  0.94342508  0.56668656  0.76256342  1
  Te  Te150  1  0.93697136  0.89916489  0.05965039  1
  Te  Te151  1  0.92852305  0.92631294  0.41775126  1
  Te  Te152  1  0.93853824  0.92702504  0.73259450  1
  Te  Te153  1  0.27972809  0.07881411  0.25254657  1
  Te  Te154  1  0.29548366  0.07230340  0.60683683  1
  Te  Te155  1  0.24372403  0.09529041  0.92066953  1
  Te  Te156  1  0.26703576  0.41744333  0.25265669  1
  Te  Te157  1  0.23580808  0.41383436  0.59398048  1
  Te  Te158  1  0.18611251  0.39557116  0.89888063  1
  Te  Te159  1  0.22530936  0.71138983  0.25156575  1
  Te  Te160  1  0.21902036  0.75233563  0.55306277  1
  Te  Te161  1  0.23101482  0.75403232  0.94549817  1
  Te  Te162  1  0.59349372  0.09642673  0.25896791  1
  Te  Te163  1  0.55824509  0.08418231  0.60016258  1
  Te  Te164  1  0.54275423  0.09492078  0.89067564  1
  Te  Te165  1  0.58312872  0.43884790  0.24676249  1
  Te  Te166  1  0.54965773  0.44434081  0.57087740  1
  Te  Te167  1  0.59189357  0.40603427  0.93050060  1
  Te  Te168  1  0.58676718  0.72887712  0.28387491  1
  Te  Te169  1  0.57078078  0.74764758  0.58270277  1
  Te  Te170  1  0.56548688  0.73113648  0.91208281  1
  Te  Te171  1  0.91905724  0.09674721  0.23960153  1
  Te  Te172  1  0.91111380  0.09129546  0.59701908  1
  Te  Te173  1  0.92296817  0.07367421  0.89843965  1
  Te  Te174  1  0.92811050  0.41035113  0.27045356  1
  Te  Te175  1  0.96275168  0.39584874  0.57703126  1
  Te  Te176  1  0.96176560  0.41528068  0.86218624  1
  Te  Te177  1  0.94653801  0.74855380  0.25136197  1
  Te  Te178  1  0.93285032  0.76851821  0.55752923  1
  Te  Te179  1  0.90321193  0.74467315  0.91124787  1
