# generated using pymatgen
data_In2Te3
_symmetry_space_group_name_H-M   'P 1'
_cell_length_a   18.97549458
_cell_length_b   18.93133640
_cell_length_c   18.97407945
_cell_angle_alpha   89.94789326
_cell_angle_beta   90.12252126
_cell_angle_gamma   90.11124718
_symmetry_Int_Tables_number   1
_chemical_formula_structural   In2Te3
_chemical_formula_sum   'In72 Te108'
_cell_volume   6816.05525135
_cell_formula_units_Z   36
loop_
 _symmetry_equiv_pos_site_id
 _symmetry_equiv_pos_as_xyz
  1  'x, y, z'
loop_
 _atom_site_type_symbol
 _atom_site_label
 _atom_site_symmetry_multiplicity
 _atom_site_fract_x
 _atom_site_fract_y
 _atom_site_fract_z
 _atom_site_occupancy
  In  In0  1  0.49375802  0.50226357  -0.00784218  1
  In  In1  1  0.66903566  0.54184941  0.52481035  1
  In  In2  1  0.33824826  0.81733989  0.49223413  1
  In  In3  1  0.67653196  0.21173790  0.15479697  1
  In  In4  1  -0.00094326  0.48285124  0.48710256  1
  In  In5  1  0.33898093  0.17348944  0.17288442  1
  In  In6  1  0.35496690  0.34309620  0.67391567  1
  In  In7  1  0.47193536  0.63908747  0.16709318  1
  In  In8  1  0.68301757  0.33222081  0.69638233  1
  In  In9  1  0.81660152  0.50721135  0.34485100  1
  In  In10  1  0.34302873  0.84206526  0.81850913  1
  In  In11  1  0.67538770  0.36382679  0.00127286  1
  In  In12  1  0.00589041  0.00910451  0.32743615  1
  In  In13  1  0.48260670  0.82146695  0.33199446  1
  In  In14  1  0.51062677  0.33155930  0.49650849  1
  In  In15  1  0.16937861  0.33766510  0.81096184  1
  In  In16  1  0.85673077  -0.01714659  0.17358408  1
  In  In17  1  0.14334006  0.86129771  -0.04331118  1
  In  In18  1  0.81363475  0.34433950  0.48900461  1
  In  In19  1  0.15000924  0.15994925  0.67916858  1
  In  In20  1  0.64249752  0.00759655  0.34570663  1
  In  In21  1  0.48423293  0.16777973  -0.01828272  1
  In  In22  1  0.50376305  -0.01447104  0.84340381  1
  In  In23  1  0.84770249  0.19188788  0.01083514  1
  In  In24  1  0.33895068  -0.01208464  0.33881082  1
  In  In25  1  0.65597963  0.01747160  0.01853705  1
  In  In26  1  0.00849285  0.81084563  0.15566002  1
  In  In27  1  0.83970700  0.36649688  0.85809245  1
  In  In28  1  0.48129831  0.01215150  0.17839759  1
  In  In29  1  0.65589038  0.60542125  -0.10791968  1
  In  In30  1  0.16545599  0.31819933  0.46340531  1
  In  In31  1  0.50050625  0.82280062  0.64983873  1
  In  In32  1  0.85241016  -0.01488159  0.53207635  1
  In  In33  1  0.33928273  0.33117181  -0.01233478  1
  In  In34  1  0.65769715  0.17222879  0.53086650  1
  In  In35  1  0.84596524  0.65529883  0.14383403  1
  In  In36  1  0.17542289  0.65767394  0.48677060  1
  In  In37  1  0.15544698  0.00099301  0.14427879  1
  In  In38  1  0.51053787  0.50839244  0.68684119  1
  In  In39  1  0.48518069  0.17061432  0.33583112  1
  In  In40  1  0.62735186  0.48112730  0.19352659  1
  In  In41  1  0.14100440  0.46513442  0.01535250  1
  In  In42  1  0.66562601  0.67432695  0.35210319  1
  In  In43  1  0.15157874  0.67059533  0.82695304  1
  In  In44  1  -0.00196924  -0.02478084  0.72083052  1
  In  In45  1  -0.02427659  0.34027977  0.66127110  1
  In  In46  1  0.00375610  0.82063231  0.52622939  1
  In  In47  1  -0.04018631  0.64063541  0.69527822  1
  In  In48  1  0.00269481  0.66240271  0.31678072  1
  In  In49  1  0.00694116  0.33336225  0.33005835  1
  In  In50  1  0.33022089  0.64719197  0.00259543  1
  In  In51  1  0.69992745  0.80010295  0.83094399  1
  In  In52  1  0.17456930  -0.00730157  0.49600621  1
  In  In53  1  0.33021842  0.48091889  0.47373795  1
  In  In54  1  -0.00399294  0.13625791  0.51068920  1
  In  In55  1  0.67575326  -0.00259779  0.67428275  1
  In  In56  1  -0.01158546  0.66098469  -0.02419261  1
  In  In57  1  0.82409139  0.15083550  0.33742713  1
  In  In58  1  0.85507682  0.33479213  0.17071788  1
  In  In59  1  0.19269460  0.69748812  0.18122705  1
  In  In60  1  0.82348012  0.00529916  0.83120813  1
  In  In61  1  0.66693130  0.81270028  0.50867429  1
  In  In62  1  0.52454546  0.17528388  0.67930691  1
  In  In63  1  0.16159831  0.49377663  0.66752247  1
  In  In64  1  0.66769046  0.85869351  0.17650927  1
  In  In65  1  0.84929323  0.82091190  -0.00752037  1
  In  In66  1  0.31878364  0.00921081  0.67907769  1
  In  In67  1  0.19428303  0.22398389  0.29847233  1
  In  In68  1  0.00540073  0.16631142  0.83482994  1
  In  In69  1  0.17945988  0.16694031  -0.01168177  1
  In  In70  1  0.33451564  0.66337864  0.65163656  1
  In  In71  1  0.30924450  0.47162884  0.19170529  1
  Te  Te72  1  0.07681201  0.08757594  0.05736073  1
  Te  Te73  1  0.09974669  0.09779963  0.40809505  1
  Te  Te74  1  0.12940495  0.07217511  0.80290240  1
  Te  Te75  1  0.08080754  0.38536793  0.12262422  1
  Te  Te76  1  0.10439830  0.43573311  0.38983135  1
  Te  Te77  1  0.05697117  0.42736426  0.75465654  1
  Te  Te78  1  0.09733371  0.74249549  0.05574513  1
  Te  Te79  1  0.08027544  0.75111470  0.41430707  1
  Te  Te80  1  0.06680679  0.73541325  0.72670560  1
  Te  Te81  1  0.39765373  0.07955409  0.06971788  1
  Te  Te82  1  0.42579941  0.07030379  0.42256484  1
  Te  Te83  1  0.42801453  0.08240674  0.75441486  1
  Te  Te84  1  0.41019569  0.42058374  0.08769200  1
  Te  Te85  1  0.44309255  0.41919460  0.39740684  1
  Te  Te86  1  0.41069269  0.43870884  0.76973808  1
  Te  Te87  1  0.41216824  0.73987471  0.08097994  1
  Te  Te88  1  0.43640035  0.72573601  0.43373604  1
  Te  Te89  1  0.42639640  0.73512699  0.74916828  1
  Te  Te90  1  0.76399290  0.08898002  0.09970590  1
  Te  Te91  1  0.75284204  0.07104569  0.44666282  1
  Te  Te92  1  0.74157390  0.09947870  0.75453497  1
  Te  Te93  1  0.74787422  0.42990879  0.11513328  1
  Te  Te94  1  0.71175063  0.43047485  0.42051664  1
  Te  Te95  1  0.76815070  0.44226200  0.75021707  1
  Te  Te96  1  0.74977210  0.76209445  0.08996338  1
  Te  Te97  1  0.76518471  0.76098278  0.41339197  1
  Te  Te98  1  0.73120873  0.70279970  0.72156919  1
  Te  Te99  1  0.07302143  0.25948547  0.21791142  1
  Te  Te100  1  0.07441227  0.25727511  0.58036948  1
  Te  Te101  1  0.08319816  0.26855822  0.91294475  1
  Te  Te102  1  0.10789351  0.59463055  0.24207746  1
  Te  Te103  1  0.07658020  0.58067766  0.57706361  1
  Te  Te104  1  0.08291448  0.56315002  0.90850934  1
  Te  Te105  1  0.08375374  0.91012856  0.24372014  1
  Te  Te106  1  0.08029994  0.93225593  0.59607109  1
  Te  Te107  1  0.05475911  0.92210538  0.85556069  1
  Te  Te108  1  0.44538970  0.26427451  0.22727422  1
  Te  Te109  1  0.42522803  0.24296983  0.58470392  1
  Te  Te110  1  0.43365853  0.27260704  0.89043345  1
  Te  Te111  1  0.38294329  0.57804079  0.26662233  1
  Te  Te112  1  0.41168927  0.55623291  0.57855970  1
  Te  Te113  1  0.41373692  0.58335395  0.90001597  1
  Te  Te114  1  0.39054671  0.89723426  0.22713761  1
  Te  Te115  1  0.40278282  0.91775127  0.58554972  1
  Te  Te116  1  0.40571942  0.91830978  0.92753247  1
  Te  Te117  1  0.75629968  0.26885383  0.26972805  1
  Te  Te118  1  0.76819485  0.24867407  0.59782719  1
  Te  Te119  1  0.74799260  0.25868279  0.91996666  1
  Te  Te120  1  0.74347589  0.59109164  0.24159574  1
  Te  Te121  1  0.76955830  0.62734641  0.59002630  1
  Te  Te122  1  0.80271607  0.59137503  0.92785587  1
  Te  Te123  1  0.75648066  0.93142305  0.27606031  1
  Te  Te124  1  0.75820347  0.89229837  0.60429021  1
  Te  Te125  1  0.74103993  0.92167881  0.93673230  1
  Te  Te126  1  0.24956765  0.25953661  0.08573949  1
  Te  Te127  1  0.28696901  0.25271789  0.41106723  1
  Te  Te128  1  0.26349275  0.24108827  0.74453902  1
  Te  Te129  1  0.23749370  0.56319249  0.08894335  1
  Te  Te130  1  0.26855405  0.59050430  0.39415348  1
  Te  Te131  1  0.25083531  0.58222535  0.74937025  1
  Te  Te132  1  0.23621798  0.92272154  0.05115238  1
  Te  Te133  1  0.23730124  0.89098258  0.40165539  1
  Te  Te134  1  0.23810947  0.90196816  0.73611047  1
  Te  Te135  1  0.57351928  0.26717982  0.06225522  1
  Te  Te136  1  0.59910481  0.24081120  0.41112263  1
  Te  Te137  1  0.57258574  0.27557157  0.77636785  1
  Te  Te138  1  0.58584771  0.58057081  0.08697319  1
  Te  Te139  1  0.57694583  0.57671598  0.41588252  1
  Te  Te140  1  0.61361536  0.60112200  0.74454580  1
  Te  Te141  1  0.56238798  0.91981961  0.08571176  1
  Te  Te142  1  0.57006776  0.90519880  0.42549064  1
  Te  Te143  1  0.59235365  0.89348101  0.75792124  1
  Te  Te144  1  0.94482756  0.29289787  0.06028252  1
  Te  Te145  1  0.91823984  0.24470633  0.42534562  1
  Te  Te146  1  0.90599766  0.25841288  0.76679273  1
  Te  Te147  1  0.94680122  0.56535113  0.08427832  1
  Te  Te148  1  0.91568616  0.59175447  0.42107415  1
  Te  Te149  1  0.87140976  0.56712458  0.78995545  1
  Te  Te150  1  0.94103381  0.91646437  0.06836487  1
  Te  Te151  1  0.93406902  0.91741693  0.42429428  1
  Te  Te152  1  0.88484578  0.88913217  0.76233943  1
  Te  Te153  1  0.24929442  0.07917262  0.25302013  1
  Te  Te154  1  0.24495297  0.09974832  0.57705225  1
  Te  Te155  1  0.25411602  0.10075745  0.88233384  1
  Te  Te156  1  0.26567008  0.36051121  0.28098921  1
  Te  Te157  1  0.23952083  0.39970605  0.57794927  1
  Te  Te158  1  0.24518749  0.42287255  0.91174966  1
  Te  Te159  1  0.26863320  0.78981635  0.26149332  1
  Te  Te160  1  0.23474974  0.75615283  0.58613808  1
  Te  Te161  1  0.24969826  0.74986748  0.91158095  1
  Te  Te162  1  0.59693326  0.09784830  0.23138235  1
  Te  Te163  1  0.57187488  0.06128714  0.58486603  1
  Te  Te164  1  0.59322843  0.09353052  0.90542519  1
  Te  Te165  1  0.53904105  0.38856427  0.26298840  1
  Te  Te166  1  0.59339779  0.41106910  0.59741932  1
  Te  Te167  1  0.60846557  0.45563533  0.90413727  1
  Te  Te168  1  0.58068219  0.75053200  0.24007980  1
  Te  Te169  1  0.56736463  0.72090243  0.56812369  1
  Te  Te170  1  0.60205320  0.74011398  0.92061754  1
  Te  Te171  1  0.92744595  0.10320652  0.23722174  1
  Te  Te172  1  0.92414400  0.07843726  0.62803387  1
  Te  Te173  1  0.91460076  0.08566871  0.92603660  1
  Te  Te174  1  0.92214668  0.43827463  0.26030791  1
  Te  Te175  1  0.88982553  0.43736325  0.58218816  1
  Te  Te176  1  0.88235393  0.46503176  0.96187970  1
  Te  Te177  1  0.90274784  0.75398050  0.24668923  1
  Te  Te178  1  0.90209432  0.73105870  0.58908256  1
  Te  Te179  1  0.92351268  0.75716475  0.88310347  1
