# generated using pymatgen
data_In2Te3
_symmetry_space_group_name_H-M   'P 1'
_cell_length_a   18.77109401
_cell_length_b   18.77254914
_cell_length_c   18.77198751
_cell_angle_alpha   90.04018007
_cell_angle_beta   89.98627669
_cell_angle_gamma   89.98534666
_symmetry_Int_Tables_number   1
_chemical_formula_structural   In2Te3
_chemical_formula_sum   'In72 Te108'
_cell_volume   6614.89504462
_cell_formula_units_Z   36
loop_
 _symmetry_equiv_pos_site_id
 _symmetry_equiv_pos_as_xyz
  1  'x, y, z'
loop_
 _atom_site_type_symbol
 _atom_site_label
 _atom_site_symmetry_multiplicity
 _atom_site_fract_x
 _atom_site_fract_y
 _atom_site_fract_z
 _atom_site_occupancy
  In  In0  1  0.65930395  0.01397245  0.32247663  1
  In  In1  1  0.80995873  0.18367888  0.32211725  1
  In  In2  1  0.50799541  0.81411668  0.68803948  1
  In  In3  1  0.32967248  0.49073707  0.85263272  1
  In  In4  1  0.81099022  -0.03832394  0.49868919  1
  In  In5  1  0.70257937  0.65527489  0.31900167  1
  In  In6  1  0.48028455  0.66627879  0.83126361  1
  In  In7  1  0.16501459  0.02324882  0.84323289  1
  In  In8  1  0.85029223  0.01323880  0.82415493  1
  In  In9  1  0.33682698  0.66817065  -0.02029616  1
  In  In10  1  0.32223946  0.35496353  0.32984961  1
  In  In11  1  0.67425255  0.65451055  0.64964344  1
  In  In12  1  0.82007474  0.82527566  0.01331948  1
  In  In13  1  0.50160623  0.33086796  0.15227561  1
  In  In14  1  -0.00724092  0.66497629  0.02396074  1
  In  In15  1  0.49552491  0.85502941  0.01066583  1
  In  In16  1  -0.00641515  0.33425330  0.69208452  1
  In  In17  1  0.82208613  0.81116154  0.32652818  1
  In  In18  1  0.02623673  -0.00238631  0.66814889  1
  In  In19  1  0.65642720  0.82705976  0.81689655  1
  In  In20  1  0.34980995  0.19783466  0.86767216  1
  In  In21  1  0.15827941  0.16619869  0.32431243  1
  In  In22  1  0.30500598  0.83139226  0.48892412  1
  In  In23  1  0.50497914  -0.01124225  0.84173774  1
  In  In24  1  0.49109956  0.51079091  0.66255481  1
  In  In25  1  0.49501788  0.84422821  0.31712968  1
  In  In26  1  -0.01338012  -0.01877179  0.33589115  1
  In  In27  1  0.53051913  0.64717400  0.15984002  1
  In  In28  1  0.17513037  0.17970372  0.00021556  1
  In  In29  1  0.82683922  0.34737102  0.48935710  1
  In  In30  1  0.84685033  -0.00355575  0.15926375  1
  In  In31  1  0.67186601  0.66244873  0.03211468  1
  In  In32  1  0.65123424  0.00357616  -0.00076118  1
  In  In33  1  0.50277926  0.33566655  0.46613194  1
  In  In34  1  0.51005241  0.16462872  0.34482546  1
  In  In35  1  0.66385278  0.15827285  0.85510361  1
  In  In36  1  -0.01609864  0.68244328  0.62751545  1
  In  In37  1  0.32149335  0.33512556  0.68596522  1
  In  In38  1  0.14242188  0.34297004  0.50842021  1
  In  In39  1  -0.01230054  0.82758955  0.17051664  1
  In  In40  1  0.18167920  0.81567715  0.66820761  1
  In  In41  1  0.50082589  0.66248331  0.51467920  1
  In  In42  1  -0.01454387  0.50372942  0.47349235  1
  In  In43  1  0.65957305  0.46290342  0.85518064  1
  In  In44  1  0.84094114  0.17931052  -0.02018154  1
  In  In45  1  0.34533146  0.49130197  0.16350919  1
  In  In46  1  0.00889849  0.85674108  0.83252138  1
  In  In47  1  0.51332448  0.15666616  0.65922398  1
  In  In48  1  0.33405702  -0.00441946  0.66266832  1
  In  In49  1  0.67239076  0.33214098  0.68372612  1
  In  In50  1  0.13898118  0.50741704  0.65831950  1
  In  In51  1  0.51241138  -0.00142162  0.49614028  1
  In  In52  1  0.17283367  -0.00694531  0.16699717  1
  In  In53  1  -0.00372420  0.50112532  0.83438835  1
  In  In54  1  0.49914820  0.47688010  0.32563547  1
  In  In55  1  -0.01691754  0.36284366  0.30116104  1
  In  In56  1  0.14182058  0.65536439  0.18511308  1
  In  In57  1  0.84306117  0.17703199  0.66880079  1
  In  In58  1  0.19096755  -0.01592769  0.49779890  1
  In  In59  1  0.18279789  0.67143671  0.83756191  1
  In  In60  1  0.66158839  0.18813570  0.17597661  1
  In  In61  1  0.68289148  0.50557772  0.49417630  1
  In  In62  1  0.17705137  0.47607132  0.00956622  1
  In  In63  1  -0.00003334  0.17630752  0.51682182  1
  In  In64  1  0.01246819  0.34370586  0.00571010  1
  In  In65  1  0.35160665  0.16508390  0.12540573  1
  In  In66  1  0.82574202  0.66565526  0.81620290  1
  In  In67  1  0.82001767  0.48331406  0.02780874  1
  In  In68  1  0.30499828  0.64151636  0.35974039  1
  In  In69  1  0.32184062  0.83017190  0.17855126  1
  In  In70  1  0.33391974  0.15025098  0.51000822  1
  In  In71  1  0.00956688  0.18577001  0.15267205  1
  Te  Te72  1  0.08369235  0.07934350  0.07652139  1
  Te  Te73  1  0.08012197  0.07851224  0.42465044  1
  Te  Te74  1  0.06344616  0.10065233  0.76607721  1
  Te  Te75  1  0.06850564  0.44154602  0.10277928  1
  Te  Te76  1  0.09260052  0.42682768  0.39190437  1
  Te  Te77  1  0.10134936  0.41041481  0.76995420  1
  Te  Te78  1  0.09597233  0.75985995  0.08255191  1
  Te  Te79  1  0.05669010  0.78141958  0.46021583  1
  Te  Te80  1  0.07076748  0.73412640  0.74956155  1
  Te  Te81  1  0.44522792  0.06815633  0.06668226  1
  Te  Te82  1  0.40807158  0.06707940  0.40692410  1
  Te  Te83  1  0.41346454  0.08918395  0.75407218  1
  Te  Te84  1  0.39789703  0.39492960  0.06061651  1
  Te  Te85  1  0.39630190  0.44109248  0.43372595  1
  Te  Te86  1  0.42962593  0.41284802  0.76102771  1
  Te  Te87  1  0.42443884  0.73704018  0.09093657  1
  Te  Te88  1  0.41903890  0.74720197  0.40982156  1
  Te  Te89  1  0.39082944  0.74844988  0.74871614  1
  Te  Te90  1  0.75291933  0.09102700  0.08400615  1
  Te  Te91  1  0.75276013  0.08487738  0.42073057  1
  Te  Te92  1  0.74282758  0.08656021  0.74459959  1
  Te  Te93  1  0.70773931  0.42361482  0.10512197  1
  Te  Te94  1  0.76037131  0.43376784  0.38881391  1
  Te  Te95  1  0.75732975  0.43275392  0.74874010  1
  Te  Te96  1  0.76887880  0.73487119  0.11754988  1
  Te  Te97  1  0.75513726  0.73281143  0.43640043  1
  Te  Te98  1  0.76369471  0.76803735  0.72080006  1
  Te  Te99  1  0.09776166  0.27617397  0.23805277  1
  Te  Te100  1  0.09295839  0.24492213  0.61475245  1
  Te  Te101  1  0.07501750  0.24689045  0.91348743  1
  Te  Te102  1  0.04901963  0.60950259  0.29166138  1
  Te  Te103  1  0.09206234  0.60310787  0.54518676  1
  Te  Te104  1  0.08805724  0.58435155  0.92587636  1
  Te  Te105  1  0.08926184  0.90008378  0.25948523  1
  Te  Te106  1  0.08528403  0.88672923  0.56806216  1
  Te  Te107  1  0.09890523  0.91982428  0.92861285  1
  Te  Te108  1  0.41541674  0.25611660  0.25897180  1
  Te  Te109  1  0.42020368  0.25806539  0.57766681  1
  Te  Te110  1  0.43710250  0.29276117  0.94280317  1
  Te  Te111  1  0.41668325  0.59391112  0.25384085  1
  Te  Te112  1  0.39337735  0.59426443  0.58973818  1
  Te  Te113  1  0.43824336  0.56231478  0.93430354  1
  Te  Te114  1  0.42117719  0.93117816  0.22465792  1
  Te  Te115  1  0.41966313  0.90405761  0.57637423  1
  Te  Te116  1  0.40636688  0.89713455  0.90126259  1
  Te  Te117  1  0.76418637  0.28457116  0.22607581  1
  Te  Te118  1  0.74595228  0.25081370  0.57576917  1
  Te  Te119  1  0.74313009  0.26949305  0.91387099  1
  Te  Te120  1  0.75818710  0.54677624  0.23556314  1
  Te  Te121  1  0.77995065  0.58306563  0.57438998  1
  Te  Te122  1  0.75303503  0.58188904  0.92104788  1
  Te  Te123  1  0.74801213  0.91631999  0.24248279  1
  Te  Te124  1  0.74631647  0.88971863  0.60626281  1
  Te  Te125  1  0.75170742  0.91721994  0.90824928  1
  Te  Te126  1  0.24818164  0.26632788  0.09619285  1
  Te  Te127  1  0.24670827  0.24970116  0.42779115  1
  Te  Te128  1  0.25170670  0.23124011  0.76216580  1
  Te  Te129  1  0.25073544  0.59443522  0.08515839  1
  Te  Te130  1  0.19946297  0.57288406  0.43255935  1
  Te  Te131  1  0.25077777  0.56988248  0.74791180  1
  Te  Te132  1  0.26034314  0.91629794  0.07549377  1
  Te  Te133  1  0.25837682  0.92276050  0.38210788  1
  Te  Te134  1  0.24651508  0.91764361  0.75962773  1
  Te  Te135  1  0.59533209  0.25681901  0.05912121  1
  Te  Te136  1  0.60881245  0.26146248  0.39631030  1
  Te  Te137  1  0.57464916  0.24756896  0.76472898  1
  Te  Te138  1  0.59191959  0.54090623  0.07362116  1
  Te  Te139  1  0.57838122  0.58375731  0.40714422  1
  Te  Te140  1  0.59261164  0.58412719  0.75941995  1
  Te  Te141  1  0.60675232  0.90125316  0.09510449  1
  Te  Te142  1  0.60017654  0.90542435  0.41223714  1
  Te  Te143  1  0.59240288  0.93593995  0.72890356  1
  Te  Te144  1  0.90111904  0.26969081  0.08922617  1
  Te  Te145  1  0.93008220  0.25555278  0.40671596  1
  Te  Te146  1  0.91057957  0.24826374  0.77851196  1
  Te  Te147  1  0.91122317  0.57317493  0.10910893  1
  Te  Te148  1  0.92214588  0.60507319  0.38525381  1
  Te  Te149  1  0.91917015  0.58084204  0.73012550  1
  Te  Te150  1  0.93204474  0.91985254  0.06003595  1
  Te  Te151  1  0.93188448  0.87563716  0.43230176  1
  Te  Te152  1  0.91437997  0.91085931  0.72716070  1
  Te  Te153  1  0.26100695  0.09636730  0.23839723  1
  Te  Te154  1  0.22943672  0.08989954  0.60333365  1
  Te  Te155  1  0.27542062  0.08281759  0.93442002  1
  Te  Te156  1  0.23511884  0.44203376  0.24897576  1
  Te  Te157  1  0.24687370  0.42335988  0.58546181  1
  Te  Te158  1  0.24338393  0.38661609  0.91318037  1
  Te  Te159  1  0.23346617  0.74340381  0.27168580  1
  Te  Te160  1  0.26056973  0.72479805  0.58165556  1
  Te  Te161  1  0.24499393  0.77104446  0.92623986  1
  Te  Te162  1  0.56249359  0.08181451  0.22620876  1
  Te  Te163  1  0.60461234  0.08989853  0.56594313  1
  Te  Te164  1  0.53998632  0.09851661  0.94525561  1
  Te  Te165  1  0.59798745  0.41842484  0.23085817  1
  Te  Te166  1  0.58300425  0.41800990  0.57878024  1
  Te  Te167  1  0.57653760  0.36708935  0.93317065  1
  Te  Te168  1  0.59781929  0.74646602  0.25336617  1
  Te  Te169  1  0.59725707  0.76428439  0.57384233  1
  Te  Te170  1  0.58498407  0.74400581  0.92343336  1
  Te  Te171  1  0.92422374  0.09732922  0.25201538  1
  Te  Te172  1  0.91253955  0.06652475  0.57672632  1
  Te  Te173  1  0.93536798  0.08043520  0.92394591  1
  Te  Te174  1  0.89297585  0.46604654  0.24215319  1
  Te  Te175  1  0.92283527  0.41850258  0.58445407  1
  Te  Te176  1  0.90518220  0.41533837  0.91936813  1
  Te  Te177  1  0.93135646  0.72210135  0.26566962  1
  Te  Te178  1  0.89520548  0.74715509  0.52825499  1
  Te  Te179  1  0.91680220  0.74622627  0.91148697  1
