# generated using pymatgen
data_In2Te3
_symmetry_space_group_name_H-M   'P 1'
_cell_length_a   18.93379496
_cell_length_b   18.93060129
_cell_length_c   18.95963059
_cell_angle_alpha   89.83884034
_cell_angle_beta   90.21638257
_cell_angle_gamma   89.83030457
_symmetry_Int_Tables_number   1
_chemical_formula_structural   In2Te3
_chemical_formula_sum   'In72 Te108'
_cell_volume   6795.55944542
_cell_formula_units_Z   36
loop_
 _symmetry_equiv_pos_site_id
 _symmetry_equiv_pos_as_xyz
  1  'x, y, z'
loop_
 _atom_site_type_symbol
 _atom_site_label
 _atom_site_symmetry_multiplicity
 _atom_site_fract_x
 _atom_site_fract_y
 _atom_site_fract_z
 _atom_site_occupancy
  In  In0  1  0.81474221  0.14117366  0.70346230  1
  In  In1  1  0.68239201  0.65108113  0.32749921  1
  In  In2  1  0.66905537  0.32912946  0.68880972  1
  In  In3  1  0.81845106  0.31912208  0.51476474  1
  In  In4  1  0.66927259  0.32164734  0.35099298  1
  In  In5  1  0.01014948  0.81578464  0.49738269  1
  In  In6  1  0.53583187  0.82824741  0.34801104  1
  In  In7  1  0.65064270  0.38170178  0.03155424  1
  In  In8  1  0.32299785  0.01974837  -0.00580518  1
  In  In9  1  0.01360078  0.47492665  0.45828522  1
  In  In10  1  0.16073877  0.53545080  0.66368894  1
  In  In11  1  0.51509861  0.32164179  0.53015634  1
  In  In12  1  0.51478382  0.14594564  0.65202498  1
  In  In13  1  0.63727263  0.59704483  -0.03912738  1
  In  In14  1  0.83895994  0.45912322  0.30523222  1
  In  In15  1  0.48861180  0.49322931  0.33643284  1
  In  In16  1  0.50791302  0.50123169  0.67656443  1
  In  In17  1  0.03940992  0.62821574  0.31286710  1
  In  In18  1  0.36733388  0.33770505  -0.02427900  1
  In  In19  1  0.84382477  0.65986645  0.17280974  1
  In  In20  1  0.14249024  -0.00942114  0.16950856  1
  In  In21  1  0.84568612  0.03446467  0.15158162  1
  In  In22  1  0.31248478  0.47718732  0.48732270  1
  In  In23  1  0.01730090  0.33559037  0.64464293  1
  In  In24  1  0.36986004  0.80868030  0.80374213  1
  In  In25  1  0.00213849  0.32739450  0.04149418  1
  In  In26  1  0.65946097  -0.00051468  0.34839009  1
  In  In27  1  0.33994138  0.80937336  0.17755543  1
  In  In28  1  0.17903217  0.16796589  0.63694355  1
  In  In29  1  0.32577198  -0.01452881  0.33319600  1
  In  In30  1  0.35997504  0.15473843  0.16483536  1
  In  In31  1  -0.02107837  0.66854503  0.65746671  1
  In  In32  1  0.16001118  0.17404038  0.34599390  1
  In  In33  1  0.81276808  0.49683573  0.66879195  1
  In  In34  1  -0.01157731  -0.00712101  -0.02265159  1
  In  In35  1  0.17263807  0.33492765  0.18714693  1
  In  In36  1  0.50938440  0.84385547  0.02329458  1
  In  In37  1  0.00276938  0.86894398  0.17887501  1
  In  In38  1  0.35078671  0.49608142  0.83578563  1
  In  In39  1  0.49099103  0.14744108  0.35118109  1
  In  In40  1  0.84248323  0.65331251  0.50198326  1
  In  In41  1  0.60111595  0.80614480  0.80372239  1
  In  In42  1  0.17753133  0.34719378  0.83322597  1
  In  In43  1  0.48505701  0.01990384  0.15125152  1
  In  In44  1  -0.01163777  -0.01139764  0.67081497  1
  In  In45  1  0.65947802  0.85110151  0.52071161  1
  In  In46  1  -0.01841306  0.18299766  0.14494811  1
  In  In47  1  0.33797622  0.84068131  0.51444000  1
  In  In48  1  0.31934959  0.48814684  0.16864372  1
  In  In49  1  0.85220581  0.18136531  0.33339104  1
  In  In50  1  0.16301306  0.83507671  -0.00018179  1
  In  In51  1  0.48323579  0.65829693  0.49469486  1
  In  In52  1  -0.00106484  0.51997840  0.86017927  1
  In  In53  1  0.83539415  0.20324114  -0.01002191  1
  In  In54  1  0.33382595  0.63761484  0.00823295  1
  In  In55  1  0.81546831  0.35383365  0.84039852  1
  In  In56  1  0.00603073  0.17931529  0.80399195  1
  In  In57  1  -0.01635748  0.67167556  0.00979501  1
  In  In58  1  0.79823380  0.83406982  -0.03874114  1
  In  In59  1  0.31895086  -0.00190930  0.65200374  1
  In  In60  1  0.49098694  0.33103444  0.16816956  1
  In  In61  1  0.68911958  -0.01362258  -0.03929405  1
  In  In62  1  0.17225879  0.67492707  0.83059747  1
  In  In63  1  0.30510735  0.65190589  0.32451870  1
  In  In64  1  0.85148078  0.84327499  0.35774742  1
  In  In65  1  0.68412476  0.83385310  0.18860892  1
  In  In66  1  0.19153403  0.18165251  -0.00247577  1
  In  In67  1  0.34089289  0.33866380  0.66215904  1
  In  In68  1  0.17733153  0.81780324  0.65445106  1
  In  In69  1  0.49288548  -0.00394019  0.81979202  1
  In  In70  1  0.79277501  0.67039866  0.86185171  1
  In  In71  1  0.83388936  -0.00645951  0.51457297  1
  Te  Te72  1  0.08242151  0.09174996  0.06808168  1
  Te  Te73  1  0.05272206  0.07926981  0.37460070  1
  Te  Te74  1  0.09657116  0.08293996  0.73385358  1
  Te  Te75  1  0.09666474  0.42822135  0.09717245  1
  Te  Te76  1  0.13154521  0.41066934  0.39327968  1
  Te  Te77  1  0.07539370  0.43515917  0.75517045  1
  Te  Te78  1  0.07337331  0.76125484  0.09449697  1
  Te  Te79  1  0.08899980  0.72125002  0.41606423  1
  Te  Te80  1  0.07278698  0.75075523  0.74437955  1
  Te  Te81  1  0.43805820  0.11895573  0.03628172  1
  Te  Te82  1  0.37449399  0.09154069  0.42418646  1
  Te  Te83  1  0.40096519  0.08808007  0.74251546  1
  Te  Te84  1  0.42649293  0.43973505  0.07175308  1
  Te  Te85  1  0.42356849  0.39225921  0.42826970  1
  Te  Te86  1  0.43871810  0.39600555  0.76264931  1
  Te  Te87  1  0.43094196  0.73118728  0.08647633  1
  Te  Te88  1  0.41419015  0.75078668  0.39489832  1
  Te  Te89  1  0.47013806  0.72944259  0.72124859  1
  Te  Te90  1  0.74843323  0.09561463  0.05688488  1
  Te  Te91  1  0.76137301  0.08591290  0.41712980  1
  Te  Te92  1  0.71579196  0.08317669  0.79491138  1
  Te  Te93  1  0.78710855  0.42524026  0.07016047  1
  Te  Te94  1  0.75175322  0.42420903  0.42584110  1
  Te  Te95  1  0.71637490  0.44964320  0.77481127  1
  Te  Te96  1  0.75776225  0.75153945  0.08659713  1
  Te  Te97  1  0.73921046  0.76145704  0.41681176  1
  Te  Te98  1  0.72586812  0.74442957  0.75438769  1
  Te  Te99  1  0.05647105  0.26219790  0.25549730  1
  Te  Te100  1  0.07796935  0.23940153  0.55057769  1
  Te  Te101  1  0.08053774  0.26029208  0.91389187  1
  Te  Te102  1  0.11017139  0.55263416  0.21051839  1
  Te  Te103  1  0.05972630  0.58337963  0.56267141  1
  Te  Te104  1  0.10193112  0.59574918  0.93832004  1
  Te  Te105  1  0.10883253  0.89676301  0.27871573  1
  Te  Te106  1  0.08838259  0.91655677  0.58075603  1
  Te  Te107  1  0.09461194  0.92336730  0.90496148  1
  Te  Te108  1  0.41110279  0.25154877  0.26993263  1
  Te  Te109  1  0.40336829  0.23262434  0.57695597  1
  Te  Te110  1  0.44031901  0.22466628  0.92361088  1
  Te  Te111  1  0.41390392  0.58511840  0.24282475  1
  Te  Te112  1  0.40703570  0.55813289  0.57824344  1
  Te  Te113  1  0.43168343  0.60163166  0.90242928  1
  Te  Te114  1  0.43993553  0.91236723  0.25079697  1
  Te  Te115  1  0.43070091  0.90982490  0.60741979  1
  Te  Te116  1  0.41591541  0.91087040  0.92466193  1
  Te  Te117  1  0.74208748  0.23778282  0.25462977  1
  Te  Te118  1  0.73661825  0.22551561  0.60080107  1
  Te  Te119  1  0.72407818  0.26500404  0.91446364  1
  Te  Te120  1  0.74588659  0.55612131  0.22938717  1
  Te  Te121  1  0.74201422  0.60228710  0.59442210  1
  Te  Te122  1  0.78415428  0.56681133  0.97001783  1
  Te  Te123  1  0.77526417  0.93843016  0.25731625  1
  Te  Te124  1  0.73683511  0.93772848  0.60856317  1
  Te  Te125  1  0.77475305  0.93873734  0.84432878  1
  Te  Te126  1  0.27538678  0.26746471  0.08993839  1
  Te  Te127  1  0.20108969  0.28025713  0.44027155  1
  Te  Te128  1  0.25149353  0.24980809  0.74851444  1
  Te  Te129  1  0.23317562  0.59749247  0.11075615  1
  Te  Te130  1  0.22705246  0.58236639  0.42741192  1
  Te  Te131  1  0.27062610  0.59556187  0.74771771  1
  Te  Te132  1  0.26382256  0.92107568  0.09393132  1
  Te  Te133  1  0.24146271  0.90412396  0.42097166  1
  Te  Te134  1  0.25812401  0.89912823  0.75462789  1
  Te  Te135  1  0.58571732  0.25924582  0.08403457  1
  Te  Te136  1  0.59101476  0.22548855  0.43868325  1
  Te  Te137  1  0.56516224  0.24529110  0.74904665  1
  Te  Te138  1  0.58143963  0.51787573  0.07440066  1
  Te  Te139  1  0.58729592  0.57526166  0.41775401  1
  Te  Te140  1  0.54557709  0.60796588  0.77277804  1
  Te  Te141  1  0.60754306  0.93200825  0.09710745  1
  Te  Te142  1  0.55208414  0.95061522  0.44632920  1
  Te  Te143  1  0.56166664  0.91921376  0.71319443  1
  Te  Te144  1  0.86607421  0.30087863  0.11717971  1
  Te  Te145  1  0.92452383  0.26678582  0.42833719  1
  Te  Te146  1  0.90535404  0.27515886  0.73796702  1
  Te  Te147  1  0.92507065  0.56548436  0.09368121  1
  Te  Te148  1  0.91050859  0.57695333  0.38901215  1
  Te  Te149  1  0.90286678  0.58517486  0.76179504  1
  Te  Te150  1  0.89628171  0.91201926  0.06819589  1
  Te  Te151  1  0.94586465  0.93846771  0.42512742  1
  Te  Te152  1  0.91830932  0.93200269  0.78386114  1
  Te  Te153  1  0.24103213  0.09298364  0.23649434  1
  Te  Te154  1  0.24710162  0.07331121  0.54521564  1
  Te  Te155  1  0.24521909  0.09351120  0.89454727  1
  Te  Te156  1  0.25577419  0.41478639  0.28214915  1
  Te  Te157  1  0.22612255  0.41569504  0.59740528  1
  Te  Te158  1  0.25065332  0.43317666  0.93132347  1
  Te  Te159  1  0.22694298  0.75618977  0.25228101  1
  Te  Te160  1  0.26837991  0.73012330  0.58220032  1
  Te  Te161  1  0.26743021  0.75411071  0.92155816  1
  Te  Te162  1  0.58434472  0.08769670  0.24725870  1
  Te  Te163  1  0.57348405  0.07531999  0.53884277  1
  Te  Te164  1  0.58797655  0.07743188  0.90283217  1
  Te  Te165  1  0.58745117  0.40962666  0.25771551  1
  Te  Te166  1  0.60603117  0.42666186  0.58766862  1
  Te  Te167  1  0.58525739  0.45885989  0.92100656  1
  Te  Te168  1  0.58493437  0.73132001  0.23999399  1
  Te  Te169  1  0.57536350  0.74175491  0.57564789  1
  Te  Te170  1  0.59671899  0.74838485  0.94457556  1
  Te  Te171  1  0.95143050  0.07559700  0.25630108  1
  Te  Te172  1  0.91231476  0.09749896  0.59556860  1
  Te  Te173  1  0.91755037  0.10679269  0.90515297  1
  Te  Te174  1  0.94773612  0.37599236  0.25406697  1
  Te  Te175  1  0.91558401  0.43356106  0.57715160  1
  Te  Te176  1  0.92905183  0.40472866  0.92696327  1
  Te  Te177  1  0.92627223  0.75550841  0.25949563  1
  Te  Te178  1  0.89377287  0.77173778  0.58438315  1
  Te  Te179  1  0.91595493  0.75514050  0.90267130  1
