# generated using pymatgen
data_In2Te3
_symmetry_space_group_name_H-M   'P 1'
_cell_length_a   18.88322621
_cell_length_b   18.88312777
_cell_length_c   18.89521402
_cell_angle_alpha   89.90621962
_cell_angle_beta   90.08577028
_cell_angle_gamma   90.04515808
_symmetry_Int_Tables_number   1
_chemical_formula_structural   In2Te3
_chemical_formula_sum   'In72 Te108'
_cell_volume   6737.53044186
_cell_formula_units_Z   36
loop_
 _symmetry_equiv_pos_site_id
 _symmetry_equiv_pos_as_xyz
  1  'x, y, z'
loop_
 _atom_site_type_symbol
 _atom_site_label
 _atom_site_symmetry_multiplicity
 _atom_site_fract_x
 _atom_site_fract_y
 _atom_site_fract_z
 _atom_site_occupancy
  In  In0  1  0.67438492  0.13937358  0.83064141  1
  In  In1  1  0.68688607  0.87249372  0.85937778  1
  In  In2  1  0.33962939  0.49949795  0.14507911  1
  In  In3  1  0.47876465  0.33863664  0.13072052  1
  In  In4  1  -0.00383514  0.67558102  0.34773425  1
  In  In5  1  0.67462387  0.32594561  0.66699494  1
  In  In6  1  0.14873086  0.33571271  0.14890247  1
  In  In7  1  0.52809321  0.49709271  0.33395734  1
  In  In8  1  0.63647757  0.67603733  0.01141763  1
  In  In9  1  0.01381062  -0.01713312  0.32269522  1
  In  In10  1  0.48920910  0.00745067  0.84069327  1
  In  In11  1  0.16141243  0.83853937  0.31804476  1
  In  In12  1  0.17146554  0.66690775  0.13728342  1
  In  In13  1  0.84249139  0.85398986  0.65427152  1
  In  In14  1  0.01907992  0.47723612  0.80894445  1
  In  In15  1  0.69746111  0.00904124  0.65569892  1
  In  In16  1  0.84760878  0.16255542  -0.00115567  1
  In  In17  1  0.01654977  0.82727542  0.82036934  1
  In  In18  1  0.84841349  0.35759855  0.54238874  1
  In  In19  1  0.68478335  0.33244797  0.30293515  1
  In  In20  1  0.13774257  0.47823865  0.35535972  1
  In  In21  1  0.29884649  0.00000933  0.66602198  1
  In  In22  1  0.16385483  0.04524865  0.51820718  1
  In  In23  1  0.87417464  0.49726437  0.37276657  1
  In  In24  1  0.20642238  -0.01561706  0.13308031  1
  In  In25  1  0.31788151  0.32282141  0.33057802  1
  In  In26  1  0.49571806  -0.00505069  0.49077613  1
  In  In27  1  0.65990170  0.47663825  0.82374529  1
  In  In28  1  0.45440755  0.32825600  0.81600413  1
  In  In29  1  0.83417035  0.31277946  0.14284319  1
  In  In30  1  0.65244729  0.33024142  -0.01239880  1
  In  In31  1  0.16560290  0.16119577  0.37353424  1
  In  In32  1  0.44976756  0.65631331  0.85818624  1
  In  In33  1  0.33744964  0.15679270  0.16878949  1
  In  In34  1  0.82649168  0.82543472  0.35057910  1
  In  In35  1  -0.00833465  0.00707531  -0.00256802  1
  In  In36  1  0.32724927  0.67296191  0.34294958  1
  In  In37  1  0.17650043  0.48917831  0.67515112  1
  In  In38  1  0.00759494  0.67116593  -0.00823024  1
  In  In39  1  0.17120962  0.81467722  0.66075399  1
  In  In40  1  0.00940068  0.48622190  0.16327004  1
  In  In41  1  0.35129047  -0.00553937  0.34245103  1
  In  In42  1  0.67023091  0.51801795  0.49310308  1
  In  In43  1  0.49557604  0.67556696  0.14548556  1
  In  In44  1  0.48351134  0.17166331  -0.01034742  1
  In  In45  1  0.47515049  0.32931737  0.50779464  1
  In  In46  1  0.01371304  0.34504711  0.35461335  1
  In  In47  1  0.67260783  0.54218448  0.13976938  1
  In  In48  1  0.19574984  0.67962741  0.84886143  1
  In  In49  1  0.68424237  0.19603633  0.48766528  1
  In  In50  1  0.86337614  0.31473732  0.80039649  1
  In  In51  1  0.67115151  0.67266114  0.34452833  1
  In  In52  1  0.49243086  -0.02338704  0.16360907  1
  In  In53  1  0.47768308  0.83194747  -0.00887778  1
  In  In54  1  0.01549524  0.14700006  0.15638251  1
  In  In55  1  0.83546261  0.66593274  0.82872554  1
  In  In56  1  0.85680582  0.50592416  -0.02805406  1
  In  In57  1  0.05277266  0.20440101  0.83008222  1
  In  In58  1  0.18002533  0.01040303  0.86655760  1
  In  In59  1  0.48818338  0.15948332  0.66195921  1
  In  In60  1  0.50359146  0.81245584  0.69462636  1
  In  In61  1  0.65493154  -0.00349691  0.34106445  1
  In  In62  1  0.31795767  0.83812053  0.50835626  1
  In  In63  1  0.32523429  0.51217982  0.52690430  1
  In  In64  1  0.82352283  0.67490592  0.19319534  1
  In  In65  1  0.66486584  0.66772828  0.66494045  1
  In  In66  1  0.48077618  0.50030246  0.67399001  1
  In  In67  1  0.00160102  0.82677912  0.50691001  1
  In  In68  1  0.49872959  0.13608480  0.35212371  1
  In  In69  1  -0.01100252  0.02911958  0.66165285  1
  In  In70  1  0.85221067  0.17995261  0.33360843  1
  In  In71  1  0.68538124  0.83487937  0.15566718  1
  Te  Te72  1  0.11468737  0.08296007  0.06234693  1
  Te  Te73  1  0.03894747  0.09184546  0.42561794  1
  Te  Te74  1  0.09944905  0.07862576  0.75719740  1
  Te  Te75  1  0.09833663  0.43923913  0.05644583  1
  Te  Te76  1  0.07662217  0.41207458  0.47734637  1
  Te  Te77  1  0.08695309  0.37077060  0.72076334  1
  Te  Te78  1  0.06855631  0.76045904  0.09023668  1
  Te  Te79  1  0.10505724  0.74840368  0.42654579  1
  Te  Te80  1  0.08652987  0.71899485  0.74318957  1
  Te  Te81  1  0.40874110  0.06543528  0.07235841  1
  Te  Te82  1  0.38895050  0.09981167  0.44815725  1
  Te  Te83  1  0.39213440  0.09108802  0.75773898  1
  Te  Te84  1  0.37396245  0.39544141  0.04514561  1
  Te  Te85  1  0.41316812  0.42769684  0.40703917  1
  Te  Te86  1  0.37640057  0.44574132  0.76774826  1
  Te  Te87  1  0.38706872  0.73599937  0.06245769  1
  Te  Te88  1  0.40939169  0.77289583  0.41264222  1
  Te  Te89  1  0.38976237  0.74817788  0.76028242  1
  Te  Te90  1  0.76885550  0.05781216  0.06453577  1
  Te  Te91  1  0.75670150  0.08821320  0.41120308  1
  Te  Te92  1  0.78583570  0.08027152  0.75294996  1
  Te  Te93  1  0.75370393  0.41778212  0.06829293  1
  Te  Te94  1  0.75304869  0.40207583  0.42219925  1
  Te  Te95  1  0.77167031  0.42183892  0.73687108  1
  Te  Te96  1  0.76409659  0.74045022  0.06726738  1
  Te  Te97  1  0.77069516  0.72303498  0.43921174  1
  Te  Te98  1  0.74536065  0.77141072  0.76043986  1
  Te  Te99  1  0.08456113  0.24256654  0.26311961  1
  Te  Te100  1  0.10480239  0.17941645  0.55979991  1
  Te  Te101  1  0.14542429  0.25439493  0.94108181  1
  Te  Te102  1  0.08334197  0.58721838  0.25268705  1
  Te  Te103  1  0.07656564  0.55115224  0.58228127  1
  Te  Te104  1  0.08636054  0.58466900  0.90026079  1
  Te  Te105  1  0.09000738  0.91734279  0.20802696  1
  Te  Te106  1  0.08741688  0.92678503  0.59117580  1
  Te  Te107  1  0.08504669  0.90578627  0.93030644  1
  Te  Te108  1  0.42673313  0.25000068  0.25300761  1
  Te  Te109  1  0.40200101  0.27532403  0.62363376  1
  Te  Te110  1  0.37577640  0.23706393  0.90766503  1
  Te  Te111  1  0.42311593  0.58285569  0.24941782  1
  Te  Te112  1  0.42155662  0.60425783  0.58826818  1
  Te  Te113  1  0.35010799  0.57163103  0.92625263  1
  Te  Te114  1  0.40155061  0.89645622  0.24633811  1
  Te  Te115  1  0.41682028  0.92479638  0.60191222  1
  Te  Te116  1  0.38999880  0.91981674  0.90853084  1
  Te  Te117  1  0.74885529  0.21830944  0.22605570  1
  Te  Te118  1  0.77714598  0.23003828  0.60558530  1
  Te  Te119  1  0.75555364  0.25704747  0.90301699  1
  Te  Te120  1  0.75649507  0.56147622  0.27218486  1
  Te  Te121  1  0.75718933  0.57819452  0.59379745  1
  Te  Te122  1  0.73321709  0.57870536  0.91748398  1
  Te  Te123  1  0.75764717  0.92247596  0.25513547  1
  Te  Te124  1  0.74667266  0.91201109  0.55877080  1
  Te  Te125  1  0.77837146  0.94861330  0.94859610  1
  Te  Te126  1  0.25407216  0.25020544  0.08795613  1
  Te  Te127  1  0.23574899  0.27263626  0.44163316  1
  Te  Te128  1  0.20627102  0.28198036  0.79000339  1
  Te  Te129  1  0.24870619  0.57344099  0.04761040  1
  Te  Te130  1  0.23751488  0.57645737  0.41886279  1
  Te  Te131  1  0.26463787  0.57152200  0.76661651  1
  Te  Te132  1  0.26943893  0.89779552  0.03191632  1
  Te  Te133  1  0.22785637  0.93396296  0.42067261  1
  Te  Te134  1  0.23644167  0.90357628  0.76404270  1
  Te  Te135  1  0.58412243  0.23690958  0.08559160  1
  Te  Te136  1  0.57764851  0.26711377  0.40258019  1
  Te  Te137  1  0.58132488  0.24754622  0.76069207  1
  Te  Te138  1  0.54616296  0.56239764  0.05614350  1
  Te  Te139  1  0.56303347  0.60727121  0.43193233  1
  Te  Te140  1  0.57113470  0.58787902  0.76653491  1
  Te  Te141  1  0.58772999  0.90923095  0.06688878  1
  Te  Te142  1  0.57242609  0.89844979  0.41186351  1
  Te  Te143  1  0.59144572  0.93785552  0.74894297  1
  Te  Te144  1  0.95262272  0.25553927  0.06996174  1
  Te  Te145  1  0.91795339  0.26358363  0.44210310  1
  Te  Te146  1  0.96215740  0.24617414  0.71534983  1
  Te  Te147  1  0.90800749  0.58141804  0.09581271  1
  Te  Te148  1  0.94255798  0.59445858  0.45979638  1
  Te  Te149  1  0.91480576  0.56913905  0.75358939  1
  Te  Te150  1  0.88048311  0.93835815  0.06842079  1
  Te  Te151  1  0.91686645  0.92253190  0.42533303  1
  Te  Te152  1  0.92315664  0.92957427  0.75875899  1
  Te  Te153  1  0.24102912  0.08098944  0.26101204  1
  Te  Te154  1  0.24323661  0.13206356  0.61754564  1
  Te  Te155  1  0.28635275  0.10727530  0.89839022  1
  Te  Te156  1  0.24109747  0.42633229  0.24604405  1
  Te  Te157  1  0.25903235  0.39671200  0.59000226  1
  Te  Te158  1  0.17031874  0.39284220  0.88110003  1
  Te  Te159  1  0.25401455  0.75283262  0.23419220  1
  Te  Te160  1  0.25979174  0.72633178  0.58409878  1
  Te  Te161  1  0.25443301  0.75924485  0.96015252  1
  Te  Te162  1  0.57900620  0.07851809  0.23685734  1
  Te  Te163  1  0.59104870  0.09938607  0.56718570  1
  Te  Te164  1  0.58908218  0.07355794  0.93580899  1
  Te  Te165  1  0.58782685  0.41777235  0.21834036  1
  Te  Te166  1  0.58471510  0.41736297  0.58248492  1
  Te  Te167  1  0.55167448  0.41002295  0.90808615  1
  Te  Te168  1  0.59073278  0.74896741  0.23979596  1
  Te  Te169  1  0.58668232  0.76352431  0.58554259  1
  Te  Te170  1  0.57876590  0.76025702  0.89885960  1
  Te  Te171  1  0.91685430  0.07306102  0.24376830  1
  Te  Te172  1  0.86827108  0.09111483  0.60525767  1
  Te  Te173  1  0.94423722  0.11018944  0.89747165  1
  Te  Te174  1  0.90858515  0.40089648  0.24862198  1
  Te  Te175  1  0.96134032  0.44529031  0.58586219  1
  Te  Te176  1  0.93484910  0.39311988  0.91200685  1
  Te  Te177  1  0.92749093  0.76933333  0.24889061  1
  Te  Te178  1  0.93338787  0.74773754  0.60964866  1
  Te  Te179  1  0.91366037  0.76313631  0.91526756  1
