# generated using pymatgen
data_In2Te3
_symmetry_space_group_name_H-M   'P 1'
_cell_length_a   18.96331724
_cell_length_b   18.96480874
_cell_length_c   18.97830452
_cell_angle_alpha   89.93514034
_cell_angle_beta   89.93796865
_cell_angle_gamma   90.09046781
_symmetry_Int_Tables_number   1
_chemical_formula_structural   In2Te3
_chemical_formula_sum   'In72 Te108'
_cell_volume   6825.25864534
_cell_formula_units_Z   36
loop_
 _symmetry_equiv_pos_site_id
 _symmetry_equiv_pos_as_xyz
  1  'x, y, z'
loop_
 _atom_site_type_symbol
 _atom_site_label
 _atom_site_symmetry_multiplicity
 _atom_site_fract_x
 _atom_site_fract_y
 _atom_site_fract_z
 _atom_site_occupancy
  In  In0  1  -0.01255343  0.00115272  0.65869854  1
  In  In1  1  0.15797946  -0.02308806  0.81106879  1
  In  In2  1  0.16638082  0.14661383  0.63313320  1
  In  In3  1  0.50675314  0.32255320  0.15491677  1
  In  In4  1  0.35016889  0.33530995  0.66931295  1
  In  In5  1  0.66071722  0.82992541  0.82828585  1
  In  In6  1  0.50107480  0.48781915  0.65921887  1
  In  In7  1  0.32458890  0.31864968  0.33763485  1
  In  In8  1  0.16999164  0.49756294  -0.00089520  1
  In  In9  1  0.48541613  0.82987039  0.66859976  1
  In  In10  1  0.84320047  0.13783548  0.33163210  1
  In  In11  1  0.68939668  0.85006449  0.49379658  1
  In  In12  1  0.31731780  0.01373768  0.29645785  1
  In  In13  1  -0.01555647  0.18630781  0.84693821  1
  In  In14  1  0.68306788  0.04382087  0.69713112  1
  In  In15  1  0.83482748  0.50858534  0.01286563  1
  In  In16  1  0.49214285  0.67385008  0.84812771  1
  In  In17  1  0.01391777  0.66522705  -0.00099186  1
  In  In18  1  0.48549994  0.85575136  0.00569830  1
  In  In19  1  0.49218128  0.50925714  0.32513763  1
  In  In20  1  0.49815126  0.33118637  0.53289312  1
  In  In21  1  0.34916303  0.67264620  0.32678499  1
  In  In22  1  0.15984805  0.85456282  0.34577502  1
  In  In23  1  0.83303120  0.31025167  0.16571849  1
  In  In24  1  0.16601946  0.83955163  0.62830106  1
  In  In25  1  0.16190344  0.34903209  0.80788419  1
  In  In26  1  0.67955330  0.49976216  0.86704487  1
  In  In27  1  0.67151739  -0.03776755  0.29868370  1
  In  In28  1  0.16220618  0.16062098  0.01797610  1
  In  In29  1  0.81431928  0.82460310  0.00549339  1
  In  In30  1  0.32764196  0.84721271  0.15489795  1
  In  In31  1  0.63041175  0.71593781  0.31502240  1
  In  In32  1  0.52350113  0.14433840  0.31639068  1
  In  In33  1  0.18946829  0.32885261  0.16854984  1
  In  In34  1  0.33612304  0.16629752  0.84505365  1
  In  In35  1  0.81324382  0.16591126  -0.00885717  1
  In  In36  1  0.01189936  0.15235478  0.48640808  1
  In  In37  1  0.36346593  0.50108142  0.80455216  1
  In  In38  1  0.18752193  0.70382245  0.85783477  1
  In  In39  1  0.85007339  0.49659062  0.32952927  1
  In  In40  1  0.82842652  0.34283057  0.84447538  1
  In  In41  1  0.67323060  0.64503730  0.65765207  1
  In  In42  1  0.14531256  0.48698909  0.65695234  1
  In  In43  1  0.84300779  0.51252366  0.66092238  1
  In  In44  1  0.32345471  0.52709258  0.48572133  1
  In  In45  1  0.67886191  0.17288294  0.50409624  1
  In  In46  1  0.01303002  0.31892669  0.33857163  1
  In  In47  1  -0.01138328  0.82168992  0.17956850  1
  In  In48  1  0.67010562  -0.02205775  0.01975192  1
  In  In49  1  0.51457591  0.14603097  0.02605006  1
  In  In50  1  0.30729606  0.67878748  0.64829720  1
  In  In51  1  0.33117150  0.33271814  0.01295028  1
  In  In52  1  0.33318585  -0.00320609  0.02286631  1
  In  In53  1  -0.02280216  0.33000206  0.00277984  1
  In  In54  1  -0.01115943  0.66441322  0.65214410  1
  In  In55  1  0.86359723  -0.00953112  0.46668274  1
  In  In56  1  0.69178205  0.32723374  0.33789110  1
  In  In57  1  0.01526961  -0.00605769  0.01176103  1
  In  In58  1  0.50780725  0.16697872  0.69547908  1
  In  In59  1  0.81803503  0.83763023  0.67415588  1
  In  In60  1  0.16015396  0.31524824  0.48968052  1
  In  In61  1  0.16162136  0.65631900  0.16285244  1
  In  In62  1  0.66874698  0.49620763  0.14239718  1
  In  In63  1  0.48445065  -0.00840997  0.49585196  1
  In  In64  1  0.84207843  0.66817032  0.15877140  1
  In  In65  1  0.82470124  0.32627211  0.53315056  1
  In  In66  1  0.50294228  0.50820892  0.00815515  1
  In  In67  1  -0.00217645  0.82579626  0.82661499  1
  In  In68  1  0.47737467  -0.00696986  0.85004524  1
  In  In69  1  0.50494709  0.68557088  0.47443698  1
  In  In70  1  0.00895676  0.68280105  0.31115143  1
  In  In71  1  0.00896784  0.51152077  0.48016405  1
  Te  Te72  1  0.09983325  0.06495506  0.11125215  1
  Te  Te73  1  0.07582038  0.09056964  0.36807813  1
  Te  Te74  1  0.07516567  0.09244674  0.75434399  1
  Te  Te75  1  0.08672778  0.40230188  0.08201835  1
  Te  Te76  1  0.10442455  0.42357760  0.40081927  1
  Te  Te77  1  0.05121838  0.41982340  0.74600219  1
  Te  Te78  1  0.09098268  0.76361336  0.08227929  1
  Te  Te79  1  0.06847314  0.76224407  0.42168996  1
  Te  Te80  1  0.09840348  0.74826214  0.74200186  1
  Te  Te81  1  0.43119572  0.06047239  0.11166092  1
  Te  Te82  1  0.41340881  0.08275090  0.39969219  1
  Te  Te83  1  0.39985949  0.07110271  0.74570281  1
  Te  Te84  1  0.41072743  0.42583288  0.10138352  1
  Te  Te85  1  0.42083603  0.42026859  0.42834018  1
  Te  Te86  1  0.45739528  0.37941912  0.77095261  1
  Te  Te87  1  0.39007207  0.75267810  0.05801673  1
  Te  Te88  1  0.39463242  0.76962119  0.43000167  1
  Te  Te89  1  0.39510897  0.74417829  0.75537928  1
  Te  Te90  1  0.75809778  0.07223396  0.08937680  1
  Te  Te91  1  0.73236365  0.06696747  0.41017667  1
  Te  Te92  1  0.77153515  0.13938345  0.76298178  1
  Te  Te93  1  0.75280212  0.39288030  0.06787770  1
  Te  Te94  1  0.76228815  0.42255531  0.43023501  1
  Te  Te95  1  0.74760484  0.43159557  0.75139263  1
  Te  Te96  1  0.73303325  0.74385095  0.09693955  1
  Te  Te97  1  0.73908284  0.74154738  0.41055510  1
  Te  Te98  1  0.75071732  0.73053676  0.75822638  1
  Te  Te99  1  0.10118390  0.23782316  0.25044149  1
  Te  Te100  1  0.06634393  0.25192353  0.58948004  1
  Te  Te101  1  0.10124900  0.26494707  0.92377817  1
  Te  Te102  1  0.07484509  0.57077401  0.24607220  1
  Te  Te103  1  0.09714057  0.59903360  0.56762316  1
  Te  Te104  1  0.09919008  0.58757464  0.89963621  1
  Te  Te105  1  0.05605843  0.92508844  0.26583274  1
  Te  Te106  1  0.08657235  0.94862696  0.55889199  1
  Te  Te107  1  0.09161232  0.89768472  0.92214076  1
  Te  Te108  1  0.42383875  0.24050793  0.25192018  1
  Te  Te109  1  0.40790015  0.22270230  0.58649153  1
  Te  Te110  1  0.42563884  0.23924062  0.93906368  1
  Te  Te111  1  0.44293523  0.61049116  0.23034742  1
  Te  Te112  1  0.42750688  0.59650745  0.58226232  1
  Te  Te113  1  0.39713032  0.58481987  0.92494686  1
  Te  Te114  1  0.41769826  0.90681216  0.25768536  1
  Te  Te115  1  0.39889470  0.91459129  0.58690919  1
  Te  Te116  1  0.37209455  0.89883731  0.90425641  1
  Te  Te117  1  0.74337386  0.21917804  0.24677058  1
  Te  Te118  1  0.72470936  0.25590029  0.61534665  1
  Te  Te119  1  0.73212629  0.23159960  0.88289516  1
  Te  Te120  1  0.75260513  0.57368907  0.24254761  1
  Te  Te121  1  0.77194103  0.59660637  0.56302326  1
  Te  Te122  1  0.74530081  0.60288185  0.94639301  1
  Te  Te123  1  0.79090574  0.90141172  0.24530075  1
  Te  Te124  1  0.75154192  0.94744060  0.59249084  1
  Te  Te125  1  0.75288731  0.92190744  0.90334950  1
  Te  Te126  1  0.27436092  0.22099171  0.09864086  1
  Te  Te127  1  0.25884242  0.22366683  0.43235225  1
  Te  Te128  1  0.24470831  0.24029617  0.73930765  1
  Te  Te129  1  0.25624567  0.58009500  0.08089712  1
  Te  Te130  1  0.24013032  0.59529611  0.38945721  1
  Te  Te131  1  0.24769062  0.57063004  0.73792338  1
  Te  Te132  1  0.22701103  0.95096841  0.11611181  1
  Te  Te133  1  0.25379527  0.94878484  0.41553585  1
  Te  Te134  1  0.25310604  0.90529385  0.72783090  1
  Te  Te135  1  0.60567547  0.24920713  0.07789079  1
  Te  Te136  1  0.57813667  0.25496317  0.41754633  1
  Te  Te137  1  0.57036336  0.27552651  0.76577627  1
  Te  Te138  1  0.56721371  0.59759101  0.10800671  1
  Te  Te139  1  0.59478920  0.58948184  0.40327983  1
  Te  Te140  1  0.57498984  0.58172855  0.76151680  1
  Te  Te141  1  0.59030757  0.88377274  0.10881785  1
  Te  Te142  1  0.57810672  0.90805309  0.41096419  1
  Te  Te143  1  0.57740016  0.92716252  0.74655253  1
  Te  Te144  1  0.92662196  0.21886308  0.08930176  1
  Te  Te145  1  0.90027912  0.25176602  0.41831313  1
  Te  Te146  1  0.90585925  0.25885219  0.74801933  1
  Te  Te147  1  0.94328954  0.57375280  0.09675014  1
  Te  Te148  1  0.91558174  0.60566772  0.41064640  1
  Te  Te149  1  0.91342067  0.59862770  0.75732226  1
  Te  Te150  1  0.90853775  0.91272644  0.08592002  1
  Te  Te151  1  0.93988973  0.86630041  0.45325113  1
  Te  Te152  1  0.90550190  0.92776594  0.76303210  1
  Te  Te153  1  0.21295417  0.12516864  0.29954716  1
  Te  Te154  1  0.21382804  0.04148375  0.54419198  1
  Te  Te155  1  0.23805834  0.07266937  0.91414257  1
  Te  Te156  1  0.26860040  0.42092208  0.25066503  1
  Te  Te157  1  0.25782918  0.41393823  0.57714671  1
  Te  Te158  1  0.26990167  0.41195958  0.89623362  1
  Te  Te159  1  0.23878629  0.76086761  0.24902891  1
  Te  Te160  1  0.25776628  0.76229839  0.53854668  1
  Te  Te161  1  0.26753972  0.77963283  0.95102919  1
  Te  Te162  1  0.59044862  0.05747332  0.21982474  1
  Te  Te163  1  0.57939321  0.08358821  0.58070647  1
  Te  Te164  1  0.58749204  0.06468586  0.92019404  1
  Te  Te165  1  0.59564729  0.41145543  0.25593306  1
  Te  Te166  1  0.60320464  0.42155064  0.57928835  1
  Te  Te167  1  0.58535458  0.41176343  0.93558491  1
  Te  Te168  1  0.54182807  0.80333858  0.23690065  1
  Te  Te169  1  0.59328060  0.75727655  0.58776769  1
  Te  Te170  1  0.58239974  0.75699907  0.93427004  1
  Te  Te171  1  0.95208728  0.05360273  0.28073863  1
  Te  Te172  1  0.90179304  0.09332536  0.57352917  1
  Te  Te173  1  0.92052941  0.07512438  0.92460115  1
  Te  Te174  1  0.92710580  0.40117205  0.24121606  1
  Te  Te175  1  0.93403445  0.42229915  0.57719964  1
  Te  Te176  1  0.92607880  0.43890916  0.91267675  1
  Te  Te177  1  0.87430766  0.77280808  0.26992858  1
  Te  Te178  1  0.91992057  0.77875805  0.58139338  1
  Te  Te179  1  0.91179305  0.74218831  0.91873094  1
