# generated using pymatgen
data_In2Te3
_symmetry_space_group_name_H-M   'P 1'
_cell_length_a   18.84092775
_cell_length_b   18.85656808
_cell_length_c   18.85136995
_cell_angle_alpha   90.03876149
_cell_angle_beta   90.01746764
_cell_angle_gamma   90.01865388
_symmetry_Int_Tables_number   1
_chemical_formula_structural   In2Te3
_chemical_formula_sum   'In72 Te108'
_cell_volume   6697.42272222
_cell_formula_units_Z   36
loop_
 _symmetry_equiv_pos_site_id
 _symmetry_equiv_pos_as_xyz
  1  'x, y, z'
loop_
 _atom_site_type_symbol
 _atom_site_label
 _atom_site_symmetry_multiplicity
 _atom_site_fract_x
 _atom_site_fract_y
 _atom_site_fract_z
 _atom_site_occupancy
  In  In0  1  0.16860343  0.67261967  0.19149873  1
  In  In1  1  0.67085930  0.01652530  -0.00717505  1
  In  In2  1  0.16406071  0.17531911  0.33438886  1
  In  In3  1  0.64829590  0.82814724  0.50971309  1
  In  In4  1  -0.00053359  0.15115290  0.81777353  1
  In  In5  1  0.31282119  -0.06405159  0.64257579  1
  In  In6  1  0.49187397  0.64792196  0.18964257  1
  In  In7  1  0.49201113  0.82635666  0.32879975  1
  In  In8  1  0.01255497  0.33348153  0.66119273  1
  In  In9  1  -0.00677673  0.17077374  0.17010405  1
  In  In10  1  0.51427333  0.16669397  0.67886692  1
  In  In11  1  0.68543942  0.16557951  0.16485375  1
  In  In12  1  0.49430068  0.16606114  -0.02793988  1
  In  In13  1  -0.00369632  0.82404585  0.81661950  1
  In  In14  1  0.65932453  0.66232774  0.67269920  1
  In  In15  1  0.16184109  0.33162691  0.83816268  1
  In  In16  1  0.15532489  0.49538123  0.02456788  1
  In  In17  1  0.22099274  0.49619935  0.34772113  1
  In  In18  1  0.16578434  0.84272305  -0.00529221  1
  In  In19  1  0.84412793  0.32317028  0.15508543  1
  In  In20  1  0.69112801  0.34220300  -0.00584014  1
  In  In21  1  0.18055857  0.51465095  0.65495398  1
  In  In22  1  0.32312245  0.16825678  0.17291802  1
  In  In23  1  0.68633479  -0.01131834  0.34415906  1
  In  In24  1  0.82709412  0.31313336  0.50055650  1
  In  In25  1  0.03132215  0.68719969  0.34983159  1
  In  In26  1  0.82887591  0.68862760  0.16989903  1
  In  In27  1  0.18369644  0.16785642  -0.00227379  1
  In  In28  1  0.64557358  0.34145616  0.66155650  1
  In  In29  1  0.34063144  0.16593240  0.50193161  1
  In  In30  1  0.17286647  -0.00722850  0.49394036  1
  In  In31  1  0.65509010  0.67207617  0.34284263  1
  In  In32  1  -0.00758581  0.65824040  -0.03249643  1
  In  In33  1  0.66121941  0.33350872  0.31988208  1
  In  In34  1  -0.01191943  0.67801819  0.66224889  1
  In  In35  1  0.83117703  0.68146669  0.51052419  1
  In  In36  1  0.50078068  -0.00374023  0.83226599  1
  In  In37  1  0.83624759  0.00158390  0.18398733  1
  In  In38  1  0.17108541  -0.01120252  0.19366052  1
  In  In39  1  0.02044159  0.83138933  0.17725811  1
  In  In40  1  0.49017247  0.49321573  0.00624578  1
  In  In41  1  0.32456750  0.65747738  0.01581180  1
  In  In42  1  0.48223578  0.68054163  0.48635633  1
  In  In43  1  0.85940559  -0.01892731  0.48152708  1
  In  In44  1  0.50207499  0.83196060  0.00058516  1
  In  In45  1  0.82284739  0.67409490  0.82908950  1
  In  In46  1  0.83476743  0.52891257  0.66178340  1
  In  In47  1  0.33054997  0.49372934  0.83530801  1
  In  In48  1  0.49900656  0.33013409  0.17196155  1
  In  In49  1  0.47423930  0.49617356  0.64132568  1
  In  In50  1  0.67337080  0.83752262  0.83038187  1
  In  In51  1  0.65984769  0.16022545  0.49216119  1
  In  In52  1  0.50378059  -0.01229408  0.18405096  1
  In  In53  1  0.45588181  0.47919078  0.36706686  1
  In  In54  1  0.13037809  0.16888822  0.65496260  1
  In  In55  1  0.68292452  0.02145745  0.67624475  1
  In  In56  1  -0.00673049  0.48654473  0.15742157  1
  In  In57  1  0.64802402  0.50917543  0.81750618  1
  In  In58  1  -0.00575179  0.17941092  0.51629793  1
  In  In59  1  0.83184607  0.46769897  -0.00307340  1
  In  In60  1  -0.01711745  0.02249966  -0.00919983  1
  In  In61  1  0.47585433  0.17459679  0.33486596  1
  In  In62  1  0.85889094  0.33134011  0.83571976  1
  In  In63  1  0.31305420  -0.00517606  0.01145777  1
  In  In64  1  0.83043672  0.50045847  0.33238478  1
  In  In65  1  0.00095604  -0.01969400  0.65363094  1
  In  In66  1  0.65851904  0.68737507  0.00755065  1
  In  In67  1  0.34335824  0.16857456  0.84771174  1
  In  In68  1  0.32549325  0.34405143  0.65559165  1
  In  In69  1  0.18046584  0.83840249  0.34224407  1
  In  In70  1  0.03001982  0.49226251  0.48542880  1
  In  In71  1  0.18101332  0.67988292  0.82399221  1
  Te  Te72  1  0.10008290  0.06861852  0.08604844  1
  Te  Te73  1  0.07770166  0.08864493  0.42544052  1
  Te  Te74  1  0.09518293  0.05516496  0.74928651  1
  Te  Te75  1  0.08671311  0.38733655  0.09950325  1
  Te  Te76  1  0.10027626  0.41547120  0.38332531  1
  Te  Te77  1  0.09037146  0.43133113  0.74708571  1
  Te  Te78  1  0.08649227  0.72911755  0.07277548  1
  Te  Te79  1  0.10507449  0.76641571  0.45002246  1
  Te  Te80  1  0.10462522  0.76446491  0.72470245  1
  Te  Te81  1  0.42393192  0.08287945  0.08078133  1
  Te  Te82  1  0.42238098  0.07068146  0.42361744  1
  Te  Te83  1  0.40696324  0.07698089  0.74368663  1
  Te  Te84  1  0.40371168  0.42072916  0.10229005  1
  Te  Te85  1  0.36165901  0.39172940  0.44467115  1
  Te  Te86  1  0.42415623  0.40491886  0.75474133  1
  Te  Te87  1  0.41865689  0.74732043  0.09540498  1
  Te  Te88  1  0.38089027  0.75486321  0.40248269  1
  Te  Te89  1  0.36203420  0.79899332  0.70274907  1
  Te  Te90  1  0.77819485  0.09227134  0.07182738  1
  Te  Te91  1  0.77082245  0.09244819  0.41410059  1
  Te  Te92  1  0.76444733  0.07849474  0.78285009  1
  Te  Te93  1  0.73917407  0.42497318  0.11211233  1
  Te  Te94  1  0.74281202  0.41422404  0.42209326  1
  Te  Te95  1  0.75887744  0.42866184  0.74948319  1
  Te  Te96  1  0.75597643  0.77411252  0.07424629  1
  Te  Te97  1  0.75057333  0.76666628  0.41311218  1
  Te  Te98  1  0.75993273  0.76278857  0.72407028  1
  Te  Te99  1  0.10354271  0.25506684  0.22441777  1
  Te  Te100  1  0.10643850  0.28102114  0.55573168  1
  Te  Te101  1  0.07246209  0.23958843  0.91891620  1
  Te  Te102  1  0.07559678  0.57226262  0.25828628  1
  Te  Te103  1  0.08788049  0.60306867  0.57272239  1
  Te  Te104  1  0.10255616  0.57580540  0.90440906  1
  Te  Te105  1  0.06101950  0.93379336  0.28709673  1
  Te  Te106  1  0.08665596  0.89456818  0.56600449  1
  Te  Te107  1  0.06920545  0.92137811  0.91146222  1
  Te  Te108  1  0.38411503  0.27809142  0.26948269  1
  Te  Te109  1  0.43025582  0.25623042  0.58776594  1
  Te  Te110  1  0.40262955  0.27296857  0.93195057  1
  Te  Te111  1  0.39284669  0.57791103  0.27503672  1
  Te  Te112  1  0.37610202  0.58584276  0.55177801  1
  Te  Te113  1  0.41760038  0.59173740  0.91484844  1
  Te  Te114  1  0.39888343  0.91724631  0.25574013  1
  Te  Te115  1  0.42753276  0.86977424  0.57773878  1
  Te  Te116  1  0.40489341  0.91466183  0.91712074  1
  Te  Te117  1  0.76948145  0.24297201  0.26401579  1
  Te  Te118  1  0.73871289  0.23699910  0.59843298  1
  Te  Te119  1  0.76450400  0.24718748  0.91086664  1
  Te  Te120  1  0.74145073  0.58923481  0.24704557  1
  Te  Te121  1  0.72922280  0.58100679  0.56511667  1
  Te  Te122  1  0.74340805  0.57895011  0.91916230  1
  Te  Te123  1  0.74483930  0.90142466  0.24289304  1
  Te  Te124  1  0.74647345  0.92719148  0.57264869  1
  Te  Te125  1  0.75583642  0.91800550  0.92203407  1
  Te  Te126  1  0.25492140  0.26307396  0.08386839  1
  Te  Te127  1  0.25494192  0.25840568  0.42201439  1
  Te  Te128  1  0.24328497  0.24455787  0.74368249  1
  Te  Te129  1  0.25267388  0.56913724  0.11511987  1
  Te  Te130  1  0.25481513  0.59577011  0.45244665  1
  Te  Te131  1  0.27733028  0.59792858  0.73819272  1
  Te  Te132  1  0.25431664  0.89255378  0.10863204  1
  Te  Te133  1  0.27744028  0.91458710  0.42552412  1
  Te  Te134  1  0.24158204  0.88279038  0.75829764  1
  Te  Te135  1  0.58786488  0.24433005  0.07831399  1
  Te  Te136  1  0.57129611  0.26022951  0.41889053  1
  Te  Te137  1  0.58406450  0.26100322  0.76784143  1
  Te  Te138  1  0.58507752  0.58095976  0.08777034  1
  Te  Te139  1  0.57026692  0.57517129  0.42015266  1
  Te  Te140  1  0.54401563  0.59091097  0.74230141  1
  Te  Te141  1  0.59490132  0.91899079  0.08406385  1
  Te  Te142  1  0.57115017  0.92265884  0.41811827  1
  Te  Te143  1  0.58270696  0.91507541  0.73578446  1
  Te  Te144  1  0.91658673  0.23585018  0.06178213  1
  Te  Te145  1  0.93110739  0.26161093  0.41198366  1
  Te  Te146  1  0.91422969  0.23937426  0.72610814  1
  Te  Te147  1  0.90959524  0.59014899  0.07901557  1
  Te  Te148  1  0.91906544  0.59039425  0.42082606  1
  Te  Te149  1  0.93002560  0.58394626  0.76750857  1
  Te  Te150  1  0.93122217  0.91643142  0.09031071  1
  Te  Te151  1  0.93881088  0.90951105  0.38216867  1
  Te  Te152  1  0.90403054  0.91017662  0.74116776  1
  Te  Te153  1  0.26519944  0.07382410  0.27679648  1
  Te  Te154  1  0.24634230  0.08757980  0.59645651  1
  Te  Te155  1  0.24125969  0.06662552  0.89850016  1
  Te  Te156  1  0.29734018  0.41126013  0.25308957  1
  Te  Te157  1  0.25240954  0.42626113  0.55220525  1
  Te  Te158  1  0.24915803  0.41176513  0.93326694  1
  Te  Te159  1  0.27084477  0.74080864  0.27233200  1
  Te  Te160  1  0.30760733  0.72196797  0.56587503  1
  Te  Te161  1  0.26937539  0.76086298  0.91731044  1
  Te  Te162  1  0.58951002  0.09226280  0.25818731  1
  Te  Te163  1  0.57203563  0.07026012  0.57675544  1
  Te  Te164  1  0.60007491  0.09855828  0.88573714  1
  Te  Te165  1  0.56480939  0.43423567  0.26146905  1
  Te  Te166  1  0.57395542  0.42285609  0.56307036  1
  Te  Te167  1  0.58142542  0.41218117  0.91402761  1
  Te  Te168  1  0.58986442  0.75717552  0.23524262  1
  Te  Te169  1  0.55377209  0.74933483  0.60364740  1
  Te  Te170  1  0.57070980  0.74420356  0.89645860  1
  Te  Te171  1  0.92633559  0.08320105  0.26717153  1
  Te  Te172  1  0.90539979  0.08099070  0.58877960  1
  Te  Te173  1  0.89016883  0.06494256  0.87664659  1
  Te  Te174  1  0.92182468  0.40201928  0.26198298  1
  Te  Te175  1  0.91687301  0.42782441  0.57987184  1
  Te  Te176  1  0.94470341  0.41702068  0.91958924  1
  Te  Te177  1  0.92094056  0.75983272  0.26961678  1
  Te  Te178  1  0.91597980  0.77778823  0.58186986  1
  Te  Te179  1  0.89862248  0.76728142  0.92353107  1
