# generated using pymatgen
data_In2Te3
_symmetry_space_group_name_H-M   'P 1'
_cell_length_a   18.91644950
_cell_length_b   18.92257756
_cell_length_c   18.92083027
_cell_angle_alpha   90.05069807
_cell_angle_beta   90.04622555
_cell_angle_gamma   90.08437529
_symmetry_Int_Tables_number   1
_chemical_formula_structural   In2Te3
_chemical_formula_sum   'In72 Te108'
_cell_volume   6772.66082533
_cell_formula_units_Z   36
loop_
 _symmetry_equiv_pos_site_id
 _symmetry_equiv_pos_as_xyz
  1  'x, y, z'
loop_
 _atom_site_type_symbol
 _atom_site_label
 _atom_site_symmetry_multiplicity
 _atom_site_fract_x
 _atom_site_fract_y
 _atom_site_fract_z
 _atom_site_occupancy
  In  In0  1  0.00484325  0.31483166  0.34772826  1
  In  In1  1  0.15434183  0.34349627  0.13824193  1
  In  In2  1  -0.00287230  0.15548574  0.13909055  1
  In  In3  1  0.32543423  0.84822875  0.84180871  1
  In  In4  1  0.49488004  0.53856187  0.31654423  1
  In  In5  1  0.15897406  0.84482318  0.02173658  1
  In  In6  1  0.51448122  0.84358374  0.00626832  1
  In  In7  1  0.64470839  -0.04621596  0.35002874  1
  In  In8  1  0.50807524  0.34304614  0.15285314  1
  In  In9  1  0.30092315  0.65144786  -0.00822448  1
  In  In10  1  0.84178131  0.64912985  0.14188248  1
  In  In11  1  0.32822293  0.01759679  0.00066098  1
  In  In12  1  0.33517435  0.17134451  0.15288312  1
  In  In13  1  0.17595365  0.00569347  0.83360661  1
  In  In14  1  0.49782600  0.50799311  0.00067604  1
  In  In15  1  0.64349086  0.36552653  0.35077682  1
  In  In16  1  0.49682976  0.14222595  0.34853691  1
  In  In17  1  0.67243287  0.29371302  0.72368118  1
  In  In18  1  0.64643610  0.17294909  0.16379340  1
  In  In19  1  0.48116325  0.67379840  0.15011278  1
  In  In20  1  0.14160191  0.16632062  0.67428752  1
  In  In21  1  -0.01580604  0.83110138  0.53282603  1
  In  In22  1  0.34868100  0.31139882  0.67014651  1
  In  In23  1  -0.01926019  0.83360003  0.82020700  1
  In  In24  1  0.69175003  0.32500013  -0.02842891  1
  In  In25  1  0.32715846  0.67191476  0.65836922  1
  In  In26  1  0.67631278  0.48077697  0.82420581  1
  In  In27  1  0.32655603  0.51494143  0.48245820  1
  In  In28  1  0.16254208  0.51432060  0.33493938  1
  In  In29  1  -0.01761743  0.48432898  0.51337927  1
  In  In30  1  0.83266764  0.32940196  0.15900416  1
  In  In31  1  -0.00229990  0.16634161  0.54068436  1
  In  In32  1  0.82805889  0.16900943  0.33768392  1
  In  In33  1  0.80937638  0.51176298  0.34002249  1
  In  In34  1  0.15575435  0.48700528  0.65694928  1
  In  In35  1  0.83479437  0.84012799  0.67587970  1
  In  In36  1  0.48672074  -0.03730562  0.16050655  1
  In  In37  1  0.50765738  0.03106733  0.80322723  1
  In  In38  1  0.34766093  0.15284864  0.49231586  1
  In  In39  1  -0.00365236  0.68647509  0.33339163  1
  In  In40  1  0.83632510  0.67018694  0.83551428  1
  In  In41  1  0.73253695  0.04706139  -0.05170283  1
  In  In42  1  0.51852377  0.67283519  0.83380981  1
  In  In43  1  0.82467711  0.00006683  0.15639289  1
  In  In44  1  0.67829168  0.00738676  0.69006972  1
  In  In45  1  0.36014376  0.30622235  -0.02165979  1
  In  In46  1  -0.01038245  -0.01968979  0.36590357  1
  In  In47  1  0.67754387  0.68756326  0.34082618  1
  In  In48  1  0.17220820  0.82158976  0.31884533  1
  In  In49  1  0.14674667  0.33427186  0.83222989  1
  In  In50  1  0.67444933  0.15706664  0.53367055  1
  In  In51  1  0.68865757  0.85847883  0.85596503  1
  In  In52  1  0.52771060  0.85221058  0.60572815  1
  In  In53  1  0.69607928  0.51765312  0.52536522  1
  In  In54  1  0.33917621  0.84382954  0.49635248  1
  In  In55  1  0.49294697  0.33910578  0.51259728  1
  In  In56  1  -0.02205826  0.85267993  0.16022949  1
  In  In57  1  -0.01114182  0.47157441  0.14334862  1
  In  In58  1  0.15792781  0.83917872  0.67296495  1
  In  In59  1  0.67274020  0.82004873  0.15121220  1
  In  In60  1  0.50083121  0.49316908  0.65867541  1
  In  In61  1  0.17078030  0.02655472  0.15808518  1
  In  In62  1  0.31873237  0.48643003  0.80475365  1
  In  In63  1  0.52650646  0.73041592  0.45923278  1
  In  In64  1  0.19235791  0.16799794  0.33482100  1
  In  In65  1  -0.01645259  0.63703930  0.66887486  1
  In  In66  1  0.31658432  0.32062968  0.33074386  1
  In  In67  1  -0.01176959  0.34129830  0.70155814  1
  In  In68  1  0.15746709  -0.00536694  0.50752863  1
  In  In69  1  0.83802778  0.46903666  -0.03462269  1
  In  In70  1  0.84668263  0.00487151  0.50553118  1
  In  In71  1  0.15843799  0.66749102  0.15629674  1
  Te  Te72  1  0.08593082  0.07972121  0.05093415  1
  Te  Te73  1  0.07772191  0.09960823  0.41871309  1
  Te  Te74  1  0.06234374  0.08065847  0.76738347  1
  Te  Te75  1  0.07274612  0.41308507  0.03576042  1
  Te  Te76  1  0.09031926  0.41444077  0.42390320  1
  Te  Te77  1  0.06915113  0.45307628  0.77775589  1
  Te  Te78  1  0.05585254  0.74841902  0.08013446  1
  Te  Te79  1  0.07929631  0.76909799  0.42939350  1
  Te  Te80  1  0.07201389  0.73791643  0.74472030  1
  Te  Te81  1  0.43795488  0.08732607  0.08188364  1
  Te  Te82  1  0.42151930  0.04454256  0.42590525  1
  Te  Te83  1  0.38120175  0.10459686  0.79031542  1
  Te  Te84  1  0.40070627  0.41688784  0.07699259  1
  Te  Te85  1  0.42114554  0.41508662  0.40149465  1
  Te  Te86  1  0.43548617  0.39960408  0.75839337  1
  Te  Te87  1  0.40047784  0.75568134  0.05121464  1
  Te  Te88  1  0.40133434  0.76310046  0.38595151  1
  Te  Te89  1  0.41041542  0.75157919  0.75829669  1
  Te  Te90  1  0.76413991  0.11979171  0.08731495  1
  Te  Te91  1  0.73736295  0.06984818  0.41014788  1
  Te  Te92  1  0.74561596  0.09186234  0.79649649  1
  Te  Te93  1  0.74484265  0.42102720  0.08023827  1
  Te  Te94  1  0.76008634  0.40533971  0.43707640  1
  Te  Te95  1  0.77379483  0.40154317  0.74647514  1
  Te  Te96  1  0.77639143  0.75836907  0.06700605  1
  Te  Te97  1  0.77080164  0.76791540  0.41613465  1
  Te  Te98  1  0.73845457  0.75446811  0.75518605  1
  Te  Te99  1  0.08994654  0.24281952  0.24073254  1
  Te  Te100  1  0.08093459  0.28080978  0.59472766  1
  Te  Te101  1  0.04673189  0.24722935  0.90122196  1
  Te  Te102  1  0.05495144  0.57668383  0.24162078  1
  Te  Te103  1  0.08482562  0.58487219  0.56598637  1
  Te  Te104  1  0.16642939  0.59542285  0.96004606  1
  Te  Te105  1  0.08208525  0.93044457  0.24745147  1
  Te  Te106  1  0.05944479  0.93849474  0.60869313  1
  Te  Te107  1  0.08332284  0.91256960  0.90866720  1
  Te  Te108  1  0.43269857  0.25127323  0.25075247  1
  Te  Te109  1  0.44351742  0.22106386  0.59409631  1
  Te  Te110  1  0.43315229  0.22007972  0.87778281  1
  Te  Te111  1  0.39042833  0.58729444  0.22866838  1
  Te  Te112  1  0.42386118  0.59190940  0.57191378  1
  Te  Te113  1  0.40886757  0.58159330  0.89199502  1
  Te  Te114  1  0.45849679  0.87223161  0.27160523  1
  Te  Te115  1  0.40322586  0.92869144  0.59846188  1
  Te  Te116  1  0.42920403  0.93368132  0.91537555  1
  Te  Te117  1  0.73088364  0.26197314  0.26167221  1
  Te  Te118  1  0.76517180  0.22407729  0.62778688  1
  Te  Te119  1  0.77010552  0.24346313  0.87438029  1
  Te  Te120  1  0.73537428  0.59169840  0.23656423  1
  Te  Te121  1  0.80363185  0.58689068  0.59492835  1
  Te  Te122  1  0.74241544  0.57785020  0.91872672  1
  Te  Te123  1  0.75014688  0.90768997  0.25060073  1
  Te  Te124  1  0.74614825  0.92148528  0.58360986  1
  Te  Te125  1  0.79992090  0.91375683  0.93582472  1
  Te  Te126  1  0.24182180  0.24531377  0.06161180  1
  Te  Te127  1  0.24426028  0.25791052  0.44645206  1
  Te  Te128  1  0.24386232  0.24470419  0.75665806  1
  Te  Te129  1  0.23133039  0.55299442  0.08986838  1
  Te  Te130  1  0.25118694  0.60994053  0.40145562  1
  Te  Te131  1  0.22991823  0.59225506  0.74302663  1
  Te  Te132  1  0.26539806  0.92101459  0.10009519  1
  Te  Te133  1  0.24366834  0.92675455  0.40541065  1
  Te  Te134  1  0.26242554  0.93240073  0.73184112  1
  Te  Te135  1  0.57989160  0.25372799  0.05518384  1
  Te  Te136  1  0.58590674  0.24218668  0.42383553  1
  Te  Te137  1  0.56758418  0.21536556  0.79329328  1
  Te  Te138  1  0.58349327  0.59711076  0.07788412  1
  Te  Te139  1  0.59357784  0.57845099  0.42493390  1
  Te  Te140  1  0.59545637  0.57989451  0.74081345  1
  Te  Te141  1  0.60972275  0.93917144  0.07538087  1
  Te  Te142  1  0.57781610  0.87867016  0.45900270  1
  Te  Te143  1  0.57889700  0.90213139  0.75695564  1
  Te  Te144  1  0.92349967  0.26166265  0.06188627  1
  Te  Te145  1  0.90637111  0.24643523  0.44111202  1
  Te  Te146  1  0.96714756  0.21121083  0.77298744  1
  Te  Te147  1  0.92612783  0.56807961  0.04420730  1
  Te  Te148  1  0.91731618  0.58471703  0.41611350  1
  Te  Te149  1  0.92750756  0.56459060  0.78452519  1
  Te  Te150  1  0.92535724  0.94903760  0.06079371  1
  Te  Te151  1  0.88396847  0.87761552  0.41832112  1
  Te  Te152  1  0.90027061  0.94078794  0.75904552  1
  Te  Te153  1  0.28171970  0.07500324  0.25700166  1
  Te  Te154  1  0.24284606  0.09118549  0.58650731  1
  Te  Te155  1  0.24680396  0.10668769  0.91628287  1
  Te  Te156  1  0.23913086  0.41570721  0.24418082  1
  Te  Te157  1  0.27457911  0.42004596  0.58928244  1
  Te  Te158  1  0.25844637  0.40156081  0.91352412  1
  Te  Te159  1  0.25736110  0.75213008  0.22304909  1
  Te  Te160  1  0.23660978  0.75721215  0.57217367  1
  Te  Te161  1  0.22077654  0.76287884  0.90773285  1
  Te  Te162  1  0.58701086  0.06445868  0.25249279  1
  Te  Te163  1  0.57778363  0.07127614  0.60158408  1
  Te  Te164  1  0.59215612  0.09699819  0.90764093  1
  Te  Te165  1  0.58674612  0.44281879  0.23493223  1
  Te  Te166  1  0.60474898  0.40259509  0.59286197  1
  Te  Te167  1  0.57661839  0.41028954  0.91408177  1
  Te  Te168  1  0.56935657  0.76133972  0.24819563  1
  Te  Te169  1  0.59301394  0.72205733  0.58977901  1
  Te  Te170  1  0.60542193  0.74912449  0.93129543  1
  Te  Te171  1  0.92223054  0.08181281  0.25704671  1
  Te  Te172  1  0.88510252  0.10081234  0.61172039  1
  Te  Te173  1  0.85938505  0.12036279  0.90448519  1
  Te  Te174  1  0.91255734  0.40912931  0.26858544  1
  Te  Te175  1  0.89480015  0.41935259  0.61446658  1
  Te  Te176  1  0.93739126  0.36064443  0.93557254  1
  Te  Te177  1  0.89721438  0.75347170  0.24180230  1
  Te  Te178  1  0.88772919  0.72041358  0.58277744  1
  Te  Te179  1  0.92593280  0.74593339  0.92525185  1
