# generated using pymatgen
data_In2Te3
_symmetry_space_group_name_H-M   'P 1'
_cell_length_a   18.93516202
_cell_length_b   18.94269164
_cell_length_c   18.92166287
_cell_angle_alpha   90.09148485
_cell_angle_beta   89.95070570
_cell_angle_gamma   90.07039527
_symmetry_Int_Tables_number   1
_chemical_formula_structural   In2Te3
_chemical_formula_sum   'In72 Te108'
_cell_volume   6786.86130332
_cell_formula_units_Z   36
loop_
 _symmetry_equiv_pos_site_id
 _symmetry_equiv_pos_as_xyz
  1  'x, y, z'
loop_
 _atom_site_type_symbol
 _atom_site_label
 _atom_site_symmetry_multiplicity
 _atom_site_fract_x
 _atom_site_fract_y
 _atom_site_fract_z
 _atom_site_occupancy
  In  In0  1  0.50134153  0.66963662  0.51229694  1
  In  In1  1  0.35028315  0.17779840  0.19591698  1
  In  In2  1  -0.02382951  0.17010986  0.49875937  1
  In  In3  1  0.68038880  0.31636647  0.65901653  1
  In  In4  1  0.01937768  0.66181865  0.31287587  1
  In  In5  1  0.33834440  0.32138677  -0.00260121  1
  In  In6  1  0.67478528  0.52028354  0.83159891  1
  In  In7  1  0.34541185  0.66822066  0.66882423  1
  In  In8  1  0.52339849  0.84325220  0.33456069  1
  In  In9  1  0.18111589  0.01660144  0.80317384  1
  In  In10  1  0.14797488  0.81201794  -0.00899445  1
  In  In11  1  0.28962501  0.34894279  0.61346531  1
  In  In12  1  0.67817205  0.65815434  0.34129223  1
  In  In13  1  0.66552443  0.67545381  0.66073751  1
  In  In14  1  0.50019714  -0.00647405  0.17110070  1
  In  In15  1  0.34894517  0.83217126  0.82284106  1
  In  In16  1  0.83290757  0.83618848  0.68352107  1
  In  In17  1  -0.02054201  0.66773000  0.00106057  1
  In  In18  1  0.83577364  0.49707638  0.33936064  1
  In  In19  1  0.49546881  0.49868331  0.66062218  1
  In  In20  1  0.67952399  0.67120502  0.00420924  1
  In  In21  1  0.47935361  0.69515560  0.12620324  1
  In  In22  1  0.19473892  0.82917415  0.32891716  1
  In  In23  1  -0.01484060  0.67173962  0.67774869  1
  In  In24  1  0.35371481  0.00350236  0.66491621  1
  In  In25  1  -0.00937666  0.33341077  0.66833157  1
  In  In26  1  0.65141234  0.82812385  0.84178737  1
  In  In27  1  0.65920682  0.13588415  0.87554791  1
  In  In28  1  0.16198302  0.52147560  0.01465754  1
  In  In29  1  -0.00036648  0.82577883  0.84455905  1
  In  In30  1  -0.00659735  0.83414603  0.16599801  1
  In  In31  1  0.66555996  0.00883955  0.33027419  1
  In  In32  1  0.63981492  0.30258489  0.05218689  1
  In  In33  1  0.66761474  0.00219513  0.68238003  1
  In  In34  1  0.48785055  0.34432125  0.84777712  1
  In  In35  1  0.82148898  0.67917335  0.50895400  1
  In  In36  1  0.15491823  0.33201996  0.18291365  1
  In  In37  1  0.14133712  0.33144239  0.85490471  1
  In  In38  1  0.48645984  0.50061683  0.35727323  1
  In  In39  1  0.14419444  0.18968727  -0.01871742  1
  In  In40  1  0.15729067  0.16791642  0.66395834  1
  In  In41  1  0.49571661  0.51421175  -0.01014274  1
  In  In42  1  0.67797776  0.82805864  0.16800381  1
  In  In43  1  0.83247840  0.34090407  0.51051714  1
  In  In44  1  0.50876539  0.15729245  0.67566987  1
  In  In45  1  0.67882229  0.49135161  0.18690912  1
  In  In46  1  0.33750363  0.52754363  0.84461358  1
  In  In47  1  -0.02332945  0.48590859  0.81891564  1
  In  In48  1  0.03235642  -0.00798709  0.65223020  1
  In  In49  1  0.00988744  0.50734975  0.16661119  1
  In  In50  1  0.17859568  0.00351280  0.14132299  1
  In  In51  1  0.34202309  0.83527329  0.51041934  1
  In  In52  1  0.87018737  0.31780801  0.14040775  1
  In  In53  1  0.66912996  0.30888539  0.33710820  1
  In  In54  1  0.32374566  0.49254498  0.15777364  1
  In  In55  1  0.81475861  -0.00421553  0.86003795  1
  In  In56  1  0.85057715  0.16522982  0.32371794  1
  In  In57  1  0.00148686  0.01502009  0.00268077  1
  In  In58  1  0.81617282  0.33897813  0.83610603  1
  In  In59  1  0.79802675  0.00914068  0.13708143  1
  In  In60  1  0.15870948  0.66912428  0.80326486  1
  In  In61  1  0.84722621  -0.01348930  0.50112871  1
  In  In62  1  -0.00796176  0.01040497  0.33031155  1
  In  In63  1  0.34407375  0.16510114  0.47941650  1
  In  In64  1  0.02742848  0.48547340  0.48328402  1
  In  In65  1  0.32490391  0.64655535  0.32600639  1
  In  In66  1  0.16157877  0.65659356  0.48065425  1
  In  In67  1  0.33215800  -0.02747864  -0.00686204  1
  In  In68  1  0.35068525  0.17872339  0.83048441  1
  In  In69  1  0.35274618  -0.00585265  0.35138338  1
  In  In70  1  0.49919415  0.31747835  0.48794416  1
  In  In71  1  0.16087925  0.17972763  0.33857097  1
  Te  Te72  1  0.08048133  0.10795061  0.09438620  1
  Te  Te73  1  0.08128521  0.08523396  0.42911358  1
  Te  Te74  1  0.06408037  0.10202614  0.76274964  1
  Te  Te75  1  0.08411976  0.40641475  0.07070104  1
  Te  Te76  1  0.11111862  0.37946381  0.42357276  1
  Te  Te77  1  0.09136827  0.42108267  0.74329110  1
  Te  Te78  1  0.08101846  0.72886647  0.09714308  1
  Te  Te79  1  0.08302239  0.76393707  0.40867202  1
  Te  Te80  1  0.08488061  0.77800850  0.72916541  1
  Te  Te81  1  0.39376304  0.06969258  0.09260299  1
  Te  Te82  1  0.44457091  0.10257479  0.39087773  1
  Te  Te83  1  0.43597612  0.06525313  0.77772750  1
  Te  Te84  1  0.42802567  0.41071888  0.08001102  1
  Te  Te85  1  0.39815531  0.40417061  0.42532631  1
  Te  Te86  1  0.40015019  0.41923996  0.75057710  1
  Te  Te87  1  0.41957378  0.80900433  0.05785977  1
  Te  Te88  1  0.41389341  0.74529490  0.40565473  1
  Te  Te89  1  0.43707798  0.76955729  0.72181946  1
  Te  Te90  1  0.71857766  0.09904491  0.04664314  1
  Te  Te91  1  0.76527658  0.08519277  0.41793870  1
  Te  Te92  1  0.75347173  0.09810448  0.76418326  1
  Te  Te93  1  0.74946385  0.40053659  0.08934534  1
  Te  Te94  1  0.73655034  0.41881721  0.42165800  1
  Te  Te95  1  0.74923108  0.43050805  0.73313090  1
  Te  Te96  1  0.77249586  0.74836237  0.08902708  1
  Te  Te97  1  0.73844287  0.76314800  0.42254421  1
  Te  Te98  1  0.75372014  0.74077327  0.76782754  1
  Te  Te99  1  0.06209847  0.23890113  0.24790881  1
  Te  Te100  1  0.08030180  0.25701717  0.57013022  1
  Te  Te101  1  0.02845689  0.26057595  0.91970047  1
  Te  Te102  1  0.11152609  0.56326638  0.25619771  1
  Te  Te103  1  0.07516430  0.58981401  0.58891093  1
  Te  Te104  1  0.07935647  0.58763778  0.90384130  1
  Te  Te105  1  0.09642532  0.92379227  0.24419787  1
  Te  Te106  1  0.12287180  0.94265911  0.55187353  1
  Te  Te107  1  0.09882662  0.93504625  0.91380403  1
  Te  Te108  1  0.45181605  0.26475822  0.25385673  1
  Te  Te109  1  0.40759648  0.24559144  0.60377457  1
  Te  Te110  1  0.44487589  0.22847327  0.94051820  1
  Te  Te111  1  0.43230179  0.57971628  0.23785617  1
  Te  Te112  1  0.40044863  0.56906492  0.56625656  1
  Te  Te113  1  0.43622550  0.62021239  0.90427572  1
  Te  Te114  1  0.40808205  0.89606884  0.25148720  1
  Te  Te115  1  0.43364132  0.93936359  0.55915379  1
  Te  Te116  1  0.43997669  0.89379593  0.92703293  1
  Te  Te117  1  0.76543064  0.25129616  0.23383667  1
  Te  Te118  1  0.75752561  0.23001878  0.57017869  1
  Te  Te119  1  0.72485930  0.25741282  0.93463688  1
  Te  Te120  1  0.77449935  0.59550314  0.24143884  1
  Te  Te121  1  0.74577677  0.57977755  0.58391462  1
  Te  Te122  1  0.76373516  0.56905175  0.93729459  1
  Te  Te123  1  0.76204757  0.91833765  0.25629923  1
  Te  Te124  1  0.74596912  0.91056285  0.58639712  1
  Te  Te125  1  0.71961625  0.91743916  0.94059684  1
  Te  Te126  1  0.25061861  0.23834216  0.08848617  1
  Te  Te127  1  0.26367199  0.26439932  0.40426942  1
  Te  Te128  1  0.24023017  0.25604713  0.76194117  1
  Te  Te129  1  0.27537379  0.59706818  0.06628402  1
  Te  Te130  1  0.24928787  0.55633278  0.41555136  1
  Te  Te131  1  0.24581611  0.56887872  0.73102108  1
  Te  Te132  1  0.24841478  0.88176463  0.08407570  1
  Te  Te133  1  0.23787115  0.93042371  0.44057270  1
  Te  Te134  1  0.25351272  0.90795993  0.72940206  1
  Te  Te135  1  0.54904930  0.22544708  0.14356526  1
  Te  Te136  1  0.58821173  0.21982426  0.42301746  1
  Te  Te137  1  0.58266612  0.25798196  0.76395252  1
  Te  Te138  1  0.58840279  0.57616393  0.09605994  1
  Te  Te139  1  0.59308862  0.57561141  0.43631075  1
  Te  Te140  1  0.56983092  0.59395162  0.75010798  1
  Te  Te141  1  0.58635526  0.90845376  0.08229373  1
  Te  Te142  1  0.57583108  0.94234602  0.42772995  1
  Te  Te143  1  0.57210579  0.92099493  0.75942677  1
  Te  Te144  1  0.91049735  0.22111650  0.03708121  1
  Te  Te145  1  0.92022669  0.27357227  0.40459298  1
  Te  Te146  1  0.89094941  0.25456691  0.74074032  1
  Te  Te147  1  0.90892478  0.56545218  0.07805535  1
  Te  Te148  1  0.92498749  0.58909429  0.42105591  1
  Te  Te149  1  0.89896910  0.60042505  0.77110527  1
  Te  Te150  1  0.90909071  0.91843898  0.07257797  1
  Te  Te151  1  0.93048865  0.90624113  0.41175952  1
  Te  Te152  1  0.92163665  0.93182874  0.76391751  1
  Te  Te153  1  0.24941671  0.07175496  0.25916253  1
  Te  Te154  1  0.25867104  0.09072049  0.58299047  1
  Te  Te155  1  0.25108025  0.09145567  0.91846657  1
  Te  Te156  1  0.26699168  0.39580996  0.25183620  1
  Te  Te157  1  0.19362995  0.43650689  0.53390635  1
  Te  Te158  1  0.25206066  0.42055502  0.91920249  1
  Te  Te159  1  0.23908500  0.72517741  0.23591170  1
  Te  Te160  1  0.24603607  0.74029695  0.57857598  1
  Te  Te161  1  0.24874107  0.74393008  0.89991881  1
  Te  Te162  1  0.60060312  0.09221169  0.22475502  1
  Te  Te163  1  0.59731446  0.08771858  0.58377629  1
  Te  Te164  1  0.59722009  0.04703482  0.97678333  1
  Te  Te165  1  0.57972477  0.41289792  0.26893382  1
  Te  Te166  1  0.58295194  0.40568298  0.58032884  1
  Te  Te167  1  0.59506113  0.41890732  0.92450354  1
  Te  Te168  1  0.57994129  0.73119847  0.24734411  1
  Te  Te169  1  0.57534530  0.76860587  0.59003294  1
  Te  Te170  1  0.57228305  0.72531934  0.91733463  1
  Te  Te171  1  0.91179512  0.07593155  0.21808018  1
  Te  Te172  1  0.91722574  0.07679234  0.60224011  1
  Te  Te173  1  0.89359296  0.09823910  0.93955495  1
  Te  Te174  1  0.92398487  0.41308982  0.25024435  1
  Te  Te175  1  0.92146900  0.43919296  0.58406295  1
  Te  Te176  1  0.90324265  0.41802148  0.92578000  1
  Te  Te177  1  0.91581415  0.74683873  0.25359588  1
  Te  Te178  1  0.92252367  0.77010703  0.58050914  1
  Te  Te179  1  0.89905757  0.77215767  0.93518087  1
