# generated using pymatgen
data_In2Te3
_symmetry_space_group_name_H-M   'P 1'
_cell_length_a   18.78132289
_cell_length_b   18.77971311
_cell_length_c   18.78910561
_cell_angle_alpha   90.00041273
_cell_angle_beta   89.86374680
_cell_angle_gamma   90.01053283
_symmetry_Int_Tables_number   1
_chemical_formula_structural   In2Te3
_chemical_formula_sum   'In72 Te108'
_cell_volume   6627.04630025
_cell_formula_units_Z   36
loop_
 _symmetry_equiv_pos_site_id
 _symmetry_equiv_pos_as_xyz
  1  'x, y, z'
loop_
 _atom_site_type_symbol
 _atom_site_label
 _atom_site_symmetry_multiplicity
 _atom_site_fract_x
 _atom_site_fract_y
 _atom_site_fract_z
 _atom_site_occupancy
  In  In0  1  0.68282903  0.32130571  0.66289833  1
  In  In1  1  -0.01366922  0.67614571  0.64845035  1
  In  In2  1  0.51929728  0.83659833  0.36071074  1
  In  In3  1  0.81097480  0.50545264  0.65378651  1
  In  In4  1  0.00125895  -0.00723064  0.68337858  1
  In  In5  1  -0.02519240  0.14844354  0.19412103  1
  In  In6  1  0.18877884  0.85247075  0.66857524  1
  In  In7  1  0.50610888  0.35359415  0.16714864  1
  In  In8  1  -0.00920297  0.48686985  0.83874104  1
  In  In9  1  0.84637859  0.52990092  0.34037534  1
  In  In10  1  0.14543286  -0.02770492  0.18475537  1
  In  In11  1  0.83148344  0.15514070  0.00483868  1
  In  In12  1  -0.01429126  0.50643541  0.16684527  1
  In  In13  1  0.13173804  0.15588139  0.33306537  1
  In  In14  1  0.69891833  0.84621827  0.18993682  1
  In  In15  1  0.51812159  0.15137662  0.32699190  1
  In  In16  1  0.67044727  0.52825034  0.49029010  1
  In  In17  1  0.32485189  -0.02257721  0.33222551  1
  In  In18  1  0.50067908  0.32129479  0.83653672  1
  In  In19  1  0.17237810  0.51850857  0.66743285  1
  In  In20  1  -0.00498839  0.83995553  0.47442747  1
  In  In21  1  0.17184623  0.01748853  0.46521396  1
  In  In22  1  0.51074030  0.50787956  0.32794957  1
  In  In23  1  -0.01346682  0.34354792  0.00826111  1
  In  In24  1  0.68176920  0.35174224  0.03465415  1
  In  In25  1  -0.04096073  0.32965020  0.66105124  1
  In  In26  1  -0.01817082  0.00069101  0.00340252  1
  In  In27  1  0.68204141  0.83652120  0.83466534  1
  In  In28  1  -0.00644615  0.33018746  0.31735310  1
  In  In29  1  0.17546732  0.17557870  0.00080721  1
  In  In30  1  0.51281061  0.65111805  0.16367905  1
  In  In31  1  0.50624714  0.66221498  0.84256857  1
  In  In32  1  0.35826872  0.66239803  0.67623256  1
  In  In33  1  0.81734499  -0.00070273  0.48840622  1
  In  In34  1  0.15307192  0.67189517  0.82901712  1
  In  In35  1  0.33544968  0.82169775  0.82335807  1
  In  In36  1  0.16170568  0.51047165  0.31790823  1
  In  In37  1  0.32450052  0.36194430  0.32822430  1
  In  In38  1  0.15260009  0.82544933  0.02192538  1
  In  In39  1  0.49108915  0.51072268  0.00809751  1
  In  In40  1  0.68743625  0.13994180  0.17581356  1
  In  In41  1  0.15810392  0.34970946  0.85967464  1
  In  In42  1  0.33081525  0.86355497  0.49042549  1
  In  In43  1  0.54234970  -0.00393672  0.49963406  1
  In  In44  1  0.84247528  0.67789134  0.18573002  1
  In  In45  1  -0.02315573  0.82998566  0.85861877  1
  In  In46  1  -0.02299212  0.67996954  0.02209797  1
  In  In47  1  0.15669434  0.68257410  0.48100383  1
  In  In48  1  0.83164568  0.32989867  0.50848418  1
  In  In49  1  0.83115278  0.83463747  0.01266322  1
  In  In50  1  0.68812903  0.51716829  0.84872962  1
  In  In51  1  0.51499532  -0.01516216  0.83006335  1
  In  In52  1  0.33765125  0.67276972  0.31789335  1
  In  In53  1  0.19460736  0.53761969  0.02458080  1
  In  In54  1  0.34201993  0.33862207  0.66355095  1
  In  In55  1  0.16029401  0.36016026  0.49214577  1
  In  In56  1  0.50229521  0.17109570  -0.02035019  1
  In  In57  1  0.50189103  0.82428855  0.01071616  1
  In  In58  1  0.68399798  0.14536865  0.84083902  1
  In  In59  1  0.83689036  0.15089768  0.69326270  1
  In  In60  1  0.34156613  0.18027319  0.49908246  1
  In  In61  1  0.51173146  0.50410125  0.66694470  1
  In  In62  1  0.32798462  0.82160638  0.16456992  1
  In  In63  1  0.64915581  0.32261989  0.32359627  1
  In  In64  1  0.33611598  0.16498281  0.84038676  1
  In  In65  1  0.51301107  0.02063711  0.16239853  1
  In  In66  1  0.50099296  0.31999452  0.47608650  1
  In  In67  1  0.01096021  0.15943884  0.47500595  1
  In  In68  1  0.35878928  -0.01667097  0.67474324  1
  In  In69  1  0.33361315  0.17664421  0.15356603  1
  In  In70  1  0.83073783  0.83050352  0.65408750  1
  In  In71  1  0.15344280  0.15010000  0.67203634  1
  Te  Te72  1  0.08072122  0.08134084  0.09670551  1
  Te  Te73  1  0.04430737  0.04060089  0.38291705  1
  Te  Te74  1  0.07773874  0.07861187  0.77539101  1
  Te  Te75  1  0.08620921  0.43548360  0.07674544  1
  Te  Te76  1  0.05916984  0.43419934  0.40677749  1
  Te  Te77  1  0.08429765  0.41170568  0.73320304  1
  Te  Te78  1  0.08947547  0.72165015  0.10974572  1
  Te  Te79  1  0.04904961  0.72765831  0.38675973  1
  Te  Te80  1  0.07210319  0.76866046  0.73824627  1
  Te  Te81  1  0.41118629  0.07842141  0.06579151  1
  Te  Te82  1  0.41425771  0.07081584  0.41745399  1
  Te  Te83  1  0.43548737  0.09102644  0.74999780  1
  Te  Te84  1  0.40392780  0.41634994  0.08388691  1
  Te  Te85  1  0.41612660  0.43533404  0.42574672  1
  Te  Te86  1  0.41837412  0.42641510  0.76176924  1
  Te  Te87  1  0.40175705  0.72369935  0.07163473  1
  Te  Te88  1  0.41304696  0.75013885  0.42739830  1
  Te  Te89  1  0.45079453  0.76431375  0.74127007  1
  Te  Te90  1  0.75645614  0.05070097  0.08038177  1
  Te  Te91  1  0.76780905  0.08943225  0.38260385  1
  Te  Te92  1  0.73487785  0.05306537  0.73691469  1
  Te  Te93  1  0.78146986  0.44118746  0.09377016  1
  Te  Te94  1  0.74352210  0.41309500  0.41473361  1
  Te  Te95  1  0.76002332  0.40809088  0.75964191  1
  Te  Te96  1  0.74065509  0.73976825  0.08790825  1
  Te  Te97  1  0.69524334  0.74557750  0.42218702  1
  Te  Te98  1  0.75602771  0.74098570  0.74610822  1
  Te  Te99  1  0.08791047  0.25513118  0.22661411  1
  Te  Te100  1  0.08315537  0.25460584  0.57499351  1
  Te  Te101  1  0.06628348  0.24477804  0.91886406  1
  Te  Te102  1  0.07083270  0.60202905  0.24135373  1
  Te  Te103  1  0.07747466  0.58309178  0.56792847  1
  Te  Te104  1  0.06818153  0.58906255  0.92555970  1
  Te  Te105  1  0.02884064  0.89660505  0.23680127  1
  Te  Te106  1  0.08991379  0.92075663  0.57306272  1
  Te  Te107  1  0.08436912  0.91721030  0.92004817  1
  Te  Te108  1  0.42162378  0.25327084  0.26440351  1
  Te  Te109  1  0.44017923  0.24313931  0.59675659  1
  Te  Te110  1  0.39483739  0.27047170  0.93461424  1
  Te  Te111  1  0.40528639  0.56446072  0.23241169  1
  Te  Te112  1  0.43207230  0.58656753  0.57412915  1
  Te  Te113  1  0.40387601  0.58314183  0.91198447  1
  Te  Te114  1  0.42998760  0.90848983  0.24399624  1
  Te  Te115  1  0.44891865  0.90392460  0.58048880  1
  Te  Te116  1  0.41501200  0.91112949  0.92018333  1
  Te  Te117  1  0.75022463  0.25830280  0.23775846  1
  Te  Te118  1  0.75668464  0.21718632  0.57863042  1
  Te  Te119  1  0.74215488  0.25606604  0.93066671  1
  Te  Te120  1  0.74228744  0.60413530  0.26598873  1
  Te  Te121  1  0.73438609  0.61995392  0.59198203  1
  Te  Te122  1  0.78415010  0.59557353  0.92625192  1
  Te  Te123  1  0.79527627  0.92829117  0.26852952  1
  Te  Te124  1  0.73260464  0.92204253  0.58690687  1
  Te  Te125  1  0.75552546  0.92794022  0.92719768  1
  Te  Te126  1  0.24585346  0.27345620  0.08668237  1
  Te  Te127  1  0.23752922  0.24923173  0.40843046  1
  Te  Te128  1  0.24287154  0.25502132  0.74596992  1
  Te  Te129  1  0.27698563  0.62313738  0.11144448  1
  Te  Te130  1  0.25400179  0.58497498  0.41443717  1
  Te  Te131  1  0.26420562  0.58414611  0.76886108  1
  Te  Te132  1  0.25208772  0.92644436  0.08403975  1
  Te  Te133  1  0.21654446  0.88808351  0.39231567  1
  Te  Te134  1  0.24883033  0.94192201  0.77348062  1
  Te  Te135  1  0.57977941  0.23829964  0.09446662  1
  Te  Te136  1  0.60849888  0.21395884  0.43726613  1
  Te  Te137  1  0.59384868  0.23510050  0.75287425  1
  Te  Te138  1  0.60474120  0.57705381  0.07518330  1
  Te  Te139  1  0.58155725  0.61748428  0.40615362  1
  Te  Te140  1  0.60481054  0.59509004  0.74620465  1
  Te  Te141  1  0.59512075  0.91265734  0.09188879  1
  Te  Te142  1  0.63744460  0.89710065  0.43265506  1
  Te  Te143  1  0.59900752  0.91066179  0.73381213  1
  Te  Te144  1  0.90703629  0.24744906  0.09995033  1
  Te  Te145  1  0.90438451  0.24229569  0.40438067  1
  Te  Te146  1  0.91909347  0.24406881  0.77281379  1
  Te  Te147  1  0.88226776  0.55881900  0.06469056  1
  Te  Te148  1  0.91639850  0.62266062  0.42959640  1
  Te  Te149  1  0.91427077  0.57960883  0.74152971  1
  Te  Te150  1  0.93718370  0.89533129  0.10240726  1
  Te  Te151  1  0.86593915  0.87950036  0.40641792  1
  Te  Te152  1  0.89590413  0.91805773  0.76417859  1
  Te  Te153  1  0.24966145  0.08416346  0.25159076  1
  Te  Te154  1  0.26077289  0.07262527  0.58442290  1
  Te  Te155  1  0.25361519  0.07664836  0.92410994  1
  Te  Te156  1  0.23510891  0.41789502  0.22731069  1
  Te  Te157  1  0.26395102  0.43562203  0.57543696  1
  Te  Te158  1  0.25107707  0.44375605  0.92288085  1
  Te  Te159  1  0.22949282  0.74482207  0.24441375  1
  Te  Te160  1  0.25761324  0.74520852  0.58562842  1
  Te  Te161  1  0.24491970  0.74887357  0.92290586  1
  Te  Te162  1  0.61258574  0.04448425  0.27644650  1
  Te  Te163  1  0.59483124  0.11741001  0.55970979  1
  Te  Te164  1  0.59721369  0.06116790  0.93449700  1
  Te  Te165  1  0.61091892  0.44195755  0.23412234  1
  Te  Te166  1  0.59392276  0.40853880  0.57180293  1
  Te  Te167  1  0.59039919  0.41328897  0.91896256  1
  Te  Te168  1  0.58423832  0.75825137  0.24562922  1
  Te  Te169  1  0.61672456  0.71884312  0.54293943  1
  Te  Te170  1  0.60033275  0.74026422  0.93200487  1
  Te  Te171  1  0.86985835  0.06969529  0.26425410  1
  Te  Te172  1  0.92791304  0.07955692  0.57886719  1
  Te  Te173  1  0.90925880  0.07946725  0.90255710  1
  Te  Te174  1  0.88991710  0.41326360  0.24172174  1
  Te  Te175  1  0.91950694  0.44089961  0.56525217  1
  Te  Te176  1  0.89163565  0.40852331  0.91472853  1
  Te  Te177  1  0.92593452  0.77841637  0.25399340  1
  Te  Te178  1  0.89462712  0.73469606  0.54045693  1
  Te  Te179  1  0.88130177  0.71957915  0.90437140  1
