# generated using pymatgen
data_In2Te3
_symmetry_space_group_name_H-M   'P 1'
_cell_length_a   18.77414064
_cell_length_b   18.78324262
_cell_length_c   18.77175297
_cell_angle_alpha   90.05671474
_cell_angle_beta   90.06640860
_cell_angle_gamma   90.02135050
_symmetry_Int_Tables_number   1
_chemical_formula_structural   In2Te3
_chemical_formula_sum   'In72 Te108'
_cell_volume   6619.64852500
_cell_formula_units_Z   36
loop_
 _symmetry_equiv_pos_site_id
 _symmetry_equiv_pos_as_xyz
  1  'x, y, z'
loop_
 _atom_site_type_symbol
 _atom_site_label
 _atom_site_symmetry_multiplicity
 _atom_site_fract_x
 _atom_site_fract_y
 _atom_site_fract_z
 _atom_site_occupancy
  In  In0  1  0.66020728  0.34900449  0.00184140  1
  In  In1  1  0.80909243  0.51749977  0.32231806  1
  In  In2  1  0.81902364  0.84358095  0.32567059  1
  In  In3  1  0.72043796  0.31831846  0.64080767  1
  In  In4  1  0.35188502  0.53424289  0.50439849  1
  In  In5  1  0.82693555  0.50822480  -0.00001934  1
  In  In6  1  0.32286232  0.34896513  0.28875202  1
  In  In7  1  0.17246472  0.61889613  0.83839917  1
  In  In8  1  -0.02663680  0.81606712  0.16947843  1
  In  In9  1  0.31163108  0.50531971  0.83584984  1
  In  In10  1  -0.01884190  0.00285484  0.32917769  1
  In  In11  1  0.50680950  0.50402695  0.31705787  1
  In  In12  1  0.01951119  0.32114865  0.32272488  1
  In  In13  1  0.82529176  0.14392812  0.02319696  1
  In  In14  1  0.50359892  0.51640759  0.66698824  1
  In  In15  1  0.52432423  0.86082450  0.02084878  1
  In  In16  1  0.00970008  0.50400634  0.14988348  1
  In  In17  1  0.81886754  0.65380561  0.49597083  1
  In  In18  1  0.31541095  0.66318739  0.00989750  1
  In  In19  1  0.64826157  0.82800284  0.83309363  1
  In  In20  1  0.00719834  0.84267503  0.83278032  1
  In  In21  1  0.64701113  0.69737089  0.33136231  1
  In  In22  1  0.34005292  0.33728098  0.66503410  1
  In  In23  1  -0.01236555  -0.00704607  0.01528234  1
  In  In24  1  -0.01922019  0.65052661  0.67301353  1
  In  In25  1  0.00360355  0.02855531  0.64557261  1
  In  In26  1  0.66438323  0.50788143  0.49127603  1
  In  In27  1  0.17404934  0.34169636  0.84702832  1
  In  In28  1  0.81369214  0.00666633  0.83663193  1
  In  In29  1  0.81563803  0.83993213  0.65659251  1
  In  In30  1  -0.00887430  0.65036496  -0.01900840  1
  In  In31  1  0.67671800  0.01620890  0.34528736  1
  In  In32  1  0.19569177  0.01215000  0.85184440  1
  In  In33  1  0.19986487  0.83886404  0.03935896  1
  In  In34  1  0.66072982  0.15796039  0.16967159  1
  In  In35  1  -0.01586759  0.15250107  0.48520043  1
  In  In36  1  0.17634064  0.82955099  0.33204255  1
  In  In37  1  0.18734109  0.81493070  0.66104066  1
  In  In38  1  0.16724590  0.14241831  0.65123632  1
  In  In39  1  0.16877232  0.33917046  0.48060314  1
  In  In40  1  0.48661760  0.13733081  0.01054043  1
  In  In41  1  0.00152194  0.84342980  0.46923413  1
  In  In42  1  0.17987217  0.00603057  0.16428399  1
  In  In43  1  0.51823872  0.33556022  0.46950607  1
  In  In44  1  0.35862143  0.15007900  0.82326403  1
  In  In45  1  -0.03444025  0.32835198  0.64931725  1
  In  In46  1  0.51133543  0.65757175  0.15972695  1
  In  In47  1  0.03026175  0.34185928  0.00672026  1
  In  In48  1  0.50168186  0.15024326  0.67818473  1
  In  In49  1  0.17742588  0.51185548  0.69853928  1
  In  In50  1  0.48653902  0.18552255  0.32562378  1
  In  In51  1  0.32516383  0.84594723  0.17364657  1
  In  In52  1  -0.00843491  0.46649899  0.49434648  1
  In  In53  1  0.34443132  0.33224479  0.06637441  1
  In  In54  1  0.17513386  0.01714170  0.49218993  1
  In  In55  1  0.00863916  0.15164464  0.18467912  1
  In  In56  1  0.64493965  0.16288951  0.84803623  1
  In  In57  1  0.66319262  -0.00830778  0.67511856  1
  In  In58  1  0.82288196  0.33151145  0.16368710  1
  In  In59  1  0.18020331  0.66710921  0.16983864  1
  In  In60  1  0.52386610  0.33738677  0.86814671  1
  In  In61  1  0.00281442  0.52658190  0.84443616  1
  In  In62  1  0.83082905  0.32819173  0.81212908  1
  In  In63  1  0.82527373  0.67416010  0.82195709  1
  In  In64  1  0.66256241  0.33825101  0.31461447  1
  In  In65  1  0.50457357  -0.03502027  0.50886116  1
  In  In66  1  0.31635955  0.16299482  0.49874900  1
  In  In67  1  0.34558999  -0.00472790  0.31172002  1
  In  In68  1  0.50279173  0.67053060  0.83855861  1
  In  In69  1  0.17214835  0.65680695  0.49037891  1
  In  In70  1  0.35939341  0.83146627  0.85547799  1
  In  In71  1  0.79307967  0.80952304  0.04392182  1
  Te  Te72  1  0.09175454  0.08991120  0.07094949  1
  Te  Te73  1  0.09158588  0.09243700  0.39066230  1
  Te  Te74  1  0.08475290  0.07978405  0.76342969  1
  Te  Te75  1  0.11777028  0.40494052  0.11274007  1
  Te  Te76  1  0.09876751  0.43726102  0.38808710  1
  Te  Te77  1  0.07066838  0.41459164  0.75293851  1
  Te  Te78  1  0.07831358  0.74849301  0.07235012  1
  Te  Te79  1  0.07578396  0.73376660  0.39582322  1
  Te  Te80  1  0.08158605  0.73381703  0.75377600  1
  Te  Te81  1  0.40069836  0.07064125  0.11134285  1
  Te  Te82  1  0.42143682  0.07876700  0.42404955  1
  Te  Te83  1  0.42621629  0.04326577  0.74617150  1
  Te  Te84  1  0.44938294  0.43481868  0.09870249  1
  Te  Te85  1  0.40253662  0.41348926  0.41287249  1
  Te  Te86  1  0.42221460  0.41622946  0.76571830  1
  Te  Te87  1  0.41384710  0.76003202  0.07369886  1
  Te  Te88  1  0.46549011  0.80853469  0.43918683  1
  Te  Te89  1  0.44309765  0.77284121  0.74554150  1
  Te  Te90  1  0.70809730  0.06173031  0.06267496  1
  Te  Te91  1  0.75139255  0.10721174  0.43492967  1
  Te  Te92  1  0.74318990  0.10449797  0.74496225  1
  Te  Te93  1  0.73590718  0.43812999  0.10269169  1
  Te  Te94  1  0.75311166  0.40888959  0.41477735  1
  Te  Te95  1  0.72388024  0.41116682  0.75491880  1
  Te  Te96  1  0.73853466  0.70317960  0.12746767  1
  Te  Te97  1  0.73856707  0.76583348  0.43341335  1
  Te  Te98  1  0.72383033  0.74292146  0.72860367  1
  Te  Te99  1  0.11530739  0.24920816  0.22969776  1
  Te  Te100  1  0.08688409  0.25092627  0.57619365  1
  Te  Te101  1  0.08793445  0.24283268  0.91457550  1
  Te  Te102  1  0.07142655  0.60087733  0.24338423  1
  Te  Te103  1  0.07737316  0.57011542  0.58500417  1
  Te  Te104  1  0.10484253  0.54998449  0.95680113  1
  Te  Te105  1  0.08256138  0.91239957  0.24184876  1
  Te  Te106  1  0.08812911  0.91618364  0.57995978  1
  Te  Te107  1  0.09603652  0.91659452  0.93411672  1
  Te  Te108  1  0.41517613  0.25669262  0.21407567  1
  Te  Te109  1  0.42275314  0.24865202  0.57291949  1
  Te  Te110  1  0.41154379  0.25407101  0.92839502  1
  Te  Te111  1  0.41162395  0.59807758  0.25446808  1
  Te  Te112  1  0.44509376  0.62443120  0.57988587  1
  Te  Te113  1  0.41086878  0.58174641  0.92437683  1
  Te  Te114  1  0.44390095  0.89995636  0.25049094  1
  Te  Te115  1  0.42124071  0.86554498  0.58499419  1
  Te  Te116  1  0.43911867  0.93837072  0.92414359  1
  Te  Te117  1  0.76065957  0.23207591  0.25891813  1
  Te  Te118  1  0.76870013  0.21845132  0.54611495  1
  Te  Te119  1  0.75396752  0.24632606  0.92851127  1
  Te  Te120  1  0.71036790  0.59381110  0.23794854  1
  Te  Te121  1  0.72901709  0.59216532  0.59446254  1
  Te  Te122  1  0.74473338  0.60575237  0.92513786  1
  Te  Te123  1  0.72436495  0.91954463  0.23556194  1
  Te  Te124  1  0.72581957  0.91221489  0.56602468  1
  Te  Te125  1  0.74938100  0.90052963  0.92213543  1
  Te  Te126  1  0.23857730  0.24743730  0.12694320  1
  Te  Te127  1  0.25356409  0.25006097  0.39146186  1
  Te  Te128  1  0.24811435  0.24378360  0.74218332  1
  Te  Te129  1  0.27108925  0.56021604  0.11053371  1
  Te  Te130  1  0.25811188  0.57745045  0.39893982  1
  Te  Te131  1  0.28501836  0.61473939  0.72904668  1
  Te  Te132  1  0.29690653  0.95884722  0.06558682  1
  Te  Te133  1  0.26513646  0.91822893  0.41845522  1
  Te  Te134  1  0.25848493  0.90680713  0.75951625  1
  Te  Te135  1  0.57737073  0.24490743  0.07597105  1
  Te  Te136  1  0.60662225  0.22765736  0.41332252  1
  Te  Te137  1  0.58335548  0.26122377  0.74533636  1
  Te  Te138  1  0.55225837  0.54659147  0.06946230  1
  Te  Te139  1  0.56695407  0.59973267  0.41980642  1
  Te  Te140  1  0.59604226  0.58559854  0.75888974  1
  Te  Te141  1  0.62678205  0.92245744  0.11013333  1
  Te  Te142  1  0.58823931  0.90385540  0.39795460  1
  Te  Te143  1  0.55986366  0.90613101  0.74148104  1
  Te  Te144  1  0.92590081  0.25037200  0.08446473  1
  Te  Te145  1  0.91907870  0.26469194  0.41454477  1
  Te  Te146  1  0.91772878  0.22896911  0.74570788  1
  Te  Te147  1  0.90234416  0.60145859  0.09599968  1
  Te  Te148  1  0.91884335  0.57613375  0.41215613  1
  Te  Te149  1  0.88826732  0.55569800  0.74574444  1
  Te  Te150  1  0.88665542  0.92219726  0.10318780  1
  Te  Te151  1  0.88865590  0.93546399  0.42953710  1
  Te  Te152  1  0.91530435  0.92517064  0.74085004  1
  Te  Te153  1  0.27917186  0.10212349  0.22682727  1
  Te  Te154  1  0.27988297  0.05335629  0.60013371  1
  Te  Te155  1  0.26151220  0.11719572  0.93067730  1
  Te  Te156  1  0.23703233  0.44697455  0.21784434  1
  Te  Te157  1  0.24915301  0.42676267  0.58125532  1
  Te  Te158  1  0.26781721  0.40756710  0.94415679  1
  Te  Te159  1  0.27876743  0.73582002  0.27062916  1
  Te  Te160  1  0.26615271  0.75388446  0.55321924  1
  Te  Te161  1  0.23632078  0.74801129  0.90849313  1
  Te  Te162  1  0.56463206  0.07567864  0.25359358  1
  Te  Te163  1  0.58544701  0.08134566  0.57367270  1
  Te  Te164  1  0.56652488  0.05419738  0.91255772  1
  Te  Te165  1  0.55807540  0.39781261  0.22481869  1
  Te  Te166  1  0.58526392  0.40712982  0.58481418  1
  Te  Te167  1  0.59777160  0.45686061  0.91878873  1
  Te  Te168  1  0.55332681  0.77664405  0.24378934  1
  Te  Te169  1  0.54392726  0.76331299  0.55659437  1
  Te  Te170  1  0.58885332  0.74361465  0.94527654  1
  Te  Te171  1  0.89210889  0.08089556  0.24096797  1
  Te  Te172  1  0.88502442  0.08706896  0.57801606  1
  Te  Te173  1  0.91851404  0.08644075  0.91491668  1
  Te  Te174  1  0.91473628  0.42075009  0.24908956  1
  Te  Te175  1  0.87758985  0.42446474  0.58039839  1
  Te  Te176  1  0.91832799  0.41368268  0.91912676  1
  Te  Te177  1  0.90475448  0.73592901  0.27147499  1
  Te  Te178  1  0.92621652  0.75536965  0.57666510  1
  Te  Te179  1  0.90729983  0.76787614  0.92236234  1
