# generated using pymatgen
data_In2Te3
_symmetry_space_group_name_H-M   'P 1'
_cell_length_a   18.81568572
_cell_length_b   18.82192635
_cell_length_c   18.81804814
_cell_angle_alpha   90.03655322
_cell_angle_beta   90.07245400
_cell_angle_gamma   89.88822161
_symmetry_Int_Tables_number   1
_chemical_formula_structural   In2Te3
_chemical_formula_sum   'In72 Te108'
_cell_volume   6664.34442061
_cell_formula_units_Z   36
loop_
 _symmetry_equiv_pos_site_id
 _symmetry_equiv_pos_as_xyz
  1  'x, y, z'
loop_
 _atom_site_type_symbol
 _atom_site_label
 _atom_site_symmetry_multiplicity
 _atom_site_fract_x
 _atom_site_fract_y
 _atom_site_fract_z
 _atom_site_occupancy
  In  In0  1  0.82984031  0.82887715  0.01752113  1
  In  In1  1  0.49086116  0.66908073  0.86765676  1
  In  In2  1  0.00197028  0.83284549  0.83345556  1
  In  In3  1  0.16341637  0.51425303  -0.02429618  1
  In  In4  1  0.14683314  0.02035345  0.16845402  1
  In  In5  1  0.85970446  0.50162530  -0.00610739  1
  In  In6  1  0.15292993  0.83732620  0.65032263  1
  In  In7  1  0.32850919  0.32865603  0.66687639  1
  In  In8  1  0.69363934  0.81660144  0.49762644  1
  In  In9  1  0.32794010  0.49360878  0.16802975  1
  In  In10  1  0.69640461  -0.00057128  0.31554240  1
  In  In11  1  -0.00697681  0.00889191  0.01718555  1
  In  In12  1  0.31135328  0.82776109  0.53711953  1
  In  In13  1  0.30393065  0.01111583  0.68568023  1
  In  In14  1  0.84977019  0.80063779  0.65484866  1
  In  In15  1  0.66614411  0.50281629  0.15062446  1
  In  In16  1  0.68508724  0.68054264  0.33103854  1
  In  In17  1  0.85001183  0.48192192  0.31967842  1
  In  In18  1  0.15507025  0.82170778  0.35530566  1
  In  In19  1  0.51419954  0.83357147  0.01407552  1
  In  In20  1  0.13396241  0.01282573  0.51908235  1
  In  In21  1  0.52821978  0.84148743  0.67745145  1
  In  In22  1  0.86950489  0.03523711  0.51682030  1
  In  In23  1  0.33607290  0.01235756  0.00880241  1
  In  In24  1  0.85137627  0.33669393  0.49699670  1
  In  In25  1  0.16650696  0.66650665  0.82979086  1
  In  In26  1  0.32374744  0.00260188  0.32914891  1
  In  In27  1  0.00656603  0.67092637  0.00620672  1
  In  In28  1  0.29568403  0.34924013  0.02002029  1
  In  In29  1  0.67289400  0.49683591  0.81473142  1
  In  In30  1  0.30687664  0.66882024  0.66739072  1
  In  In31  1  0.51649451  0.35204245  0.49329296  1
  In  In32  1  0.49176711  0.48456765  0.66580651  1
  In  In33  1  0.48571526  0.66360578  0.47716103  1
  In  In34  1  0.15569049  0.02958984  0.82978446  1
  In  In35  1  0.29119351  0.20462894  0.46925545  1
  In  In36  1  0.33004913  0.80561961  0.86289077  1
  In  In37  1  0.68471150  0.32685731  0.64154323  1
  In  In38  1  0.49069151  0.15559220  0.67211136  1
  In  In39  1  0.84152125  -0.02299523  0.16915972  1
  In  In40  1  0.32646879  0.15549146  0.81698353  1
  In  In41  1  0.31833201  0.65290767  0.00228812  1
  In  In42  1  0.01027502  0.32667509  -0.02394318  1
  In  In43  1  0.32053888  0.64317117  0.33940656  1
  In  In44  1  -0.01544108  0.67663313  0.31019804  1
  In  In45  1  0.67805517  -0.00197837  0.68307345  1
  In  In46  1  0.84973223  0.19118255  0.00197753  1
  In  In47  1  0.66242236  -0.01441686  0.00808834  1
  In  In48  1  0.51434632  0.33351643  0.85442007  1
  In  In49  1  0.69967517  0.65288447  0.67272392  1
  In  In50  1  0.67624590  0.65878763  -0.00071997  1
  In  In51  1  0.49258025  0.18218342  0.32811581  1
  In  In52  1  0.85347428  0.16498803  0.33745680  1
  In  In53  1  0.47652131  0.32174527  0.16392579  1
  In  In54  1  0.31951433  0.83238106  0.16786990  1
  In  In55  1  0.14891117  0.32420464  0.18554770  1
  In  In56  1  0.48378742  0.16863456  0.02104531  1
  In  In57  1  -0.00055224  0.50524795  0.18000436  1
  In  In58  1  0.51147182  0.00050178  0.50173321  1
  In  In59  1  0.68729142  0.33954417  -0.01200556  1
  In  In60  1  0.48987440  0.50328446  0.34236212  1
  In  In61  1  0.86936966  0.52637895  0.67138860  1
  In  In62  1  0.67716180  0.32556312  0.33449835  1
  In  In63  1  0.51408652  0.81486117  0.31736069  1
  In  In64  1  0.68114537  0.16324429  0.18887358  1
  In  In65  1  0.00304337  0.48394905  0.50778051  1
  In  In66  1  0.12545490  0.46798055  0.69318487  1
  In  In67  1  0.30384615  0.48804646  0.47699188  1
  In  In68  1  0.84506655  0.01385328  0.82512957  1
  In  In69  1  -0.00040631  0.00603188  0.33330272  1
  In  In70  1  0.68072161  0.15815240  0.84819183  1
  In  In71  1  0.10431184  0.20376930  0.64900999  1
  Te  Te72  1  0.07952539  0.11477247  0.07523049  1
  Te  Te73  1  0.08853668  0.10227389  0.40839792  1
  Te  Te74  1  0.07609113  0.06062607  0.70739264  1
  Te  Te75  1  0.08353331  0.42727670  0.07555247  1
  Te  Te76  1  0.08330073  0.39729290  0.41497056  1
  Te  Te77  1  0.05593944  0.38391848  0.79902469  1
  Te  Te78  1  0.11592180  0.74072677  0.07244373  1
  Te  Te79  1  0.04483457  0.75246713  0.43017254  1
  Te  Te80  1  0.06818845  0.73550679  0.73426145  1
  Te  Te81  1  0.41008166  0.08415740  0.11469900  1
  Te  Te82  1  0.40990202  0.08803415  0.42754955  1
  Te  Te83  1  0.42876418  0.05366193  0.76619743  1
  Te  Te84  1  0.42016441  0.42404416  0.06651602  1
  Te  Te85  1  0.40161497  0.39590053  0.40253355  1
  Te  Te86  1  0.41072055  0.40970761  0.76797325  1
  Te  Te87  1  0.41032442  0.74368576  0.08282354  1
  Te  Te88  1  0.39339140  0.76808490  0.41511902  1
  Te  Te89  1  0.41301854  0.75078008  0.74154622  1
  Te  Te90  1  0.76123043  0.08493659  0.07703472  1
  Te  Te91  1  0.75313707  0.08893912  0.42243491  1
  Te  Te92  1  0.76985679  0.10988126  0.73323254  1
  Te  Te93  1  0.77482684  0.41461927  0.08734788  1
  Te  Te94  1  0.74986572  0.42519987  0.42141238  1
  Te  Te95  1  0.76818709  0.41701291  0.73141157  1
  Te  Te96  1  0.73408776  0.75260837  0.09890116  1
  Te  Te97  1  0.79397459  0.74257012  0.41562232  1
  Te  Te98  1  0.74966458  0.76216046  0.75532882  1
  Te  Te99  1  0.11313887  0.21131935  0.28146364  1
  Te  Te100  1  0.07658973  0.28608831  0.52208213  1
  Te  Te101  1  0.07531412  0.24660500  0.86666213  1
  Te  Te102  1  0.09214387  0.58209202  0.26848674  1
  Te  Te103  1  0.07661890  0.57277122  0.60147427  1
  Te  Te104  1  0.04991891  0.57593520  0.88558943  1
  Te  Te105  1  0.08232839  0.90606812  0.25158030  1
  Te  Te106  1  0.04809129  0.89596286  0.55908296  1
  Te  Te107  1  0.08304220  0.93008441  0.91898396  1
  Te  Te108  1  0.38536417  0.24444207  0.24841791  1
  Te  Te109  1  0.42338877  0.25296672  0.57409390  1
  Te  Te110  1  0.40494574  0.24752778  0.91688339  1
  Te  Te111  1  0.42380965  0.59210350  0.23919954  1
  Te  Te112  1  0.40385858  0.57534852  0.57149596  1
  Te  Te113  1  0.38904564  0.57080297  0.90242129  1
  Te  Te114  1  0.41929491  0.91585749  0.24833400  1
  Te  Te115  1  0.41591172  0.92481029  0.59584093  1
  Te  Te116  1  0.41766003  0.91343651  0.92378081  1
  Te  Te117  1  0.78038970  0.26456401  0.24165137  1
  Te  Te118  1  0.77275490  0.23373023  0.57092437  1
  Te  Te119  1  0.77778629  0.26864263  0.88828771  1
  Te  Te120  1  0.76074912  0.57940297  0.24187341  1
  Te  Te121  1  0.78093964  0.58948335  0.57023685  1
  Te  Te122  1  0.76539842  0.58157597  0.90147871  1
  Te  Te123  1  0.75973675  0.87943003  0.25041728  1
  Te  Te124  1  0.76527749  0.92404068  0.57930734  1
  Te  Te125  1  0.76260729  0.92060853  0.91352697  1
  Te  Te126  1  0.22369320  0.24066490  0.08621772  1
  Te  Te127  1  0.20485554  0.29891543  0.38824588  1
  Te  Te128  1  0.22922528  0.24436241  0.74317028  1
  Te  Te129  1  0.22504077  0.58391911  0.09979297  1
  Te  Te130  1  0.20630652  0.57637423  0.40685543  1
  Te  Te131  1  0.24212214  0.56120119  0.74995647  1
  Te  Te132  1  0.23503879  0.92637726  0.08344924  1
  Te  Te133  1  0.24105888  0.92787985  0.43615497  1
  Te  Te134  1  0.24316884  0.89455553  0.76479904  1
  Te  Te135  1  0.60225632  0.25429570  0.08452545  1
  Te  Te136  1  0.59481069  0.23799748  0.42736404  1
  Te  Te137  1  0.58886379  0.25389553  0.74786017  1
  Te  Te138  1  0.57130531  0.58094016  0.07004614  1
  Te  Te139  1  0.59726499  0.58187141  0.41481162  1
  Te  Te140  1  0.56777475  0.59243674  0.74572633  1
  Te  Te141  1  0.58579984  0.91725646  0.11220652  1
  Te  Te142  1  0.59492377  0.90846510  0.41223315  1
  Te  Te143  1  0.59194040  0.92657003  0.77807051  1
  Te  Te144  1  0.94321735  0.26058772  0.09136998  1
  Te  Te145  1  0.94727094  0.24429964  0.42489167  1
  Te  Te146  1  0.97654445  0.21471069  0.72950839  1
  Te  Te147  1  0.90940730  0.60090004  0.10012197  1
  Te  Te148  1  0.92524241  0.57466965  0.41301410  1
  Te  Te149  1  0.95169793  0.60338841  0.76497539  1
  Te  Te150  1  0.94462111  0.88859360  0.09833468  1
  Te  Te151  1  0.90031331  0.93406215  0.41513303  1
  Te  Te152  1  0.91999676  0.91695518  0.73615089  1
  Te  Te153  1  0.23444624  0.10157229  0.26185988  1
  Te  Te154  1  0.24730179  0.10344097  0.58029699  1
  Te  Te155  1  0.23957724  0.10438942  0.93157375  1
  Te  Te156  1  0.24285861  0.41500099  0.26039412  1
  Te  Te157  1  0.23169507  0.41508743  0.58885933  1
  Te  Te158  1  0.23568395  0.40937625  0.90038228  1
  Te  Te159  1  0.23535476  0.74003829  0.25440722  1
  Te  Te160  1  0.21037894  0.71915167  0.56113697  1
  Te  Te161  1  0.20779708  0.75894640  0.94805900  1
  Te  Te162  1  0.57730135  0.07498904  0.25531386  1
  Te  Te163  1  0.59919094  0.09032411  0.58687832  1
  Te  Te164  1  0.57603030  0.08581500  0.92868743  1
  Te  Te165  1  0.57727535  0.40859581  0.25018216  1
  Te  Te166  1  0.60671115  0.44286705  0.57577632  1
  Te  Te167  1  0.58907916  0.44202646  0.93004920  1
  Te  Te168  1  0.58833895  0.72611531  0.22771897  1
  Te  Te169  1  0.57960359  0.74325361  0.57119620  1
  Te  Te170  1  0.60017269  0.76189064  0.90888668  1
  Te  Te171  1  0.92584681  0.08948352  0.22619828  1
  Te  Te172  1  0.96200350  0.11770674  0.60578077  1
  Te  Te173  1  0.93444950  0.10220466  0.90944481  1
  Te  Te174  1  0.95050040  0.39074784  0.26085679  1
  Te  Te175  1  0.93158347  0.39762988  0.61306739  1
  Te  Te176  1  0.91659436  0.40996391  0.88979746  1
  Te  Te177  1  0.87870929  0.77708785  0.27789883  1
  Te  Te178  1  0.95436687  0.75647634  0.56139321  1
  Te  Te179  1  0.90805311  0.74572840  0.91585988  1
