# generated using pymatgen
data_In2Te3
_symmetry_space_group_name_H-M   'P 1'
_cell_length_a   18.95116648
_cell_length_b   18.94447368
_cell_length_c   18.92300888
_cell_angle_alpha   89.99693046
_cell_angle_beta   89.92767671
_cell_angle_gamma   89.96423457
_symmetry_Int_Tables_number   1
_chemical_formula_structural   In2Te3
_chemical_formula_sum   'In72 Te108'
_cell_volume   6793.72952944
_cell_formula_units_Z   36
loop_
 _symmetry_equiv_pos_site_id
 _symmetry_equiv_pos_as_xyz
  1  'x, y, z'
loop_
 _atom_site_type_symbol
 _atom_site_label
 _atom_site_symmetry_multiplicity
 _atom_site_fract_x
 _atom_site_fract_y
 _atom_site_fract_z
 _atom_site_occupancy
  In  In0  1  0.33585931  0.67773660  0.33439108  1
  In  In1  1  0.67345199  -0.00339378  0.01054609  1
  In  In2  1  0.48887604  -0.01203639  0.83084744  1
  In  In3  1  0.66125032  0.17052102  0.84369404  1
  In  In4  1  -0.00242897  0.65010527  0.31332639  1
  In  In5  1  0.66669650  0.65787969  0.67034373  1
  In  In6  1  0.35938320  0.66447183  0.69679205  1
  In  In7  1  0.00750765  -0.02508739  0.66320549  1
  In  In8  1  0.50038545  0.16646355  0.68652113  1
  In  In9  1  0.85815079  0.32685994  0.50996168  1
  In  In10  1  0.17276039  -0.00130192  0.82023886  1
  In  In11  1  0.67963190  0.36874268  0.02667944  1
  In  In12  1  0.52174247  0.82802458  0.30461065  1
  In  In13  1  0.31494245  0.48014682  0.81639982  1
  In  In14  1  0.84157473  0.80630357  0.66805182  1
  In  In15  1  0.33178105  0.51886950  0.48975705  1
  In  In16  1  0.01883804  0.16615870  0.51997680  1
  In  In17  1  0.67733348  0.34685863  0.65711561  1
  In  In18  1  0.67218778  0.81683369  0.16461379  1
  In  In19  1  0.83717077  0.15989219  0.32994586  1
  In  In20  1  0.49300232  0.16465928  0.36793821  1
  In  In21  1  0.33629089  0.35250929  -0.03317570  1
  In  In22  1  0.84565487  0.16126465  0.68027751  1
  In  In23  1  0.51175541  0.51135343  0.01011192  1
  In  In24  1  0.00260340  0.82314489  0.81134479  1
  In  In25  1  0.52532202  0.35034859  0.18812693  1
  In  In26  1  -0.01197525  0.00855674  0.00640881  1
  In  In27  1  0.32626248  0.84174955  0.50950961  1
  In  In28  1  0.68210861  0.16203329  0.16903065  1
  In  In29  1  0.13202898  0.80892620  0.01518739  1
  In  In30  1  0.17475685  0.35474627  0.12269466  1
  In  In31  1  0.67184232  0.35763718  0.31254869  1
  In  In32  1  -0.00562631  0.34070197  -0.01399419  1
  In  In33  1  0.46791474  0.18405492  -0.00353013  1
  In  In34  1  0.52152786  0.67634937  0.85458998  1
  In  In35  1  0.14763937  0.16240186  0.33283229  1
  In  In36  1  0.32809475  0.00193934  -0.02024101  1
  In  In37  1  0.86321696  0.64642660  0.15442361  1
  In  In38  1  0.83584585  0.85624791  0.00170302  1
  In  In39  1  0.14145337  0.01167469  0.16619604  1
  In  In40  1  0.01201412  0.48511018  0.51086680  1
  In  In41  1  0.15686222  0.49637394  0.67512848  1
  In  In42  1  0.80974373  0.34590424  0.83053702  1
  In  In43  1  0.31056570  0.33650898  0.31729614  1
  In  In44  1  0.31702174  0.52194407  0.12070267  1
  In  In45  1  0.34041436  0.12993497  0.52582701  1
  In  In46  1  0.49687393  0.50726334  0.33456311  1
  In  In47  1  -0.00624796  0.16381557  0.85990179  1
  In  In48  1  0.15163280  0.32786288  0.48802207  1
  In  In49  1  0.52460362  -0.03743689  0.16847846  1
  In  In50  1  0.34108499  0.82484533  0.13362533  1
  In  In51  1  0.19021097  0.19145441  0.69125427  1
  In  In52  1  -0.00003766  0.52532495  0.83968862  1
  In  In53  1  0.66137626  0.81314625  0.52509955  1
  In  In54  1  0.65104537  -0.01089545  0.67326256  1
  In  In55  1  0.83264230  0.49297473  0.32485158  1
  In  In56  1  0.50335158  0.65754248  0.52189946  1
  In  In57  1  0.81037107  0.84405465  0.33910532  1
  In  In58  1  0.66655195  0.49405396  0.84698457  1
  In  In59  1  0.83102204  0.65128090  0.85387011  1
  In  In60  1  -0.00365274  -0.01046772  0.34454892  1
  In  In61  1  0.17568212  0.80789337  0.32190565  1
  In  In62  1  0.32874379  0.16632798  0.15620764  1
  In  In63  1  0.67625145  -0.00063930  0.34023047  1
  In  In64  1  0.53070532  0.32828735  0.50370490  1
  In  In65  1  0.49626743  -0.00587589  0.52701978  1
  In  In66  1  -0.00199343  0.18714286  0.13875792  1
  In  In67  1  0.66393426  0.70618827  0.33400094  1
  In  In68  1  0.16598791  0.81936990  0.66857851  1
  In  In69  1  0.31265105  0.66891686  -0.03289411  1
  In  In70  1  0.15167225  0.67853704  0.48861572  1
  In  In71  1  -0.01048804  0.35934829  0.30455170  1
  Te  Te72  1  0.09643438  0.10542723  0.05737452  1
  Te  Te73  1  0.09515555  0.06520296  0.43525945  1
  Te  Te74  1  0.07007211  0.08848208  0.74357062  1
  Te  Te75  1  0.05731414  0.43215630  0.08568791  1
  Te  Te76  1  0.09186333  0.42934577  0.39183049  1
  Te  Te77  1  0.08610246  0.42009978  0.77952628  1
  Te  Te78  1  0.06602042  0.71611901  0.11727289  1
  Te  Te79  1  0.05562025  0.75900696  0.40602668  1
  Te  Te80  1  0.10499509  0.72727657  0.76670041  1
  Te  Te81  1  0.42507665  0.06499825  0.09325016  1
  Te  Te82  1  0.40641964  0.05083040  0.41414405  1
  Te  Te83  1  0.40505507  0.07529024  0.74909036  1
  Te  Te84  1  0.41797306  0.40459136  0.09354055  1
  Te  Te85  1  0.41265819  0.40513559  0.41169204  1
  Te  Te86  1  0.40099496  0.38817773  0.74085316  1
  Te  Te87  1  0.42051334  0.72323162  0.05797499  1
  Te  Te88  1  0.43804387  0.75360601  0.41662471  1
  Te  Te89  1  0.41580496  0.76036292  0.79365457  1
  Te  Te90  1  0.76875603  0.07923875  0.08505921  1
  Te  Te91  1  0.75588299  0.08653162  0.42640396  1
  Te  Te92  1  0.74445918  0.07936739  0.75784371  1
  Te  Te93  1  0.78072674  0.41801506  0.11703577  1
  Te  Te94  1  0.75769608  0.41081297  0.42783656  1
  Te  Te95  1  0.75896451  0.45014691  0.73210918  1
  Te  Te96  1  0.76828084  0.74046187  0.07800918  1
  Te  Te97  1  0.77202485  0.73651018  0.45141472  1
  Te  Te98  1  0.74502306  0.74331792  0.76701409  1
  Te  Te99  1  0.09931268  0.26577829  0.23341003  1
  Te  Te100  1  0.08230925  0.26965688  0.60911350  1
  Te  Te101  1  0.09019848  0.26602318  0.90130829  1
  Te  Te102  1  0.09917746  0.60831774  0.21651315  1
  Te  Te103  1  0.07275825  0.60129542  0.59263141  1
  Te  Te104  1  0.07093889  0.61394393  0.93487784  1
  Te  Te105  1  0.07759953  0.90339235  0.24861067  1
  Te  Te106  1  0.07641115  0.88359194  0.57225404  1
  Te  Te107  1  0.08059942  0.91875713  0.91484628  1
  Te  Te108  1  0.42254067  0.24549592  0.25428013  1
  Te  Te109  1  0.42465556  0.24452170  0.57529128  1
  Te  Te110  1  0.40189991  0.25011837  0.88015802  1
  Te  Te111  1  0.40096992  0.57595853  0.24106017  1
  Te  Te112  1  0.42255031  0.55759762  0.60423984  1
  Te  Te113  1  0.41538036  0.56331997  0.90580120  1
  Te  Te114  1  0.40538307  0.90632581  0.24546020  1
  Te  Te115  1  0.41155749  0.90843880  0.60930563  1
  Te  Te116  1  0.40796461  0.89656303  0.91623278  1
  Te  Te117  1  0.76972841  0.26299506  0.24121753  1
  Te  Te118  1  0.75752093  0.24061164  0.58430330  1
  Te  Te119  1  0.74277507  0.25882828  0.93507908  1
  Te  Te120  1  0.75942494  0.60959336  0.26228249  1
  Te  Te121  1  0.73857639  0.62179465  0.54883152  1
  Te  Te122  1  0.74479277  0.57170432  0.94334383  1
  Te  Te123  1  0.75098565  0.93085458  0.22781570  1
  Te  Te124  1  0.75411104  0.91069543  0.59298000  1
  Te  Te125  1  0.73453752  0.91036888  0.90747886  1
  Te  Te126  1  0.25695982  0.24742104  0.05323142  1
  Te  Te127  1  0.25622645  0.23568462  0.42029800  1
  Te  Te128  1  0.28745243  0.28685838  0.75124635  1
  Te  Te129  1  0.21515253  0.56713633  0.02048432  1
  Te  Te130  1  0.23228406  0.58580066  0.39785273  1
  Te  Te131  1  0.23679466  0.59776212  0.75765280  1
  Te  Te132  1  0.22906829  0.91793088  0.08087782  1
  Te  Te133  1  0.24663654  0.90592523  0.40603302  1
  Te  Te134  1  0.25665654  0.91374939  0.73450207  1
  Te  Te135  1  0.57750901  0.24159967  0.09093238  1
  Te  Te136  1  0.61236345  0.24783283  0.40494372  1
  Te  Te137  1  0.58900252  0.26958198  0.75515733  1
  Te  Te138  1  0.59512583  0.58349266  0.10474449  1
  Te  Te139  1  0.59092580  0.59497500  0.41473949  1
  Te  Te140  1  0.57353857  0.57297678  0.75680101  1
  Te  Te141  1  0.57500153  0.87910058  0.05489752  1
  Te  Te142  1  0.58651006  0.90871477  0.42464797  1
  Te  Te143  1  0.60388887  0.90603694  0.78609391  1
  Te  Te144  1  0.89655662  0.26072786  0.06529401  1
  Te  Te145  1  0.94773309  0.25059453  0.40490358  1
  Te  Te146  1  0.91678672  0.26227943  0.76471479  1
  Te  Te147  1  0.96701384  0.60944897  0.04938177  1
  Te  Te148  1  0.92320439  0.56986014  0.41947089  1
  Te  Te149  1  0.91580800  0.60425729  0.73611869  1
  Te  Te150  1  0.93453957  0.90754728  0.09772926  1
  Te  Te151  1  0.89115525  0.92848344  0.42702503  1
  Te  Te152  1  0.90087488  0.91997901  0.75543352  1
  Te  Te153  1  0.24718998  0.08051895  0.25144648  1
  Te  Te154  1  0.22909409  0.07961787  0.60440910  1
  Te  Te155  1  0.25038545  0.09558415  0.90046921  1
  Te  Te156  1  0.24407616  0.43814524  0.22995844  1
  Te  Te157  1  0.23916426  0.42570014  0.56736004  1
  Te  Te158  1  0.21821337  0.42786018  0.91709696  1
  Te  Te159  1  0.25398004  0.72972700  0.21555008  1
  Te  Te160  1  0.27151001  0.71704222  0.57577049  1
  Te  Te161  1  0.23415828  0.78065898  0.91326879  1
  Te  Te162  1  0.57528048  0.08164248  0.25770128  1
  Te  Te163  1  0.58989666  0.09721221  0.58359152  1
  Te  Te164  1  0.56914353  0.08727728  0.93359865  1
  Te  Te165  1  0.60852225  0.47157137  0.22859352  1
  Te  Te166  1  0.59227589  0.43664137  0.57697595  1
  Te  Te167  1  0.57346938  0.39932436  0.92531167  1
  Te  Te168  1  0.56294373  0.71414315  0.21381709  1
  Te  Te169  1  0.55854298  0.75835164  0.61999024  1
  Te  Te170  1  0.56212493  0.72926172  0.98618886  1
  Te  Te171  1  0.93914301  0.08910518  0.24365996  1
  Te  Te172  1  0.91725186  0.07351346  0.57971584  1
  Te  Te173  1  0.89184421  0.07882331  0.92087440  1
  Te  Te174  1  0.90896102  0.43866649  0.20447544  1
  Te  Te175  1  0.92448852  0.41555232  0.60498007  1
  Te  Te176  1  0.89697217  0.43734601  0.91331476  1
  Te  Te177  1  0.90080453  0.75574764  0.25477928  1
  Te  Te178  1  0.94691007  0.71118712  0.62931400  1
  Te  Te179  1  0.91927971  0.75686684  0.91852485  1
