# generated using pymatgen
data_In2Te3
_symmetry_space_group_name_H-M   'P 1'
_cell_length_a   18.82745947
_cell_length_b   18.83127603
_cell_length_c   18.82357186
_cell_angle_alpha   89.97695136
_cell_angle_beta   89.99517828
_cell_angle_gamma   90.04613695
_symmetry_Int_Tables_number   1
_chemical_formula_structural   In2Te3
_chemical_formula_sum   'In72 Te108'
_cell_volume   6673.80218275
_cell_formula_units_Z   36
loop_
 _symmetry_equiv_pos_site_id
 _symmetry_equiv_pos_as_xyz
  1  'x, y, z'
loop_
 _atom_site_type_symbol
 _atom_site_label
 _atom_site_symmetry_multiplicity
 _atom_site_fract_x
 _atom_site_fract_y
 _atom_site_fract_z
 _atom_site_occupancy
  In  In0  1  0.00675128  0.00428258  0.66031904  1
  In  In1  1  0.18203034  0.84459931  0.63498152  1
  In  In2  1  0.34541075  0.18858623  0.51505515  1
  In  In3  1  0.35234484  0.48517499  0.83826529  1
  In  In4  1  0.49587904  0.32886808  0.79844361  1
  In  In5  1  0.02153047  0.14447324  0.49578094  1
  In  In6  1  0.48887742  0.82766612  0.01663518  1
  In  In7  1  0.01914654  0.64804545  0.31871897  1
  In  In8  1  0.68729634  0.14668028  0.51929983  1
  In  In9  1  -0.01017184  -0.00888553  0.33909377  1
  In  In10  1  0.51583098  0.34476914  0.53330560  1
  In  In11  1  0.82744419  0.66514931  0.48630083  1
  In  In12  1  -0.01426308  0.84097016  0.82842522  1
  In  In13  1  0.30828109  -0.00377762  0.30673785  1
  In  In14  1  0.15625120  0.32308447  0.84878583  1
  In  In15  1  0.67379108  0.49778273  0.52052770  1
  In  In16  1  0.49161867  0.81701156  0.35138322  1
  In  In17  1  0.81544416  0.67227040  0.81526285  1
  In  In18  1  0.02508010  0.35194153  0.33455430  1
  In  In19  1  0.32578200  0.51132351  0.49401156  1
  In  In20  1  0.01634753  0.64368827  0.64914146  1
  In  In21  1  0.32339018  0.32029425  -0.00161299  1
  In  In22  1  0.16643884  0.18361975  0.68211249  1
  In  In23  1  0.83723100  0.00458669  0.14009633  1
  In  In24  1  0.52439008  0.33175401  0.16006410  1
  In  In25  1  0.01074081  0.66963786  0.02143608  1
  In  In26  1  0.47762399  0.18591671  0.34113797  1
  In  In27  1  0.85505862  0.33034416  0.52164672  1
  In  In28  1  0.16090120  0.36637107  0.14663920  1
  In  In29  1  0.68261316  0.16276243  0.16385761  1
  In  In30  1  0.34749043  0.15604142  0.83325648  1
  In  In31  1  0.18998529  0.49513640  0.65696843  1
  In  In32  1  0.15967353  0.01578982  0.83465004  1
  In  In33  1  0.16279716  0.33564954  0.49350440  1
  In  In34  1  0.81562948  0.17954079  0.32856301  1
  In  In35  1  0.83550270  0.20711811  0.69793930  1
  In  In36  1  0.81457036  0.02435310  0.84584887  1
  In  In37  1  0.82352781  0.46699071  0.69592169  1
  In  In38  1  0.85303846  0.51396600  -0.01723597  1
  In  In39  1  0.36003028  0.80008657  0.48884529  1
  In  In40  1  0.65956712  0.67192521  0.34813209  1
  In  In41  1  0.52591572  0.85118776  0.67506687  1
  In  In42  1  0.84339895  0.17989277  -0.01182904  1
  In  In43  1  0.00921466  0.18803594  0.14918159  1
  In  In44  1  0.65849554  0.33512697  0.32354722  1
  In  In45  1  0.32859560  0.02186505  -0.01228865  1
  In  In46  1  0.16008605  0.68396921  0.84410226  1
  In  In47  1  0.49157396  0.49961272  -0.00073236  1
  In  In48  1  0.83470678  -0.01895530  0.51356830  1
  In  In49  1  0.63302400  0.65304814  0.67739048  1
  In  In50  1  0.48941669  0.00187992  0.13405889  1
  In  In51  1  0.65428387  0.65809457  -0.01956880  1
  In  In52  1  0.31955758  0.80931260  0.18520160  1
  In  In53  1  0.85890797  0.65992258  0.15689791  1
  In  In54  1  0.35808058  0.01896114  0.70448724  1
  In  In55  1  0.49959494  -0.00548619  0.51158571  1
  In  In56  1  0.65478312  0.49069129  0.15516879  1
  In  In57  1  0.67144775  0.83529538  0.16805543  1
  In  In58  1  0.34171905  0.67467169  0.65383906  1
  In  In59  1  0.32868570  0.33576778  0.33856282  1
  In  In60  1  0.64681300  -0.02581130  0.30798241  1
  In  In61  1  0.16367524  0.00289350  0.50046933  1
  In  In62  1  0.15369034  0.82268489  0.33487542  1
  In  In63  1  0.82993569  0.85667773  -0.00763938  1
  In  In64  1  0.84370265  0.49629701  0.31963511  1
  In  In65  1  0.32106505  0.53107961  0.17168419  1
  In  In66  1  0.16263050  0.82343471  0.00606942  1
  In  In67  1  0.80268718  0.81907727  0.65704015  1
  In  In68  1  0.34220558  0.81688667  0.84015881  1
  In  In69  1  0.65881024  0.34288766  -0.02053004  1
  In  In70  1  0.00800941  0.48179388  0.85280077  1
  In  In71  1  0.16115790  0.02161608  0.15691949  1
  Te  Te72  1  0.06526341  0.08125091  0.06247873  1
  Te  Te73  1  0.10480763  0.08234505  0.38431841  1
  Te  Te74  1  0.06055275  0.10521842  0.76120341  1
  Te  Te75  1  0.06321181  0.44097540  0.06706980  1
  Te  Te76  1  0.09701891  0.44745052  0.42100522  1
  Te  Te77  1  0.09214297  0.41512130  0.74357038  1
  Te  Te78  1  0.10397339  0.73878571  0.11643493  1
  Te  Te79  1  0.06842371  0.74238812  0.42334718  1
  Te  Te80  1  0.08453482  0.76402716  0.73739429  1
  Te  Te81  1  0.41204420  0.11013451  0.07327744  1
  Te  Te82  1  0.40545863  0.07313470  0.41675906  1
  Te  Te83  1  0.47451494  0.10054450  0.76445306  1
  Te  Te84  1  0.40612721  0.41473705  0.09378121  1
  Te  Te85  1  0.42704191  0.40964501  0.42668426  1
  Te  Te86  1  0.42158684  0.43140822  0.71951548  1
  Te  Te87  1  0.40897661  0.73220541  0.09678726  1
  Te  Te88  1  0.42507264  0.69258124  0.40463519  1
  Te  Te89  1  0.43752584  0.74334514  0.75115088  1
  Te  Te90  1  0.73794292  0.07718013  0.05267296  1
  Te  Te91  1  0.74154914  0.06675580  0.40009069  1
  Te  Te92  1  0.74533318  0.09664369  0.73795894  1
  Te  Te93  1  0.75555569  0.42316995  0.06635144  1
  Te  Te94  1  0.75696927  0.40580987  0.41875431  1
  Te  Te95  1  0.74787801  0.36445376  0.77230290  1
  Te  Te96  1  0.75377520  0.73823457  0.07416389  1
  Te  Te97  1  0.74639721  0.76737845  0.41859831  1
  Te  Te98  1  0.70742178  0.76067265  0.76104171  1
  Te  Te99  1  0.10281472  0.25629442  0.24776220  1
  Te  Te100  1  0.07059343  0.25620184  0.58807258  1
  Te  Te101  1  0.03334546  0.26575651  0.90785130  1
  Te  Te102  1  0.09570926  0.57640681  0.20785055  1
  Te  Te103  1  0.10451969  0.56767568  0.55859909  1
  Te  Te104  1  0.09649249  0.57797021  0.93323665  1
  Te  Te105  1  0.08217513  0.91829460  0.24037118  1
  Te  Te106  1  0.06299600  0.90457445  0.55903724  1
  Te  Te107  1  0.07817048  0.91847222  0.92156160  1
  Te  Te108  1  0.40644210  0.25945148  0.23007690  1
  Te  Te109  1  0.44922288  0.23352079  0.60757940  1
  Te  Te110  1  0.43378701  0.25481018  0.91734253  1
  Te  Te111  1  0.39898905  0.59690236  0.27994951  1
  Te  Te112  1  0.42519291  0.57813451  0.58062937  1
  Te  Te113  1  0.40847272  0.59329852  0.92035638  1
  Te  Te114  1  0.42878323  0.91800414  0.24915599  1
  Te  Te115  1  0.39577320  0.91210436  0.59721113  1
  Te  Te116  1  0.42111463  0.92945185  0.90786174  1
  Te  Te117  1  0.76049922  0.27836755  0.22578762  1
  Te  Te118  1  0.73784904  0.26889710  0.59564143  1
  Te  Te119  1  0.72860267  0.23306802  0.90126097  1
  Te  Te120  1  0.74475013  0.58306223  0.24020408  1
  Te  Te121  1  0.76541542  0.58636686  0.60729158  1
  Te  Te122  1  0.73978755  0.56458814  0.89267053  1
  Te  Te123  1  0.77296208  0.91376168  0.24921919  1
  Te  Te124  1  0.72530566  0.92840043  0.59604545  1
  Te  Te125  1  0.73571384  0.90711667  0.89304451  1
  Te  Te126  1  0.21441373  0.25114384  0.06923352  1
  Te  Te127  1  0.24289734  0.23230366  0.41300314  1
  Te  Te128  1  0.26867929  0.26465175  0.75805263  1
  Te  Te129  1  0.20739818  0.60255278  0.10816590  1
  Te  Te130  1  0.26994802  0.58931682  0.37752927  1
  Te  Te131  1  0.25101796  0.59622906  0.75618368  1
  Te  Te132  1  0.26412884  0.91536417  0.08154090  1
  Te  Te133  1  0.26102019  0.90673942  0.42217269  1
  Te  Te134  1  0.24426410  0.91029961  0.76274049  1
  Te  Te135  1  0.58785239  0.23390646  0.06458022  1
  Te  Te136  1  0.59144254  0.24340414  0.42584040  1
  Te  Te137  1  0.62836652  0.26341374  0.77278891  1
  Te  Te138  1  0.56700368  0.59631114  0.09162700  1
  Te  Te139  1  0.58632901  0.57406286  0.43013592  1
  Te  Te140  1  0.59416973  0.54881230  0.77251275  1
  Te  Te141  1  0.60118600  0.92550810  0.06749925  1
  Te  Te142  1  0.59042819  0.90179206  0.43092534  1
  Te  Te143  1  0.57793887  0.93979109  0.78139369  1
  Te  Te144  1  0.91626782  0.27563899  0.07466739  1
  Te  Te145  1  0.92661866  0.24127199  0.41375089  1
  Te  Te146  1  0.92716599  0.27607654  0.79363743  1
  Te  Te147  1  0.94905508  0.54186022  0.10380323  1
  Te  Te148  1  0.92613665  0.56977402  0.42170631  1
  Te  Te149  1  0.93092929  0.58459536  0.76251772  1
  Te  Te150  1  0.92970240  0.90234080  0.08848534  1
  Te  Te151  1  0.91333288  0.89733254  0.42237327  1
  Te  Te152  1  0.90037953  0.92315199  0.73436816  1
  Te  Te153  1  0.26841369  0.10436637  0.21668588  1
  Te  Te154  1  0.24958617  0.08178449  0.60055871  1
  Te  Te155  1  0.22741579  0.11740968  0.92397382  1
  Te  Te156  1  0.24157459  0.43122303  0.26152010  1
  Te  Te157  1  0.27293584  0.39333990  0.58011160  1
  Te  Te158  1  0.24232584  0.42636015  0.92520663  1
  Te  Te159  1  0.25475700  0.71904548  0.28821008  1
  Te  Te160  1  0.23847513  0.73041067  0.55407110  1
  Te  Te161  1  0.26789317  0.73219701  0.94237288  1
  Te  Te162  1  0.57377015  0.09725242  0.25189839  1
  Te  Te163  1  0.57599527  0.08849367  0.59720527  1
  Te  Te164  1  0.54079220  0.04546251  0.88864921  1
  Te  Te165  1  0.56211047  0.43730044  0.26504862  1
  Te  Te166  1  0.58518133  0.43937170  0.62705644  1
  Te  Te167  1  0.57650897  0.43875118  0.88787622  1
  Te  Te168  1  0.57483781  0.74592808  0.24201846  1
  Te  Te169  1  0.56567027  0.74333332  0.58265029  1
  Te  Te170  1  0.56227776  0.75063328  0.91324522  1
  Te  Te171  1  0.91276279  0.09544648  0.24465374  1
  Te  Te172  1  0.90602396  0.10000763  0.58731175  1
  Te  Te173  1  0.92563944  0.06991258  0.93123979  1
  Te  Te174  1  0.92424746  0.40256327  0.24043590  1
  Te  Te175  1  0.92895012  0.42857327  0.60034317  1
  Te  Te176  1  0.89997757  0.38996425  0.90566166  1
  Te  Te177  1  0.91850914  0.74205455  0.26094797  1
  Te  Te178  1  0.91518054  0.74154668  0.58864554  1
  Te  Te179  1  0.91675907  0.73507105  0.91713223  1
