# generated using pymatgen
data_In2Te3
_symmetry_space_group_name_H-M   'P 1'
_cell_length_a   18.93185731
_cell_length_b   18.94453935
_cell_length_c   18.94715674
_cell_angle_alpha   90.13694362
_cell_angle_beta   89.99299631
_cell_angle_gamma   89.99404787
_symmetry_Int_Tables_number   1
_chemical_formula_structural   In2Te3
_chemical_formula_sum   'In72 Te108'
_cell_volume   6795.47898312
_cell_formula_units_Z   36
loop_
 _symmetry_equiv_pos_site_id
 _symmetry_equiv_pos_as_xyz
  1  'x, y, z'
loop_
 _atom_site_type_symbol
 _atom_site_label
 _atom_site_symmetry_multiplicity
 _atom_site_fract_x
 _atom_site_fract_y
 _atom_site_fract_z
 _atom_site_occupancy
  In  In0  1  0.85806847  0.00045068  0.85021682  1
  In  In1  1  0.33863885  0.16349267  0.55769794  1
  In  In2  1  0.82211392  0.33074170  0.16566657  1
  In  In3  1  -0.00633343  -0.00142638  0.68107474  1
  In  In4  1  0.31773335  0.36449859  0.67849918  1
  In  In5  1  -0.00868505  0.34863995  0.35445352  1
  In  In6  1  0.01297423  0.01704920  0.35450406  1
  In  In7  1  0.33491179  0.31614700  0.34551280  1
  In  In8  1  0.81006972  0.74365490  0.31768266  1
  In  In9  1  0.49871029  0.49522539  0.33380834  1
  In  In10  1  0.02436206  0.85856494  0.15671225  1
  In  In11  1  0.13478269  0.34146834  0.16511911  1
  In  In12  1  0.02730237  0.13950396  0.14971303  1
  In  In13  1  0.48187067  0.64215925  0.81553740  1
  In  In14  1  0.65204442  0.81224843  0.80947343  1
  In  In15  1  0.48086725  -0.00237685  0.19677800  1
  In  In16  1  0.66871700  0.33468862  0.66213474  1
  In  In17  1  0.81703815  0.66436988  0.49130395  1
  In  In18  1  0.85362708  0.50023861  0.67177569  1
  In  In19  1  0.02997199  0.49752766  0.50258481  1
  In  In20  1  0.49409895  0.67427212  0.13401503  1
  In  In21  1  0.00275726  0.83531805  0.84262597  1
  In  In22  1  0.31070854  0.70296924  0.00355587  1
  In  In23  1  0.33162314  0.67414785  0.35651375  1
  In  In24  1  0.83353490  0.17045274  0.32766614  1
  In  In25  1  0.81679647  -0.00522341  0.14076859  1
  In  In26  1  0.32514608  0.49335234  0.15845137  1
  In  In27  1  0.68185909  0.49966087  0.46240943  1
  In  In28  1  0.00454364  0.31609656  0.70857179  1
  In  In29  1  0.52915652  0.35448244  0.16816511  1
  In  In30  1  0.17605406  0.17856901  0.36412754  1
  In  In31  1  0.15132639  0.17337359  -0.01494124  1
  In  In32  1  -0.00444520  0.49650501  0.83537275  1
  In  In33  1  0.17810631  0.82254605  0.34994730  1
  In  In34  1  0.65113100  0.33362064  0.33324329  1
  In  In35  1  0.66565300  0.34482926  0.00206285  1
  In  In36  1  0.68066209  -0.02622690  0.33638945  1
  In  In37  1  0.33548252  -0.00530314  0.32177900  1
  In  In38  1  -0.01219432  0.63978773  0.02226342  1
  In  In39  1  0.00467952  0.34803884  -0.01014576  1
  In  In40  1  0.50713356  0.14318505  0.33721405  1
  In  In41  1  0.17148431  0.65525135  0.51318139  1
  In  In42  1  0.15797558  0.84123747  0.67410797  1
  In  In43  1  0.85434231  0.17184968  -0.02554794  1
  In  In44  1  0.84382840  0.82630806  0.01812589  1
  In  In45  1  0.15378803  0.66415089  0.17360201  1
  In  In46  1  0.85808211  0.53736575  0.27197444  1
  In  In47  1  0.17679952  -0.00430589  0.83091664  1
  In  In48  1  0.64396128  0.82196290  0.17071774  1
  In  In49  1  0.50860219  0.80065531  0.64683077  1
  In  In50  1  0.82630718  0.31732251  0.51440749  1
  In  In51  1  0.35442563  0.84025688  0.48890367  1
  In  In52  1  0.32951243  0.17774978  0.15059843  1
  In  In53  1  0.00470615  0.65827351  0.33200063  1
  In  In54  1  0.47906923  0.49146364  -0.01630319  1
  In  In55  1  0.78281932  0.79971726  0.65582886  1
  In  In56  1  0.49829756  0.86612801  -0.01098976  1
  In  In57  1  0.48213952  0.50056780  0.64962035  1
  In  In58  1  0.16172148  0.17651083  0.67473958  1
  In  In59  1  0.52318769  0.01119093  0.50952503  1
  In  In60  1  0.85280311  0.01939949  0.50865059  1
  In  In61  1  -0.03178571  0.84395729  0.51859228  1
  In  In62  1  0.46071147  0.03894275  0.80556090  1
  In  In63  1  0.68625353  0.49772750  0.81521632  1
  In  In64  1  0.45869004  0.30825244  0.84673666  1
  In  In65  1  0.48059531  0.33884548  0.47863497  1
  In  In66  1  0.31848228  -0.00813517  -0.00029193  1
  In  In67  1  0.67009458  0.01079232  -0.03693817  1
  In  In68  1  0.67594009  0.00197047  0.68239651  1
  In  In69  1  0.66924902  0.64518878  -0.03586241  1
  In  In70  1  0.17908958  0.65912294  0.81664646  1
  In  In71  1  0.66280507  0.17063477  0.83034356  1
  Te  Te72  1  0.13023450  0.05367442  0.07980028  1
  Te  Te73  1  0.09501876  0.09109455  0.44919096  1
  Te  Te74  1  0.07556967  0.08968814  0.76869213  1
  Te  Te75  1  0.08154024  0.44161102  0.07298283  1
  Te  Te76  1  0.10871066  0.40682323  0.41783111  1
  Te  Te77  1  0.09984331  0.40737633  0.77726035  1
  Te  Te78  1  0.08501885  0.75010668  0.06965183  1
  Te  Te79  1  0.06555574  0.75590651  0.43186661  1
  Te  Te80  1  0.07012745  0.74120484  0.74389741  1
  Te  Te81  1  0.41979255  0.07558778  0.08484473  1
  Te  Te82  1  0.39914882  0.09186949  0.43008983  1
  Te  Te83  1  0.38725894  0.10860869  0.69623882  1
  Te  Te84  1  0.41168077  0.39625048  0.08015839  1
  Te  Te85  1  0.38589411  0.44082596  0.42036422  1
  Te  Te86  1  0.41611637  0.43756466  0.77003223  1
  Te  Te87  1  0.40780623  0.78899768  0.08364920  1
  Te  Te88  1  0.43504300  0.72270919  0.44878850  1
  Te  Te89  1  0.41300150  0.74776627  0.74224432  1
  Te  Te90  1  0.74748306  0.10068481  0.05824679  1
  Te  Te91  1  0.74749919  0.08385811  0.41771316  1
  Te  Te92  1  0.77390849  0.09107272  0.76065975  1
  Te  Te93  1  0.74964872  0.43052226  0.08824460  1
  Te  Te94  1  0.77352649  0.39882601  0.39598594  1
  Te  Te95  1  0.77694628  0.39404431  0.74980072  1
  Te  Te96  1  0.72700694  0.74410925  0.06712267  1
  Te  Te97  1  0.72148370  0.76227606  0.43434535  1
  Te  Te98  1  0.75181820  0.71308852  0.77182909  1
  Te  Te99  1  0.07219779  0.23475024  0.26023806  1
  Te  Te100  1  0.09319637  0.28019129  0.59616705  1
  Te  Te101  1  0.09153726  0.27618327  0.89399456  1
  Te  Te102  1  0.10135016  0.56483171  0.27075491  1
  Te  Te103  1  0.09407882  0.57492520  0.61058681  1
  Te  Te104  1  0.08756627  0.58862155  0.91735620  1
  Te  Te105  1  0.10140949  0.92745211  0.26813560  1
  Te  Te106  1  0.07856751  0.92893898  0.57644207  1
  Te  Te107  1  0.11217637  0.89583487  0.92049752  1
  Te  Te108  1  0.43451513  0.24731904  0.25162442  1
  Te  Te109  1  0.42514592  0.28137138  0.60530159  1
  Te  Te110  1  0.38294613  0.21095789  0.93070887  1
  Te  Te111  1  0.41211594  0.58685669  0.23966613  1
  Te  Te112  1  0.37180366  0.58649747  0.59774043  1
  Te  Te113  1  0.38543122  0.59322862  0.92298767  1
  Te  Te114  1  0.42691643  0.88773190  0.27599618  1
  Te  Te115  1  0.43358846  0.92003858  0.59166476  1
  Te  Te116  1  0.40075367  0.92467749  0.89069187  1
  Te  Te117  1  0.72887404  0.23847229  0.24137901  1
  Te  Te118  1  0.73278427  0.22734472  0.58309566  1
  Te  Te119  1  0.75553891  0.26316143  0.90673146  1
  Te  Te120  1  0.74183860  0.62683297  0.26009035  1
  Te  Te121  1  0.74722177  0.56490383  0.58266088  1
  Te  Te122  1  0.77540411  0.55014448  0.92299092  1
  Te  Te123  1  0.76887467  0.88880439  0.23863682  1
  Te  Te124  1  0.75058831  0.92842363  0.57288465  1
  Te  Te125  1  0.75256786  0.89690055  0.90735036  1
  Te  Te126  1  0.23222883  0.26605527  0.07568885  1
  Te  Te127  1  0.25720144  0.26065158  0.46239288  1
  Te  Te128  1  0.24906967  0.26289898  0.76391301  1
  Te  Te129  1  0.24047948  0.58528630  0.07456699  1
  Te  Te130  1  0.21975358  0.58363441  0.39183309  1
  Te  Te131  1  0.26446324  0.58935717  0.71394659  1
  Te  Te132  1  0.23366291  0.94202308  0.10601678  1
  Te  Te133  1  0.24786343  0.93177820  0.42935650  1
  Te  Te134  1  0.26394619  0.92564349  0.73334004  1
  Te  Te135  1  0.57744683  0.25289417  0.07552893  1
  Te  Te136  1  0.58320420  0.23777766  0.42866310  1
  Te  Te137  1  0.57092934  0.25857209  0.75018570  1
  Te  Te138  1  0.58050955  0.57092418  0.06379614  1
  Te  Te139  1  0.56692426  0.58523162  0.42966061  1
  Te  Te140  1  0.58817378  0.57838539  0.72839285  1
  Te  Te141  1  0.59746141  0.93648495  0.08019405  1
  Te  Te142  1  0.56197300  0.91683406  0.40275288  1
  Te  Te143  1  0.57139405  0.93284571  0.76716784  1
  Te  Te144  1  0.92883367  0.24088392  0.08972171  1
  Te  Te145  1  0.92593224  0.23459895  0.42892087  1
  Te  Te146  1  0.90654147  0.20814606  0.72036110  1
  Te  Te147  1  0.90557756  0.60686194  0.14122265  1
  Te  Te148  1  0.91422246  0.56626765  0.42110536  1
  Te  Te149  1  0.92101708  0.59729480  0.75678455  1
  Te  Te150  1  0.93498992  0.93935794  0.06233786  1
  Te  Te151  1  0.90671456  0.92019428  0.40394315  1
  Te  Te152  1  0.89818673  0.89757545  0.74236131  1
  Te  Te153  1  0.25028851  0.10149669  0.25448996  1
  Te  Te154  1  0.24857492  0.06247943  0.62392140  1
  Te  Te155  1  0.26155918  0.10289828  0.90285685  1
  Te  Te156  1  0.24984850  0.39889740  0.24918361  1
  Te  Te157  1  0.25658205  0.47809738  0.60100434  1
  Te  Te158  1  0.31448282  0.33890851  0.89558579  1
  Te  Te159  1  0.25733831  0.75062603  0.24395543  1
  Te  Te160  1  0.24901276  0.76763015  0.57523448  1
  Te  Te161  1  0.23378364  0.77212540  0.89801172  1
  Te  Te162  1  0.60413400  0.07151558  0.24532682  1
  Te  Te163  1  0.59366225  0.09736481  0.60461938  1
  Te  Te164  1  0.55729595  0.09691711  0.91115693  1
  Te  Te165  1  0.61477745  0.45214965  0.24460569  1
  Te  Te166  1  0.58760046  0.41792041  0.56105992  1
  Te  Te167  1  0.57999362  0.41912746  0.89452528  1
  Te  Te168  1  0.57162546  0.72310625  0.24970122  1
  Te  Te169  1  0.64257030  0.77057317  0.59618655  1
  Te  Te170  1  0.55744199  0.74517274  0.91681727  1
  Te  Te171  1  0.91248735  0.07381162  0.23746830  1
  Te  Te172  1  0.92823239  0.11035450  0.60178054  1
  Te  Te173  1  0.95781388  0.08340756  0.91944018  1
  Te  Te174  1  0.93526002  0.41156198  0.22956399  1
  Te  Te175  1  0.93136383  0.40357565  0.58327426  1
  Te  Te176  1  0.89849062  0.42810885  0.92614075  1
  Te  Te177  1  0.94021871  0.75538294  0.23271878  1
  Te  Te178  1  0.90941747  0.72903812  0.59253334  1
  Te  Te179  1  0.91852668  0.73607232  0.92454470  1
