# generated using pymatgen
data_In2Te3
_symmetry_space_group_name_H-M   'P 1'
_cell_length_a   18.92064402
_cell_length_b   18.92143862
_cell_length_c   18.92778025
_cell_angle_alpha   89.96860950
_cell_angle_beta   90.15497983
_cell_angle_gamma   89.99337138
_symmetry_Int_Tables_number   1
_chemical_formula_structural   In2Te3
_chemical_formula_sum   'In72 Te108'
_cell_volume   6776.22934239
_cell_formula_units_Z   36
loop_
 _symmetry_equiv_pos_site_id
 _symmetry_equiv_pos_as_xyz
  1  'x, y, z'
loop_
 _atom_site_type_symbol
 _atom_site_label
 _atom_site_symmetry_multiplicity
 _atom_site_fract_x
 _atom_site_fract_y
 _atom_site_fract_z
 _atom_site_occupancy
  In  In0  1  0.32598481  0.67424316  0.65884617  1
  In  In1  1  0.01247291  0.86682148  0.50263492  1
  In  In2  1  0.84234151  0.84705756  0.34699121  1
  In  In3  1  0.79839227  0.65866529  0.50839526  1
  In  In4  1  0.34209931  0.66482473  -0.01640480  1
  In  In5  1  -0.00932640  0.00507814  -0.00768845  1
  In  In6  1  0.86114282  0.32582704  0.48363064  1
  In  In7  1  0.69788560  0.33232856  0.64392330  1
  In  In8  1  0.80737017  0.48738635  0.01106376  1
  In  In9  1  0.50375882  0.66395792  0.45828624  1
  In  In10  1  0.17980858  0.67196921  0.81691797  1
  In  In11  1  -0.02539312  0.48693362  0.82906492  1
  In  In12  1  0.80392503  0.50146244  0.32011172  1
  In  In13  1  0.63947472  0.51089422  0.16450053  1
  In  In14  1  0.67315911  0.76408725  0.02493238  1
  In  In15  1  0.48168099  0.00802918  0.48153183  1
  In  In16  1  0.49802320  0.66744344  0.15220473  1
  In  In17  1  0.17632334  -0.00223972  0.80411059  1
  In  In18  1  0.50004881  0.81747589  0.31642348  1
  In  In19  1  0.65015124  0.18771281  0.16874388  1
  In  In20  1  -0.00513327  0.16068818  0.19936869  1
  In  In21  1  0.32110964  0.49569623  0.49898882  1
  In  In22  1  0.15578091  0.52104247  0.01714061  1
  In  In23  1  -0.00603304  0.86775202  0.16647688  1
  In  In24  1  0.34611107  0.15227783  0.82323164  1
  In  In25  1  0.33635405  0.33775640  0.65754695  1
  In  In26  1  0.00011259  0.47945432  0.16074313  1
  In  In27  1  0.81807124  -0.00409024  0.82381263  1
  In  In28  1  0.33057275  0.82506356  0.15858661  1
  In  In29  1  0.49550022  0.33088826  0.84906018  1
  In  In30  1  0.16116796  0.67831109  0.48995385  1
  In  In31  1  0.16255064  0.70191341  0.19064848  1
  In  In32  1  0.35109192  0.85347431  0.86522124  1
  In  In33  1  0.00129521  0.15214898  0.84606613  1
  In  In34  1  0.33527137  0.33627839  -0.00120078  1
  In  In35  1  0.18364222  0.14471484  0.63601894  1
  In  In36  1  0.69445122  0.03081250  0.35031259  1
  In  In37  1  0.65201806  0.15803932  0.84364155  1
  In  In38  1  0.49045487  0.50740012  0.00729656  1
  In  In39  1  0.64945409  -0.01234122  0.65788184  1
  In  In40  1  0.82519973  0.52675498  0.63299045  1
  In  In41  1  0.80191161  0.33353679  0.86413844  1
  In  In42  1  0.81645793  0.69077918  0.82385907  1
  In  In43  1  0.67115554  -0.02060528  -0.00422458  1
  In  In44  1  0.00763269  0.68132679  0.63759057  1
  In  In45  1  0.34908817  0.51001232  0.18389594  1
  In  In46  1  0.02110150  0.30311510  0.68540452  1
  In  In47  1  0.83152527  0.01276227  0.17383805  1
  In  In48  1  0.64791093  0.49134317  0.82789940  1
  In  In49  1  0.50365530  0.15268974  0.68437752  1
  In  In50  1  0.50249182  0.49512852  0.67743741  1
  In  In51  1  0.65739799  0.83967200  0.50798955  1
  In  In52  1  0.48212663  0.84595113  0.67900990  1
  In  In53  1  0.16838269  0.16413404  0.00676730  1
  In  In54  1  0.16663567  0.17713955  0.34219781  1
  In  In55  1  0.32139205  -0.00822923  0.34580833  1
  In  In56  1  0.18546841  -0.02381020  0.17740291  1
  In  In57  1  0.16571680  0.49157947  0.34577631  1
  In  In58  1  0.01200016  0.81342373  0.83540227  1
  In  In59  1  0.37733291  0.16247846  0.16125416  1
  In  In60  1  0.48077560  0.31362467  0.49150198  1
  In  In61  1  0.84552935  0.31698749  0.17705111  1
  In  In62  1  0.84670046  0.18055054  0.64632950  1
  In  In63  1  -0.03698907  0.66760357  0.32330020  1
  In  In64  1  0.82017385  0.84222722  0.67483949  1
  In  In65  1  0.00490407  0.14335721  0.49448032  1
  In  In66  1  0.19020893  0.34291566  0.85011888  1
  In  In67  1  0.66024058  0.33427635  0.33810387  1
  In  In68  1  0.33549335  0.32111150  0.31897808  1
  In  In69  1  0.00882343  0.48284796  0.50473649  1
  In  In70  1  -0.00509173  0.65818264  0.02735297  1
  In  In71  1  0.52518173  0.00324558  0.15171529  1
  Te  Te72  1  0.08279800  0.07198308  0.09327001  1
  Te  Te73  1  0.10920131  0.06292463  0.42001185  1
  Te  Te74  1  0.07475842  0.08717059  0.73325934  1
  Te  Te75  1  0.09134361  0.40387593  0.07588201  1
  Te  Te76  1  0.08312887  0.39386398  0.41587870  1
  Te  Te77  1  0.08997596  0.41708106  0.75801189  1
  Te  Te78  1  0.08064312  0.76989260  0.08262089  1
  Te  Te79  1  0.05755080  0.75395282  0.40681975  1
  Te  Te80  1  0.10080306  0.76566418  0.72176171  1
  Te  Te81  1  0.41639730  0.05551445  0.06603334  1
  Te  Te82  1  0.39468048  0.10423045  0.40798856  1
  Te  Te83  1  0.42145821  0.04898947  0.74958982  1
  Te  Te84  1  0.42465078  0.40748518  0.09941714  1
  Te  Te85  1  0.41556106  0.42174540  0.40728147  1
  Te  Te86  1  0.40346734  0.41883930  0.76622603  1
  Te  Te87  1  0.42903999  0.76449081  0.05864075  1
  Te  Te88  1  0.41242736  0.77488129  0.42644147  1
  Te  Te89  1  0.40756792  0.74698287  0.76605157  1
  Te  Te90  1  0.73340473  0.08563829  0.08525686  1
  Te  Te91  1  0.76310202  0.07702819  0.46989728  1
  Te  Te92  1  0.74050064  0.09817747  0.73322419  1
  Te  Te93  1  0.73665096  0.40171801  0.11192373  1
  Te  Te94  1  0.75150495  0.41872723  0.43428242  1
  Te  Te95  1  0.76415687  0.42940753  0.74554998  1
  Te  Te96  1  0.78947421  0.71578074  0.09754653  1
  Te  Te97  1  0.73765119  0.75419105  0.40950833  1
  Te  Te98  1  0.73268818  0.73000498  0.70999916  1
  Te  Te99  1  0.08928387  0.26060753  0.24961016  1
  Te  Te100  1  0.09460815  0.24795714  0.56779629  1
  Te  Te101  1  0.08419994  0.25628579  0.91963562  1
  Te  Te102  1  0.07479078  0.58953583  0.24964139  1
  Te  Te103  1  0.10000656  0.57371570  0.58530346  1
  Te  Te104  1  0.06717281  0.58397366  0.90779333  1
  Te  Te105  1  0.08748580  0.91592842  0.26778435  1
  Te  Te106  1  0.12359174  0.94647981  0.56602738  1
  Te  Te107  1  0.08614735  0.92404823  0.90834211  1
  Te  Te108  1  0.44798232  0.26361143  0.24166079  1
  Te  Te109  1  0.40487050  0.22217071  0.59092067  1
  Te  Te110  1  0.42150652  0.22848962  0.93164184  1
  Te  Te111  1  0.43316567  0.59791956  0.26527242  1
  Te  Te112  1  0.42546570  0.57875122  0.57447663  1
  Te  Te113  1  0.43019998  0.58509044  0.89804889  1
  Te  Te114  1  0.41958615  0.92868036  0.24201077  1
  Te  Te115  1  0.40506056  0.94103853  0.59067752  1
  Te  Te116  1  0.45341806  0.94445514  0.91863253  1
  Te  Te117  1  0.75554125  0.23636784  0.26892550  1
  Te  Te118  1  0.74594082  0.22969024  0.54260484  1
  Te  Te119  1  0.71674848  0.24478255  0.94987984  1
  Te  Te120  1  0.72105720  0.60203375  0.25078536  1
  Te  Te121  1  0.69260147  0.57348886  0.57294212  1
  Te  Te122  1  0.75091302  0.57825318  0.90315674  1
  Te  Te123  1  0.74335506  0.92071805  0.25739247  1
  Te  Te124  1  0.76345014  0.93814350  0.56444007  1
  Te  Te125  1  0.75304315  0.88724910  0.90540952  1
  Te  Te126  1  0.26016131  0.24630052  0.09340558  1
  Te  Te127  1  0.27637951  0.23511038  0.42475922  1
  Te  Te128  1  0.23998874  0.23845421  0.75063328  1
  Te  Te129  1  0.25630857  0.60554460  0.10173033  1
  Te  Te130  1  0.25716522  0.59610273  0.40325901  1
  Te  Te131  1  0.25127023  0.57425507  0.73744025  1
  Te  Te132  1  0.25211906  0.90843982  0.06641330  1
  Te  Te133  1  0.21764882  0.93781048  0.44069144  1
  Te  Te134  1  0.26673046  0.89517063  0.75214593  1
  Te  Te135  1  0.59129167  0.22549036  0.04047588  1
  Te  Te136  1  0.58012217  0.23761738  0.41616844  1
  Te  Te137  1  0.59520264  0.26774229  0.74598200  1
  Te  Te138  1  0.59653859  0.60928353  0.04856870  1
  Te  Te139  1  0.62021016  0.57940501  0.43664546  1
  Te  Te140  1  0.57516041  0.59648394  0.75674406  1
  Te  Te141  1  0.60880104  0.88816085  0.09910960  1
  Te  Te142  1  0.58555256  0.92255295  0.40085429  1
  Te  Te143  1  0.60278474  0.88955053  0.76000113  1
  Te  Te144  1  0.91777962  0.22425587  0.09072383  1
  Te  Te145  1  0.92575460  0.22604444  0.39974818  1
  Te  Te146  1  0.89949229  0.25547689  0.77398250  1
  Te  Te147  1  0.89201441  0.57530985  0.10505792  1
  Te  Te148  1  0.90883452  0.57578042  0.43266850  1
  Te  Te149  1  0.92122820  0.60184891  0.73680412  1
  Te  Te150  1  0.89052327  0.92023551  0.06755362  1
  Te  Te151  1  0.93101472  0.94903957  0.40750656  1
  Te  Te152  1  0.92741071  0.91374228  0.75481904  1
  Te  Te153  1  0.25957773  0.09373927  0.23956614  1
  Te  Te154  1  0.25879485  0.03138698  0.57756564  1
  Te  Te155  1  0.24933491  0.07671093  0.91408000  1
  Te  Te156  1  0.24298685  0.41746809  0.23901936  1
  Te  Te157  1  0.23610025  0.40424288  0.57524100  1
  Te  Te158  1  0.26136152  0.45029573  0.93018258  1
  Te  Te159  1  0.25786561  0.77275272  0.27534162  1
  Te  Te160  1  0.26021579  0.76083957  0.55954680  1
  Te  Te161  1  0.23741418  0.75693113  0.92540734  1
  Te  Te162  1  0.58258077  0.09022602  0.26349408  1
  Te  Te163  1  0.57950655  0.08846070  0.56985871  1
  Te  Te164  1  0.57037523  0.04854284  0.90495944  1
  Te  Te165  1  0.57008143  0.41718478  0.25458897  1
  Te  Te166  1  0.57310458  0.39548334  0.58598973  1
  Te  Te167  1  0.58762748  0.40945732  0.93973990  1
  Te  Te168  1  0.59573067  0.72725199  0.24908475  1
  Te  Te169  1  0.55113256  0.75821620  0.57552744  1
  Te  Te170  1  0.61546045  0.80201240  0.89512191  1
  Te  Te171  1  0.91530306  0.06742298  0.28382355  1
  Te  Te172  1  0.93180688  0.07169928  0.60112284  1
  Te  Te173  1  0.88537309  0.09133513  0.92236735  1
  Te  Te174  1  0.91803032  0.41471868  0.27054711  1
  Te  Te175  1  0.92397681  0.40180668  0.60727632  1
  Te  Te176  1  0.91420096  0.40375086  0.94111322  1
  Te  Te177  1  0.89519593  0.76022960  0.22459270  1
  Te  Te178  1  0.90505405  0.76551508  0.56343946  1
  Te  Te179  1  0.91483698  0.74404981  0.92798217  1
