# generated using pymatgen
data_In2Te3
_symmetry_space_group_name_H-M   'P 1'
_cell_length_a   18.77078394
_cell_length_b   18.78273344
_cell_length_c   18.77883691
_cell_angle_alpha   89.90482612
_cell_angle_beta   90.05879880
_cell_angle_gamma   89.96206704
_symmetry_Int_Tables_number   1
_chemical_formula_structural   In2Te3
_chemical_formula_sum   'In72 Te108'
_cell_volume   6620.77718583
_cell_formula_units_Z   36
loop_
 _symmetry_equiv_pos_site_id
 _symmetry_equiv_pos_as_xyz
  1  'x, y, z'
loop_
 _atom_site_type_symbol
 _atom_site_label
 _atom_site_symmetry_multiplicity
 _atom_site_fract_x
 _atom_site_fract_y
 _atom_site_fract_z
 _atom_site_occupancy
  In  In0  1  0.30979039  -0.00812340  0.32519623  1
  In  In1  1  0.14997516  0.49799969  0.69900178  1
  In  In2  1  0.31504036  0.17827014  0.47934614  1
  In  In3  1  0.00464781  -0.00123241  0.68169463  1
  In  In4  1  0.48351446  0.81743868  0.68978724  1
  In  In5  1  0.68791105  0.67138566  0.66675402  1
  In  In6  1  0.48520555  0.65753689  0.83046473  1
  In  In7  1  0.84927655  0.51125358  0.67277266  1
  In  In8  1  0.86138032  0.52711675  0.34174401  1
  In  In9  1  0.34817490  0.35535369  0.68508568  1
  In  In10  1  0.31803476  0.84173171  0.15614894  1
  In  In11  1  0.68143368  0.82699403  0.81777380  1
  In  In12  1  0.66578200  0.63490076  -0.01308675  1
  In  In13  1  0.48906235  -0.00188837  0.51996962  1
  In  In14  1  0.83796404  0.50495349  0.00245002  1
  In  In15  1  0.17183852  0.79393177  0.63701799  1
  In  In16  1  0.51617624  0.64358176  0.16646903  1
  In  In17  1  0.68250547  0.00531425  0.32382993  1
  In  In18  1  0.50837490  -0.00084418  0.85791823  1
  In  In19  1  -0.00709135  0.66397222  0.65356485  1
  In  In20  1  0.00712607  0.83427745  0.18736350  1
  In  In21  1  0.50645438  0.18625371  0.31884597  1
  In  In22  1  0.84495826  0.33533177  0.85799171  1
  In  In23  1  0.67716596  0.49099236  0.52772503  1
  In  In24  1  0.15652469  0.15503503  0.33773371  1
  In  In25  1  0.32218673  0.63753715  0.00398740  1
  In  In26  1  0.14239346  0.32555644  0.86645269  1
  In  In27  1  0.67271157  0.86663085  0.15642170  1
  In  In28  1  0.66241874  0.36273587  -0.03302151  1
  In  In29  1  0.01768194  0.16601288  0.48971560  1
  In  In30  1  0.49488343  0.51434896  0.67762093  1
  In  In31  1  0.15576088  0.65239501  0.83733738  1
  In  In32  1  0.13516453  0.34078108  0.14224226  1
  In  In33  1  0.84050295  0.82698131  -0.01755855  1
  In  In34  1  0.32846144  0.50599595  0.48370554  1
  In  In35  1  0.86305900  0.32158366  0.13766845  1
  In  In36  1  0.69512345  0.00954335  0.65657683  1
  In  In37  1  0.11741652  0.83381299  0.34895525  1
  In  In38  1  0.47830333  0.82976853  0.32987401  1
  In  In39  1  0.16468505  0.64556630  0.16998766  1
  In  In40  1  0.34301528  -0.00204226  0.00548354  1
  In  In41  1  0.83857130  -0.00126602  0.84152082  1
  In  In42  1  0.32701035  0.17312643  0.85227739  1
  In  In43  1  0.48605573  0.49986353  0.32882060  1
  In  In44  1  0.00011831  0.64823336  -0.01599070  1
  In  In45  1  0.01250698  0.34016502  0.33474787  1
  In  In46  1  0.49292133  0.16281426  0.00809743  1
  In  In47  1  0.49260839  0.64229435  0.51702430  1
  In  In48  1  0.68650577  0.83546495  0.49298584  1
  In  In49  1  0.16160799  0.49898006  0.32860393  1
  In  In50  1  0.84100514  0.34611094  0.51591447  1
  In  In51  1  0.14781323  -0.00260551  0.47573231  1
  In  In52  1  0.50280608  0.20004446  0.68533411  1
  In  In53  1  0.32934787  0.65115960  0.33143965  1
  In  In54  1  0.15635765  0.00241445  0.83503603  1
  In  In55  1  0.69236598  0.66882536  0.33119810  1
  In  In56  1  0.49913268  0.84563467  0.00706200  1
  In  In57  1  0.00087110  0.01846683  0.00131280  1
  In  In58  1  0.32834417  -0.01315012  0.67549694  1
  In  In59  1  0.86550177  -0.03992282  0.48410523  1
  In  In60  1  0.47954810  0.34237600  0.16870534  1
  In  In61  1  0.84109993  0.67302424  0.16091637  1
  In  In62  1  0.84549635  0.02611804  0.18032534  1
  In  In63  1  0.84664628  0.17287078  0.68621474  1
  In  In64  1  0.14763747  0.16283700  0.66997983  1
  In  In65  1  0.16218771  0.84345046  -0.01318193  1
  In  In66  1  0.68581832  0.17579514  0.15273420  1
  In  In67  1  0.65222824  0.34936841  0.68025253  1
  In  In68  1  0.16013662  0.32430639  0.49543419  1
  In  In69  1  0.67604891  0.31957799  0.31609904  1
  In  In70  1  0.67901436  0.16469783  0.47385327  1
  In  In71  1  0.31319708  0.34564485  0.00081904  1
  Te  Te72  1  0.07045944  0.12709811  0.07806567  1
  Te  Te73  1  0.03735450  0.05490982  0.38342455  1
  Te  Te74  1  0.05783008  0.10567721  0.77823070  1
  Te  Te75  1  0.06170341  0.42942205  0.04631755  1
  Te  Te76  1  0.07236658  0.43525067  0.43714601  1
  Te  Te77  1  0.06100693  0.39608738  0.76244068  1
  Te  Te78  1  0.08394649  0.74716259  0.07690530  1
  Te  Te79  1  0.04859580  0.73642086  0.45006325  1
  Te  Te80  1  0.08024732  0.75351613  0.75209240  1
  Te  Te81  1  0.40576207  0.08982387  0.10197536  1
  Te  Te82  1  0.41609972  0.08147072  0.41310912  1
  Te  Te83  1  0.41668464  0.08486278  0.75246706  1
  Te  Te84  1  0.41788983  0.43107618  0.06583811  1
  Te  Te85  1  0.40812767  0.40566392  0.41075694  1
  Te  Te86  1  0.44783820  0.41416501  0.78247115  1
  Te  Te87  1  0.41660258  0.74364476  0.08921608  1
  Te  Te88  1  0.40895436  0.74033823  0.42961657  1
  Te  Te89  1  0.38252926  0.73469746  0.75604045  1
  Te  Te90  1  0.76488858  0.08173877  0.07063979  1
  Te  Te91  1  0.78518573  0.07411861  0.41331721  1
  Te  Te92  1  0.74049402  0.10071998  0.76744297  1
  Te  Te93  1  0.75097805  0.41241412  0.08644383  1
  Te  Te94  1  0.75067282  0.42420889  0.40968352  1
  Te  Te95  1  0.76076735  0.42119202  0.75859414  1
  Te  Te96  1  0.73453040  0.74907101  0.07767375  1
  Te  Te97  1  0.77958792  0.74763033  0.41994090  1
  Te  Te98  1  0.78474074  0.74909441  0.74722846  1
  Te  Te99  1  0.06134031  0.23067607  0.24312755  1
  Te  Te100  1  0.06179798  0.26556041  0.59661039  1
  Te  Te101  1  0.07171597  0.23181389  0.95927172  1
  Te  Te102  1  0.06240419  0.59023139  0.26381267  1
  Te  Te103  1  0.10063347  0.58360307  0.58936052  1
  Te  Te104  1  0.10639289  0.55012824  0.94033020  1
  Te  Te105  1  0.10651312  0.93264129  0.23646962  1
  Te  Te106  1  0.08391094  0.91309058  0.58410995  1
  Te  Te107  1  0.05456981  0.91121866  0.90435247  1
  Te  Te108  1  0.39620303  0.24319730  0.24091035  1
  Te  Te109  1  0.40364664  0.25273815  0.58115237  1
  Te  Te110  1  0.42448657  0.26490847  0.91780183  1
  Te  Te111  1  0.39581450  0.56694651  0.22467174  1
  Te  Te112  1  0.38135184  0.58880770  0.60557377  1
  Te  Te113  1  0.43306781  0.56452498  0.93573402  1
  Te  Te114  1  0.41990276  0.92856365  0.23276819  1
  Te  Te115  1  0.40033890  0.89154783  0.58044996  1
  Te  Te116  1  0.40065056  0.90185561  0.90130988  1
  Te  Te117  1  0.78542049  0.23935228  0.24944731  1
  Te  Te118  1  0.74296175  0.25008183  0.58777656  1
  Te  Te119  1  0.75764616  0.25233819  0.94361182  1
  Te  Te120  1  0.75257904  0.57038160  0.23389349  1
  Te  Te121  1  0.77329099  0.60024835  0.56290299  1
  Te  Te122  1  0.76896980  0.58276420  0.89666716  1
  Te  Te123  1  0.77545699  0.90464035  0.26014553  1
  Te  Te124  1  0.77978729  0.89872348  0.59664467  1
  Te  Te125  1  0.73449100  0.92108434  0.92545370  1
  Te  Te126  1  0.23507741  0.24819362  0.08086500  1
  Te  Te127  1  0.24632516  0.27296234  0.38143634  1
  Te  Te128  1  0.24481586  0.25204811  0.74817086  1
  Te  Te129  1  0.23188808  0.54834186  0.08160749  1
  Te  Te130  1  0.22329846  0.60945480  0.43395678  1
  Te  Te131  1  0.25974580  0.56923298  0.76896431  1
  Te  Te132  1  0.22191250  0.93962134  0.08836680  1
  Te  Te133  1  0.24563716  0.89434060  0.42060884  1
  Te  Te134  1  0.22832113  0.90130435  0.74633622  1
  Te  Te135  1  0.58683598  0.26902143  0.08234753  1
  Te  Te136  1  0.57872309  0.26945591  0.42433968  1
  Te  Te137  1  0.60038601  0.25309144  0.78045482  1
  Te  Te138  1  0.58153334  0.55004580  0.07321391  1
  Te  Te139  1  0.58948093  0.58470444  0.41315633  1
  Te  Te140  1  0.60366070  0.58477830  0.75875255  1
  Te  Te141  1  0.57882728  0.94750399  0.07752434  1
  Te  Te142  1  0.58401173  0.92454076  0.41512041  1
  Te  Te143  1  0.58417534  0.92616847  0.73451435  1
  Te  Te144  1  0.94584170  0.22489327  0.05637334  1
  Te  Te145  1  0.91463081  0.25472758  0.41859827  1
  Te  Te146  1  0.93007260  0.27794329  0.74753450  1
  Te  Te147  1  0.93709082  0.57189923  0.10053902  1
  Te  Te148  1  0.95641966  0.61205748  0.41489480  1
  Te  Te149  1  0.93636743  0.58458944  0.76734416  1
  Te  Te150  1  0.91632677  0.91212642  0.08405426  1
  Te  Te151  1  0.96100327  0.86977980  0.41124632  1
  Te  Te152  1  0.90972701  0.90788216  0.74965330  1
  Te  Te153  1  0.24773875  0.09339675  0.23888089  1
  Te  Te154  1  0.24369665  0.07920996  0.57672967  1
  Te  Te155  1  0.23582612  0.08614111  0.93488519  1
  Te  Te156  1  0.23177238  0.40998259  0.23401767  1
  Te  Te157  1  0.24638235  0.41490820  0.58485636  1
  Te  Te158  1  0.24760980  0.42697247  0.89264290  1
  Te  Te159  1  0.24180344  0.75421904  0.25676484  1
  Te  Te160  1  0.26313945  0.72232933  0.54805447  1
  Te  Te161  1  0.25344245  0.74411477  0.91846016  1
  Te  Te162  1  0.58981155  0.08827583  0.23691881  1
  Te  Te163  1  0.58508965  0.09913465  0.58512256  1
  Te  Te164  1  0.59598208  0.09359268  0.92580383  1
  Te  Te165  1  0.58830438  0.42196397  0.24541776  1
  Te  Te166  1  0.55648625  0.41481397  0.57804689  1
  Te  Te167  1  0.57035356  0.43679159  0.87939733  1
  Te  Te168  1  0.58611932  0.75689855  0.24926368  1
  Te  Te169  1  0.58260394  0.75324396  0.58045713  1
  Te  Te170  1  0.58230640  0.75509970  0.91353403  1
  Te  Te171  1  0.95272462  0.09210041  0.25490168  1
  Te  Te172  1  0.91643933  0.08243885  0.58138905  1
  Te  Te173  1  0.90716117  0.10507779  0.92042469  1
  Te  Te174  1  0.91581411  0.41900011  0.24713388  1
  Te  Te175  1  0.93647432  0.43842495  0.57744249  1
  Te  Te176  1  0.94445844  0.41467783  0.94144711  1
  Te  Te177  1  0.91766342  0.74502773  0.26510101  1
  Te  Te178  1  0.93211248  0.75501471  0.54912385  1
  Te  Te179  1  0.91318556  0.73116222  0.89708928  1
