# generated using pymatgen
data_In2Te3
_symmetry_space_group_name_H-M   'P 1'
_cell_length_a   18.94816610
_cell_length_b   18.92737278
_cell_length_c   18.91817795
_cell_angle_alpha   90.00126422
_cell_angle_beta   90.05636455
_cell_angle_gamma   90.06225845
_symmetry_Int_Tables_number   1
_chemical_formula_structural   In2Te3
_chemical_formula_sum   'In72 Te108'
_cell_volume   6784.78919351
_cell_formula_units_Z   36
loop_
 _symmetry_equiv_pos_site_id
 _symmetry_equiv_pos_as_xyz
  1  'x, y, z'
loop_
 _atom_site_type_symbol
 _atom_site_label
 _atom_site_symmetry_multiplicity
 _atom_site_fract_x
 _atom_site_fract_y
 _atom_site_fract_z
 _atom_site_occupancy
  In  In0  1  0.36349236  0.50157260  0.49423584  1
  In  In1  1  0.05564433  0.30856026  0.35889003  1
  In  In2  1  0.85107452  0.51149170  0.67150191  1
  In  In3  1  0.69380938  -0.01008499  0.32790247  1
  In  In4  1  0.53394866  0.68367970  0.17806421  1
  In  In5  1  0.35738676  0.67416183  0.32010661  1
  In  In6  1  0.81622212  0.31069594  0.81604510  1
  In  In7  1  0.64986426  0.51620628  0.85637060  1
  In  In8  1  0.66044208  -0.01155584  0.68103925  1
  In  In9  1  0.17745957  0.16494048  0.67825739  1
  In  In10  1  0.51136228  0.01869410  0.48321990  1
  In  In11  1  0.14199165  -0.00433462  0.49800590  1
  In  In12  1  0.00584040  0.52092816  0.83559395  1
  In  In13  1  0.84270047  0.51361100  0.33545589  1
  In  In14  1  0.84160627  0.48254455  0.00613461  1
  In  In15  1  0.03273593  0.15864916  0.85645784  1
  In  In16  1  0.44120520  0.30387546  0.86632359  1
  In  In17  1  0.84993287  0.14077073  0.65951543  1
  In  In18  1  0.17894312  -0.00863380  0.82598890  1
  In  In19  1  0.66458543  0.00449946  0.00676065  1
  In  In20  1  0.31476088  0.67280157  -0.00496331  1
  In  In21  1  0.30799300  0.03942360  0.30971583  1
  In  In22  1  0.65078124  0.82821454  0.82381814  1
  In  In23  1  0.34065050  0.86515701  0.13965630  1
  In  In24  1  0.13465280  0.83947643  -0.00293420  1
  In  In25  1  -0.02487392  0.69884047  0.35952553  1
  In  In26  1  0.62795138  0.17434830  0.84713256  1
  In  In27  1  0.83560559  0.33184939  0.16362502  1
  In  In28  1  0.47824999  0.30622755  0.16716058  1
  In  In29  1  0.32328252  0.01609290  -0.00015691  1
  In  In30  1  0.67034069  0.83305613  0.16339628  1
  In  In31  1  0.49574339  0.84939089  -0.00702449  1
  In  In32  1  0.81386991  0.81047174  0.62213615  1
  In  In33  1  0.47878534  0.16048896  0.66130252  1
  In  In34  1  -0.02501751  -0.02792554  0.34494822  1
  In  In35  1  0.16219574  0.69878958  0.13646177  1
  In  In36  1  0.85382420  0.14791350  0.34002797  1
  In  In37  1  0.50798328  0.17101842  0.32988509  1
  In  In38  1  0.14647618  0.63569640  0.49933750  1
  In  In39  1  0.31659360  0.83531155  0.51821906  1
  In  In40  1  0.50230659  0.51306025  0.02029236  1
  In  In41  1  0.33146262  0.00096866  0.67859841  1
  In  In42  1  0.17727829  0.50217128  0.66741510  1
  In  In43  1  -0.01242496  -0.04101539  0.65409503  1
  In  In44  1  0.82854072  0.67603958  0.16518898  1
  In  In45  1  0.83562384  -0.01653809  0.82215286  1
  In  In46  1  0.68312131  0.14899671  0.17038796  1
  In  In47  1  0.15686636  0.50039521  0.31731019  1
  In  In48  1  0.66480198  0.52406999  0.46235190  1
  In  In49  1  0.63555927  0.34422054  0.32637079  1
  In  In50  1  -0.00218413  0.35961515  0.67924761  1
  In  In51  1  0.17641638  0.48881049  -0.01348260  1
  In  In52  1  0.47502278  0.67732205  0.84202588  1
  In  In53  1  0.85120235  0.70107111  0.85880262  1
  In  In54  1  0.51272216  0.33345803  0.51433506  1
  In  In55  1  0.51666303  0.81958480  0.65977542  1
  In  In56  1  0.34304364  0.63456618  0.67421288  1
  In  In57  1  0.49393233  0.48200231  0.66595021  1
  In  In58  1  0.33974583  0.47502993  0.18078641  1
  In  In59  1  0.33063501  0.33004972  0.67536644  1
  In  In60  1  0.15420077  0.85644920  0.31151163  1
  In  In61  1  0.04528171  0.16737401  0.50527692  1
  In  In62  1  0.00931050  0.35049923  0.01641954  1
  In  In63  1  0.50332267  0.83499190  0.31546681  1
  In  In64  1  0.19966519  0.33433445  0.14177428  1
  In  In65  1  0.68329876  0.31173293  0.67125715  1
  In  In66  1  0.13301799  0.69472988  0.82004992  1
  In  In67  1  -0.01457477  -0.00775188  0.00966296  1
  In  In68  1  0.66661777  0.65710600  0.63398638  1
  In  In69  1  -0.01783850  0.52722008  0.19965509  1
  In  In70  1  0.67041414  0.34049982  0.01232224  1
  In  In71  1  -0.00575767  0.15765882  0.16052826  1
  Te  Te72  1  0.07664164  0.09992066  0.05264454  1
  Te  Te73  1  0.08539159  0.07466460  0.37715786  1
  Te  Te74  1  0.06847960  0.06836376  0.73413808  1
  Te  Te75  1  0.08604908  0.44177403  0.11018604  1
  Te  Te76  1  0.08469269  0.43705499  0.42800926  1
  Te  Te77  1  0.10048690  0.42098119  0.77259141  1
  Te  Te78  1  0.03954460  0.77420482  0.09564276  1
  Te  Te79  1  0.10353144  0.75873685  0.41482457  1
  Te  Te80  1  0.09293593  0.79099401  0.71677525  1
  Te  Te81  1  0.39628818  0.10291644  0.10216314  1
  Te  Te82  1  0.40077853  0.09825771  0.41684471  1
  Te  Te83  1  0.40134839  0.09522969  0.76664250  1
  Te  Te84  1  0.40771597  0.40478886  0.06679294  1
  Te  Te85  1  0.45782385  0.42484158  0.41299702  1
  Te  Te86  1  0.40142377  0.42537124  0.76951213  1
  Te  Te87  1  0.41645005  0.73913711  0.08711680  1
  Te  Te88  1  0.41714172  0.76675909  0.42384634  1
  Te  Te89  1  0.40117541  0.76035593  0.74043853  1
  Te  Te90  1  0.77060952  0.06910290  0.08515424  1
  Te  Te91  1  0.76128598  0.07517268  0.42663671  1
  Te  Te92  1  0.73971243  0.09538096  0.76049673  1
  Te  Te93  1  0.74007979  0.43577483  0.10844043  1
  Te  Te94  1  0.74729780  0.41191352  0.40345570  1
  Te  Te95  1  0.74305704  0.43375435  0.76164853  1
  Te  Te96  1  0.74332463  0.74904447  0.06842219  1
  Te  Te97  1  0.80325069  0.77867169  0.46980898  1
  Te  Te98  1  0.73752207  0.72793406  0.75041467  1
  Te  Te99  1  0.09324874  0.25569232  0.21927918  1
  Te  Te100  1  0.09865620  0.27325005  0.60540025  1
  Te  Te101  1  0.10559244  0.26672023  0.93604427  1
  Te  Te102  1  0.08983839  0.62306530  0.25140027  1
  Te  Te103  1  0.06509027  0.56993667  0.60143696  1
  Te  Te104  1  0.08752229  0.59928451  0.93599220  1
  Te  Te105  1  0.06003071  0.93128715  0.22976122  1
  Te  Te106  1  0.09961006  0.88205334  0.58792623  1
  Te  Te107  1  0.06259751  0.92277557  0.89316810  1
  Te  Te108  1  0.40123779  0.26048079  0.28439364  1
  Te  Te109  1  0.39827393  0.24803618  0.56677805  1
  Te  Te110  1  0.41002309  0.20747324  0.97478069  1
  Te  Te111  1  0.43720145  0.57639520  0.23783788  1
  Te  Te112  1  0.45059585  0.59641260  0.57363358  1
  Te  Te113  1  0.40058299  0.57157891  0.92115039  1
  Te  Te114  1  0.40955557  0.93740003  0.25291754  1
  Te  Te115  1  0.42903648  0.92799726  0.57715457  1
  Te  Te116  1  0.38314919  0.90573602  0.91970556  1
  Te  Te117  1  0.75427764  0.24842573  0.26207464  1
  Te  Te118  1  0.77651551  0.24385328  0.58189542  1
  Te  Te119  1  0.74316069  0.23757992  0.92681214  1
  Te  Te120  1  0.74825851  0.58526372  0.25087149  1
  Te  Te121  1  0.77306806  0.58131972  0.55993413  1
  Te  Te122  1  0.76849317  0.58525544  0.91978518  1
  Te  Te123  1  0.77571715  0.89391341  0.24926786  1
  Te  Te124  1  0.74599460  0.93462650  0.57562551  1
  Te  Te125  1  0.74235939  0.90751098  0.91439092  1
  Te  Te126  1  0.28948244  0.22708056  0.08326267  1
  Te  Te127  1  0.15896398  0.21290420  0.41363981  1
  Te  Te128  1  0.25827046  0.24508742  0.77290617  1
  Te  Te129  1  0.25385986  0.57640716  0.10209744  1
  Te  Te130  1  0.26478688  0.58383242  0.40193321  1
  Te  Te131  1  0.23831135  0.59136522  0.77437122  1
  Te  Te132  1  0.21940480  0.93201062  0.08389953  1
  Te  Te133  1  0.25637332  0.92575186  0.41004364  1
  Te  Te134  1  0.23415615  0.89775251  0.72402966  1
  Te  Te135  1  0.59093142  0.23524804  0.08654578  1
  Te  Te136  1  0.59925302  0.23993418  0.43093356  1
  Te  Te137  1  0.55942204  0.26796001  0.74711108  1
  Te  Te138  1  0.60400062  0.60022041  0.07872728  1
  Te  Te139  1  0.58675174  0.60841074  0.37486233  1
  Te  Te140  1  0.56941450  0.59373061  0.75267964  1
  Te  Te141  1  0.56872746  0.92608429  0.09953731  1
  Te  Te142  1  0.59229472  0.91247207  0.41309537  1
  Te  Te143  1  0.55131950  0.92561828  0.76534983  1
  Te  Te144  1  0.90911995  0.24710371  0.06422675  1
  Te  Te145  1  0.93492682  0.24153432  0.42568219  1
  Te  Te146  1  0.93557980  0.23501234  0.75726548  1
  Te  Te147  1  0.92442654  0.58818429  0.07530589  1
  Te  Te148  1  0.94920621  0.56789493  0.42203116  1
  Te  Te149  1  0.92553826  0.61949365  0.75230584  1
  Te  Te150  1  0.90844676  0.86978979  0.04556868  1
  Te  Te151  1  0.92199584  0.88150892  0.45025560  1
  Te  Te152  1  0.89729345  0.87387672  0.74051612  1
  Te  Te153  1  0.26220042  0.10753166  0.18644111  1
  Te  Te154  1  0.24626924  0.07637328  0.57644792  1
  Te  Te155  1  0.24830550  0.09729703  0.90012006  1
  Te  Te156  1  0.25597829  0.39265192  0.27594811  1
  Te  Te157  1  0.26230781  0.41989769  0.57159529  1
  Te  Te158  1  0.22724379  0.36456595  0.93183237  1
  Te  Te159  1  0.26334313  0.76447372  0.23878215  1
  Te  Te160  1  0.25174823  0.71296762  0.58019072  1
  Te  Te161  1  0.23742970  0.76836133  0.90948412  1
  Te  Te162  1  0.58500013  0.06755117  0.25148231  1
  Te  Te163  1  0.59206122  0.09336897  0.58855801  1
  Te  Te164  1  0.56209561  0.06788986  0.92167672  1
  Te  Te165  1  0.56729398  0.41365209  0.21860071  1
  Te  Te166  1  0.61359279  0.42886598  0.58680128  1
  Te  Te167  1  0.56879147  0.40397183  0.91859302  1
  Te  Te168  1  0.62202302  0.73739053  0.29414162  1
  Te  Te169  1  0.60009079  0.76072213  0.55551032  1
  Te  Te170  1  0.58117540  0.74152995  0.92849674  1
  Te  Te171  1  0.90614524  0.05709476  0.23155284  1
  Te  Te172  1  0.93719516  0.06754191  0.56112181  1
  Te  Te173  1  0.91013010  0.08365799  0.90785285  1
  Te  Te174  1  0.92763218  0.39969689  0.26161952  1
  Te  Te175  1  0.89173863  0.39854293  0.58609506  1
  Te  Te176  1  0.91673513  0.40547741  0.89773597  1
  Te  Te177  1  0.89069509  0.77196813  0.26326898  1
  Te  Te178  1  0.93540928  0.75704858  0.54743987  1
  Te  Te179  1  0.95399338  0.76690810  0.94197295  1
