# generated using pymatgen
data_In2Te3
_symmetry_space_group_name_H-M   'P 1'
_cell_length_a   18.74781693
_cell_length_b   18.75403361
_cell_length_c   18.74921313
_cell_angle_alpha   89.96321101
_cell_angle_beta   90.06697838
_cell_angle_gamma   89.96017194
_symmetry_Int_Tables_number   1
_chemical_formula_structural   In2Te3
_chemical_formula_sum   'In72 Te108'
_cell_volume   6592.16316997
_cell_formula_units_Z   36
loop_
 _symmetry_equiv_pos_site_id
 _symmetry_equiv_pos_as_xyz
  1  'x, y, z'
loop_
 _atom_site_type_symbol
 _atom_site_label
 _atom_site_symmetry_multiplicity
 _atom_site_fract_x
 _atom_site_fract_y
 _atom_site_fract_z
 _atom_site_occupancy
  In  In0  1  0.33023067  0.84029317  0.82812953  1
  In  In1  1  0.17994901  0.66733629  0.19214455  1
  In  In2  1  0.01871915  0.50213604  0.17158138  1
  In  In3  1  0.50818924  0.35082826  0.84046788  1
  In  In4  1  0.83800306  -0.01004205  0.52432997  1
  In  In5  1  0.51958244  0.68271638  0.82917962  1
  In  In6  1  -0.01819485  0.16914148  0.81885351  1
  In  In7  1  0.17633096  0.14983336  0.65166248  1
  In  In8  1  0.33574430  0.69062465  0.35411374  1
  In  In9  1  0.37322655  0.69995384  -0.00084208  1
  In  In10  1  0.32597138  -0.00461835  0.66960642  1
  In  In11  1  0.53046694  0.14108413  -0.01541526  1
  In  In12  1  0.68669892  0.33423868  0.67495075  1
  In  In13  1  0.65513090  0.82452894  0.16160900  1
  In  In14  1  0.65627930  0.66832830  -0.00116758  1
  In  In15  1  -0.05765504  0.31568081  0.00983050  1
  In  In16  1  0.14637617  0.49892826  0.34042443  1
  In  In17  1  0.34594386  0.12207231  0.48993130  1
  In  In18  1  0.16376028  0.13558801  0.00341943  1
  In  In19  1  -0.00496065  0.15146267  0.49043891  1
  In  In20  1  0.14300588  0.34432918  0.46661778  1
  In  In21  1  0.50666191  0.30576659  0.16437401  1
  In  In22  1  0.52923318  0.32611568  0.48251805  1
  In  In23  1  0.17658024  0.70048360  0.51279718  1
  In  In24  1  0.50820541  0.54930459  0.65777813  1
  In  In25  1  0.01090841  0.34341491  0.31267489  1
  In  In26  1  0.67085022  0.15433850  0.15571026  1
  In  In27  1  0.33430360  -0.01507259  0.00193577  1
  In  In28  1  -0.02621300  0.32676712  0.67468746  1
  In  In29  1  0.35415905  0.51853881  0.16471523  1
  In  In30  1  0.69015887  0.17976336  0.84930190  1
  In  In31  1  0.83727723  0.01363855  0.15251268  1
  In  In32  1  0.01092835  -0.00542301  0.64472412  1
  In  In33  1  0.00646555  0.81414515  0.81931263  1
  In  In34  1  -0.01232066  0.68252106  -0.01435154  1
  In  In35  1  0.82891219  0.67951611  0.17889144  1
  In  In36  1  0.81818603  0.52358444  0.68036776  1
  In  In37  1  0.50466693  0.82723275  0.01574148  1
  In  In38  1  0.66300819  0.30485232  0.32100086  1
  In  In39  1  0.14962813  0.33672787  0.83689036  1
  In  In40  1  0.16085827  0.84976051  0.01570120  1
  In  In41  1  0.50519478  -0.03239307  0.50795119  1
  In  In42  1  0.15281637  0.50901532  -0.01675895  1
  In  In43  1  0.85022776  0.52849136  0.34067090  1
  In  In44  1  0.51802022  0.69584810  0.51365009  1
  In  In45  1  0.81026226  -0.01012994  0.84557492  1
  In  In46  1  0.48117922  -0.03068297  0.18120184  1
  In  In47  1  0.31054483  0.34613590  -0.01648054  1
  In  In48  1  0.14944798  0.31136917  0.18289252  1
  In  In49  1  0.66218563  -0.01344090  0.34838708  1
  In  In50  1  0.15900131  0.67203781  0.81549545  1
  In  In51  1  0.83239419  0.68242559  0.81099601  1
  In  In52  1  -0.00489709  0.00116104  -0.00008538  1
  In  In53  1  0.34058551  0.16496868  0.19611989  1
  In  In54  1  0.82881755  0.48475030  -0.01102232  1
  In  In55  1  0.82664565  0.83580892  0.64990439  1
  In  In56  1  0.15105332  0.14862745  0.33159440  1
  In  In57  1  0.81919611  0.32553105  0.51472904  1
  In  In58  1  0.50361731  0.14894332  0.64632669  1
  In  In59  1  -0.00183632  0.82841527  0.49732680  1
  In  In60  1  0.34812267  0.34261320  0.67471976  1
  In  In61  1  0.34592696  0.50655089  0.52576998  1
  In  In62  1  0.32552546  0.31442908  0.31420542  1
  In  In63  1  0.67284064  0.67685702  0.33199286  1
  In  In64  1  0.68556604  0.50473655  0.51180975  1
  In  In65  1  0.35948372  0.14422298  0.82045615  1
  In  In66  1  0.16018723  0.52961482  0.65562214  1
  In  In67  1  0.83590908  0.14888531  0.32010152  1
  In  In68  1  0.49789611  0.49109131  0.32109746  1
  In  In69  1  0.81977184  0.82966910  0.36570129  1
  In  In70  1  0.00854549  0.85923830  0.19481727  1
  In  In71  1  0.52827880  0.50781394  -0.00471328  1
  Te  Te72  1  0.08612898  0.05921433  0.10230228  1
  Te  Te73  1  0.08412608  0.05475336  0.42446521  1
  Te  Te74  1  0.08578634  0.07847158  0.75244008  1
  Te  Te75  1  0.08372928  0.40401065  0.07265053  1
  Te  Te76  1  0.03162608  0.44466142  0.43062998  1
  Te  Te77  1  0.07587893  0.42294945  0.73627323  1
  Te  Te78  1  0.07607755  0.74560715  0.09585332  1
  Te  Te79  1  0.09990734  0.76785870  0.40073248  1
  Te  Te80  1  0.09272008  0.75785396  0.71324316  1
  Te  Te81  1  0.42465629  0.08978465  0.08421871  1
  Te  Te82  1  0.43966755  0.05235592  0.39844764  1
  Te  Te83  1  0.44864516  0.04556832  0.74757989  1
  Te  Te84  1  0.41854995  0.40805031  0.07938231  1
  Te  Te85  1  0.40424166  0.41152763  0.41633677  1
  Te  Te86  1  0.42881940  0.44541950  0.74897683  1
  Te  Te87  1  0.40790138  0.77897552  0.11850598  1
  Te  Te88  1  0.42808129  0.78233039  0.42857135  1
  Te  Te89  1  0.42997787  0.76686603  0.74540087  1
  Te  Te90  1  0.75524407  0.08716163  0.05370896  1
  Te  Te91  1  0.75415121  0.07970970  0.42695001  1
  Te  Te92  1  0.74265396  0.08183887  0.75006522  1
  Te  Te93  1  0.73788329  0.38747110  0.05364116  1
  Te  Te94  1  0.74429778  0.41263720  0.40506796  1
  Te  Te95  1  0.76399368  0.41581584  0.76958573  1
  Te  Te96  1  0.75874022  0.75961038  0.07102157  1
  Te  Te97  1  0.75057888  0.72596233  0.44855094  1
  Te  Te98  1  0.72527381  0.77184547  0.74617239  1
  Te  Te99  1  0.04680421  0.21554627  0.23605388  1
  Te  Te100  1  0.08087452  0.25035085  0.58362755  1
  Te  Te101  1  0.07522536  0.23946612  0.92962489  1
  Te  Te102  1  0.06298153  0.60862560  0.27162165  1
  Te  Te103  1  0.07280784  0.59698106  0.55425426  1
  Te  Te104  1  0.05610653  0.58368899  0.89125056  1
  Te  Te105  1  0.10946951  0.89509379  0.30117712  1
  Te  Te106  1  0.10194135  0.89551077  0.58327898  1
  Te  Te107  1  0.08212449  0.91867810  0.90500950  1
  Te  Te108  1  0.44780889  0.22929907  0.28411427  1
  Te  Te109  1  0.40840809  0.24492920  0.57093853  1
  Te  Te110  1  0.41493772  0.24574110  0.92163964  1
  Te  Te111  1  0.42992088  0.61225058  0.25526276  1
  Te  Te112  1  0.39661906  0.63366144  0.59250288  1
  Te  Te113  1  0.42468237  0.58720031  0.91404817  1
  Te  Te114  1  0.38940574  0.93249130  0.29399566  1
  Te  Te115  1  0.38687580  0.89240422  0.57395965  1
  Te  Te116  1  0.43432228  0.91762615  0.91115511  1
  Te  Te117  1  0.77563396  0.25374182  0.22252257  1
  Te  Te118  1  0.72696336  0.23043791  0.57798579  1
  Te  Te119  1  0.75063565  0.27210350  0.95256648  1
  Te  Te120  1  0.73790828  0.57377465  0.24127500  1
  Te  Te121  1  0.74603933  0.61715803  0.58533509  1
  Te  Te122  1  0.75408293  0.59241333  0.90988854  1
  Te  Te123  1  0.75535114  0.91205636  0.24706122  1
  Te  Te124  1  0.71944845  0.91428883  0.57705731  1
  Te  Te125  1  0.70232287  0.92097879  0.92172074  1
  Te  Te126  1  0.25334432  0.24390516  0.08545795  1
  Te  Te127  1  0.24763244  0.23699568  0.42361651  1
  Te  Te128  1  0.25300770  0.24445941  0.75590023  1
  Te  Te129  1  0.24743460  0.58754603  0.07761157  1
  Te  Te130  1  0.25368014  0.57605662  0.42036200  1
  Te  Te131  1  0.26074965  0.59091791  0.74464941  1
  Te  Te132  1  0.25049589  0.92379394  0.10658162  1
  Te  Te133  1  0.25388718  0.90940565  0.36849203  1
  Te  Te134  1  0.22990182  0.91778578  0.75208874  1
  Te  Te135  1  0.60097085  0.25860826  0.05410759  1
  Te  Te136  1  0.59672057  0.21332957  0.41700143  1
  Te  Te137  1  0.57234285  0.24474187  0.75022815  1
  Te  Te138  1  0.57753285  0.59720147  0.10188276  1
  Te  Te139  1  0.57048689  0.57524258  0.42824746  1
  Te  Te140  1  0.60931905  0.58979927  0.75646925  1
  Te  Te141  1  0.59263914  0.93868126  0.08161270  1
  Te  Te142  1  0.58198368  0.87616655  0.41055287  1
  Te  Te143  1  0.60152154  0.87167158  0.73358048  1
  Te  Te144  1  0.89133518  0.22896635  0.11418286  1
  Te  Te145  1  0.91704902  0.25753712  0.41069196  1
  Te  Te146  1  0.87565469  0.25425488  0.75835905  1
  Te  Te147  1  0.91683947  0.58616104  0.08423833  1
  Te  Te148  1  0.93649704  0.58782460  0.44245980  1
  Te  Te149  1  0.93190437  0.59791235  0.74246311  1
  Te  Te150  1  0.91417979  0.89986183  0.08164738  1
  Te  Te151  1  0.92232516  0.93350849  0.41147310  1
  Te  Te152  1  0.91692679  0.92337286  0.74748235  1
  Te  Te153  1  0.25018918  0.06454981  0.25627184  1
  Te  Te154  1  0.23127313  0.04667157  0.55324193  1
  Te  Te155  1  0.25257407  0.06630687  0.89997154  1
  Te  Te156  1  0.24428103  0.42737282  0.23638637  1
  Te  Te157  1  0.23919458  0.40619117  0.58162026  1
  Te  Te158  1  0.25156174  0.44455196  0.88358317  1
  Te  Te159  1  0.25690167  0.77828169  0.25770494  1
  Te  Te160  1  0.28113195  0.77632354  0.58347141  1
  Te  Te161  1  0.24169840  0.74659341  0.93105764  1
  Te  Te162  1  0.58298334  0.06891590  0.24545759  1
  Te  Te163  1  0.59994858  0.05411762  0.58613540  1
  Te  Te164  1  0.60802096  0.05467562  0.88977821  1
  Te  Te165  1  0.59376087  0.41227728  0.23272214  1
  Te  Te166  1  0.57568490  0.41900537  0.59342810  1
  Te  Te167  1  0.61515384  0.43307349  0.90152221  1
  Te  Te168  1  0.57326930  0.77279056  0.27508101  1
  Te  Te169  1  0.59506983  0.78137996  0.61897142  1
  Te  Te170  1  0.61282787  0.79156192  0.90897144  1
  Te  Te171  1  0.93191315  0.05320927  0.26022674  1
  Te  Te172  1  0.90681696  0.10116502  0.60421261  1
  Te  Te173  1  0.90023408  0.09226948  0.92319400  1
  Te  Te174  1  0.90477744  0.42516938  0.23803882  1
  Te  Te175  1  0.90194628  0.42943655  0.58730408  1
  Te  Te176  1  0.92464926  0.41285774  0.90138089  1
  Te  Te177  1  0.91932319  0.75792150  0.27111801  1
  Te  Te178  1  0.90936659  0.73764268  0.57546109  1
  Te  Te179  1  0.89227760  0.77881126  0.91533962  1
