# generated using pymatgen
data_In2Te3
_symmetry_space_group_name_H-M   'P 1'
_cell_length_a   18.97872489
_cell_length_b   18.98173705
_cell_length_c   18.97178995
_cell_angle_alpha   90.13158678
_cell_angle_beta   89.90788365
_cell_angle_gamma   89.84131079
_symmetry_Int_Tables_number   1
_chemical_formula_structural   In2Te3
_chemical_formula_sum   'In72 Te108'
_cell_volume   6834.51835574
_cell_formula_units_Z   36
loop_
 _symmetry_equiv_pos_site_id
 _symmetry_equiv_pos_as_xyz
  1  'x, y, z'
loop_
 _atom_site_type_symbol
 _atom_site_label
 _atom_site_symmetry_multiplicity
 _atom_site_fract_x
 _atom_site_fract_y
 _atom_site_fract_z
 _atom_site_occupancy
  In  In0  1  0.16811469  0.17047643  0.64429701  1
  In  In1  1  0.67426824  0.64392726  0.66997334  1
  In  In2  1  -0.01053402  0.32650869  0.30631458  1
  In  In3  1  0.66637077  0.33173134  0.64815915  1
  In  In4  1  0.65548317  -0.02125131  0.32465481  1
  In  In5  1  0.20243496  0.46624138  0.29891381  1
  In  In6  1  0.49719379  0.19747092  0.30836949  1
  In  In7  1  0.49423331  0.33567766  0.84140939  1
  In  In8  1  0.64917192  0.82652366  0.87649144  1
  In  In9  1  0.31869281  0.01036515  0.01351704  1
  In  In10  1  -0.00155723  0.16947950  0.16443006  1
  In  In11  1  0.13629236  0.16096528  0.35421521  1
  In  In12  1  0.32470399  0.67279864  0.33638463  1
  In  In13  1  0.00050036  0.65789529  0.32637929  1
  In  In14  1  0.82623598  0.17644777  0.04104761  1
  In  In15  1  0.00554449  0.18311341  0.82241511  1
  In  In16  1  0.50365230  0.02482824  0.86268010  1
  In  In17  1  0.31704288  0.02064586  0.65089049  1
  In  In18  1  -0.01181879  0.83853376  0.86730415  1
  In  In19  1  0.81486561  0.82062443  0.32181944  1
  In  In20  1  0.30825408  0.33422532  0.65187082  1
  In  In21  1  0.51451682  -0.00481064  0.17396903  1
  In  In22  1  0.84652944  0.34170411  0.17791929  1
  In  In23  1  0.84385002  0.01977570  0.81984512  1
  In  In24  1  0.85853073  0.01053754  0.48816388  1
  In  In25  1  0.65879074  0.66744268  0.01614329  1
  In  In26  1  0.85558850  0.49316771  0.65175365  1
  In  In27  1  0.00165036  0.67506091  0.66518347  1
  In  In28  1  0.32745201  -0.00636788  0.31867143  1
  In  In29  1  0.68480160  0.47008010  0.45436276  1
  In  In30  1  0.12926955  0.84622222  0.66232653  1
  In  In31  1  0.33229396  0.49116484  0.84031166  1
  In  In32  1  0.31803289  0.84679151  0.84909090  1
  In  In33  1  0.51551298  0.46366100  0.30195104  1
  In  In34  1  0.88547321  0.50336991  0.05181130  1
  In  In35  1  0.15761876  0.47424790  0.04151804  1
  In  In36  1  0.32378445  0.19982099  0.81792357  1
  In  In37  1  0.17615675  0.64841732  0.85689718  1
  In  In38  1  0.64643979  0.49385033  0.82524599  1
  In  In39  1  0.69690529  -0.01020055  0.68176985  1
  In  In40  1  0.82441933  0.69170017  0.84620642  1
  In  In41  1  0.03542948  0.48347075  0.82821338  1
  In  In42  1  0.67556470  0.16278795  0.49971524  1
  In  In43  1  0.47552600  0.34576188  0.49755808  1
  In  In44  1  -0.00125755  0.49535114  0.48310492  1
  In  In45  1  0.16849811  0.32334231  0.50119094  1
  In  In46  1  0.50305031  0.19117273  0.65993607  1
  In  In47  1  0.69868493  0.64795573  0.30258798  1
  In  In48  1  0.15526415  0.86265507  0.28337794  1
  In  In49  1  0.50785125  0.66068503  0.49504532  1
  In  In50  1  0.32895696  0.68461606  0.67478184  1
  In  In51  1  0.00066182  -0.00157664  0.00517440  1
  In  In52  1  0.68310632  0.00791709  0.01739586  1
  In  In53  1  0.49221329  0.51368610  0.01391017  1
  In  In54  1  0.33206345  0.16894472  0.18592688  1
  In  In55  1  0.15544449  0.84529910  0.02309518  1
  In  In56  1  0.49856557  -0.00186900  0.49279233  1
  In  In57  1  0.85432913  0.16884906  0.30348626  1
  In  In58  1  0.00455409  0.82586415  0.51637166  1
  In  In59  1  0.49012609  0.84445047  0.67398531  1
  In  In60  1  0.49456536  0.81354216  0.33589150  1
  In  In61  1  0.83396529  0.83459686  0.02408643  1
  In  In62  1  0.16644379  0.17220296  -0.03531992  1
  In  In63  1  -0.00110866  0.02074162  0.64829321  1
  In  In64  1  0.14447273  0.65822873  0.49913671  1
  In  In65  1  0.84353388  0.82973003  0.64096680  1
  In  In66  1  0.49835786  0.53414381  0.66759212  1
  In  In67  1  0.35243825  0.32769213  -0.00093298  1
  In  In68  1  0.16122090  0.65541548  0.16316515  1
  In  In69  1  0.50043708  0.66578180  0.16642354  1
  In  In70  1  0.65764161  0.30262051  0.05365449  1
  In  In71  1  0.84558458  0.32668137  0.84735169  1
  Te  Te72  1  0.09518817  0.09332590  0.07345215  1
  Te  Te73  1  0.07799260  0.07221262  0.45305624  1
  Te  Te74  1  0.09360233  0.08500371  0.74613424  1
  Te  Te75  1  0.06076337  0.40757118  0.13012073  1
  Te  Te76  1  0.08919525  0.41036750  0.39263207  1
  Te  Te77  1  0.07871126  0.37386232  0.74359871  1
  Te  Te78  1  0.07147417  0.74369384  0.08579943  1
  Te  Te79  1  0.08876906  0.76078293  0.40108649  1
  Te  Te80  1  0.08325005  0.74647497  0.77516906  1
  Te  Te81  1  0.42295262  0.08691171  0.09445202  1
  Te  Te82  1  0.43131875  0.08088185  0.38750045  1
  Te  Te83  1  0.41864287  0.09020925  0.74266200  1
  Te  Te84  1  0.41626769  0.41667442  0.10431955  1
  Te  Te85  1  0.41206779  0.43871626  0.40518012  1
  Te  Te86  1  0.42259452  0.41342927  0.73321745  1
  Te  Te87  1  0.43081169  0.73698248  0.06090751  1
  Te  Te88  1  0.40113647  0.75392615  0.43885703  1
  Te  Te89  1  0.41672749  0.75753065  0.77413651  1
  Te  Te90  1  0.78421620  0.05645504  0.11449420  1
  Te  Te91  1  0.75518741  0.08096867  0.39762457  1
  Te  Te92  1  0.76168223  0.10921427  0.73686852  1
  Te  Te93  1  0.76704452  0.41067202  0.06678403  1
  Te  Te94  1  0.76371369  0.37244417  0.37658044  1
  Te  Te95  1  0.75378266  0.41666591  0.75105979  1
  Te  Te96  1  0.75297854  0.74098033  0.10110209  1
  Te  Te97  1  0.73432605  0.73795970  0.41207211  1
  Te  Te98  1  0.74452583  0.76347541  0.73928525  1
  Te  Te99  1  0.09693588  0.27940143  0.20857004  1
  Te  Te100  1  0.06625543  0.25037616  0.57668260  1
  Te  Te101  1  0.07221217  0.27341325  0.91715445  1
  Te  Te102  1  0.08828813  0.55615506  0.25198425  1
  Te  Te103  1  0.07921700  0.56496419  0.59859812  1
  Te  Te104  1  0.08077082  0.57087518  0.94286210  1
  Te  Te105  1  0.04583633  0.93972367  0.22534220  1
  Te  Te106  1  0.09452432  0.94981431  0.55064682  1
  Te  Te107  1  0.09671259  0.93232832  0.90675636  1
  Te  Te108  1  0.37339607  0.28016484  0.27980009  1
  Te  Te109  1  0.39331535  0.23867271  0.56837442  1
  Te  Te110  1  0.43321554  0.22440334  0.92213613  1
  Te  Te111  1  0.42000089  0.58189308  0.26229575  1
  Te  Te112  1  0.39574052  0.59005242  0.57375155  1
  Te  Te113  1  0.40548056  0.58716725  0.92188257  1
  Te  Te114  1  0.41752863  0.89941774  0.23889734  1
  Te  Te115  1  0.40118884  0.91671672  0.57541073  1
  Te  Te116  1  0.41839601  0.92480608  0.93429118  1
  Te  Te117  1  0.74509153  0.26243368  0.25956433  1
  Te  Te118  1  0.76122128  0.26753306  0.55709781  1
  Te  Te119  1  0.74797504  0.25017612  0.93427020  1
  Te  Te120  1  0.78188847  0.54755501  0.23278205  1
  Te  Te121  1  0.74448479  0.55744614  0.56841966  1
  Te  Te122  1  0.73547341  0.58790626  0.90916544  1
  Te  Te123  1  0.76254024  0.93052885  0.23567098  1
  Te  Te124  1  0.75331434  0.91993710  0.56127616  1
  Te  Te125  1  0.77174766  0.91466626  0.90538385  1
  Te  Te126  1  0.25711968  0.23555384  0.07067273  1
  Te  Te127  1  0.24478788  0.25216760  0.39424873  1
  Te  Te128  1  0.21263365  0.28837889  0.76046270  1
  Te  Te129  1  0.25762377  0.56735590  0.09353471  1
  Te  Te130  1  0.23078551  0.57693482  0.40487350  1
  Te  Te131  1  0.24781149  0.57575040  0.74539346  1
  Te  Te132  1  0.24364123  0.92704565  0.10681724  1
  Te  Te133  1  0.23969971  0.90460830  0.39445540  1
  Te  Te134  1  0.24519581  0.91468737  0.73454983  1
  Te  Te135  1  0.52770314  0.28886029  0.12222684  1
  Te  Te136  1  0.57355504  0.25233095  0.42799497  1
  Te  Te137  1  0.59570062  0.25480067  0.75985038  1
  Te  Te138  1  0.59925889  0.56265572  0.10820170  1
  Te  Te139  1  0.58968672  0.57559660  0.39644231  1
  Te  Te140  1  0.56760536  0.61304899  0.77618537  1
  Te  Te141  1  0.59272001  0.91364300  0.08062259  1
  Te  Te142  1  0.58618653  0.89316898  0.42840045  1
  Te  Te143  1  0.58334371  0.92464574  0.76663674  1
  Te  Te144  1  0.93524506  0.27404377  0.07253827  1
  Te  Te145  1  0.95346776  0.21859524  0.40037211  1
  Te  Te146  1  0.92986373  0.27697124  0.73646398  1
  Te  Te147  1  0.90777118  0.60226169  0.15797994  1
  Te  Te148  1  0.90903968  0.59637656  0.42368576  1
  Te  Te149  1  0.90596442  0.59713201  0.75379042  1
  Te  Te150  1  0.94695607  0.89807656  0.10083021  1
  Te  Te151  1  0.91852036  0.89427730  0.41330330  1
  Te  Te152  1  0.92791994  0.90841353  0.73899663  1
  Te  Te153  1  0.22392293  0.08568580  0.25403443  1
  Te  Te154  1  0.24283271  0.08985328  0.54511817  1
  Te  Te155  1  0.26124907  0.08194394  0.88838097  1
  Te  Te156  1  0.29163182  0.40216013  0.19976732  1
  Te  Te157  1  0.24449407  0.43156222  0.56567003  1
  Te  Te158  1  0.24547848  0.40810007  0.92941403  1
  Te  Te159  1  0.25420433  0.75429993  0.23251745  1
  Te  Te160  1  0.22477760  0.75369624  0.58703736  1
  Te  Te161  1  0.24853125  0.74917623  0.94067380  1
  Te  Te162  1  0.59669296  0.09862927  0.24776395  1
  Te  Te163  1  0.58515692  0.07395848  0.59419902  1
  Te  Te164  1  0.61133940  0.09809459  0.92653590  1
  Te  Te165  1  0.60286253  0.37286845  0.22186692  1
  Te  Te166  1  0.57732560  0.43570306  0.58091928  1
  Te  Te167  1  0.58564860  0.40965028  0.93680518  1
  Te  Te168  1  0.59754168  0.75116908  0.24578217  1
  Te  Te169  1  0.57966044  0.74575326  0.59905993  1
  Te  Te170  1  0.54713243  0.75349649  0.96118546  1
  Te  Te171  1  0.95579709  0.06341715  0.26247409  1
  Te  Te172  1  0.88243942  0.09892661  0.60415013  1
  Te  Te173  1  0.91429052  0.09909367  0.92773836  1
  Te  Te174  1  0.88210527  0.43863449  0.29526462  1
  Te  Te175  1  0.91450845  0.39952274  0.55686292  1
  Te  Te176  1  0.92018946  0.43895589  0.91726726  1
  Te  Te177  1  0.91264196  0.74116645  0.23798903  1
  Te  Te178  1  0.90342575  0.71787051  0.55751318  1
  Te  Te179  1  0.92635582  0.72970358  0.95003230  1
