# generated using pymatgen
data_In2Te3
_symmetry_space_group_name_H-M   'P 1'
_cell_length_a   18.76802177
_cell_length_b   18.76798159
_cell_length_c   18.76153480
_cell_angle_alpha   89.99667392
_cell_angle_beta   89.98322989
_cell_angle_gamma   89.97231894
_symmetry_Int_Tables_number   1
_chemical_formula_structural   In2Te3
_chemical_formula_sum   'In72 Te108'
_cell_volume   6608.52231251
_cell_formula_units_Z   36
loop_
 _symmetry_equiv_pos_site_id
 _symmetry_equiv_pos_as_xyz
  1  'x, y, z'
loop_
 _atom_site_type_symbol
 _atom_site_label
 _atom_site_symmetry_multiplicity
 _atom_site_fract_x
 _atom_site_fract_y
 _atom_site_fract_z
 _atom_site_occupancy
  In  In0  1  0.66587089  0.33746598  0.32652771  1
  In  In1  1  0.32726128  0.84028031  0.17948134  1
  In  In2  1  0.82590424  0.50562547  0.01954123  1
  In  In3  1  0.31147090  -0.01301765  0.00620903  1
  In  In4  1  0.51226058  0.83933247  0.65830978  1
  In  In5  1  0.00905129  0.51828799  0.50542703  1
  In  In6  1  0.32843110  0.65346170  0.63702083  1
  In  In7  1  0.50473873  0.32881347  0.16570273  1
  In  In8  1  0.16401821  0.50667115  -0.00538297  1
  In  In9  1  0.15043258  0.15345657  0.32957023  1
  In  In10  1  0.52448080  0.16942320  0.33314142  1
  In  In11  1  0.16504751  0.32907977  0.83493649  1
  In  In12  1  0.49599085  0.00909169  0.81103840  1
  In  In13  1  0.31552925  -0.01535454  0.33668257  1
  In  In14  1  0.82175150  0.14458310  -0.02712644  1
  In  In15  1  0.32401090  0.65454633  -0.01512543  1
  In  In16  1  0.32831877  0.66532984  0.36417270  1
  In  In17  1  0.15489491  0.82310026  0.35143312  1
  In  In18  1  0.83807405  -0.02131311  0.47905593  1
  In  In19  1  0.15927338  0.14712244  0.01817659  1
  In  In20  1  0.13939208  -0.03850293  0.85012759  1
  In  In21  1  0.65278468  0.49181646  0.83787493  1
  In  In22  1  0.01184172  0.15540033  0.48845521  1
  In  In23  1  0.35562065  0.37240772  0.68864206  1
  In  In24  1  0.00152884  0.52165016  0.81484236  1
  In  In25  1  0.33423958  0.15690446  0.16389127  1
  In  In26  1  0.47879157  0.17728447  0.01328726  1
  In  In27  1  0.84083410  0.51588588  0.32591054  1
  In  In28  1  0.00464241  0.52015095  0.17704612  1
  In  In29  1  0.31458660  0.82294525  0.82099670  1
  In  In30  1  -0.00065042  0.34612052  0.00513231  1
  In  In31  1  0.50637536  0.65365042  0.84369168  1
  In  In32  1  0.65273645  -0.00121173  0.66758397  1
  In  In33  1  0.00231246  0.15287672  0.16797351  1
  In  In34  1  0.51995958  0.67080028  0.17196877  1
  In  In35  1  0.51104532  0.83427848  0.00295688  1
  In  In36  1  0.16605132  0.34186963  0.49775857  1
  In  In37  1  0.86812022  0.79853863  0.64438610  1
  In  In38  1  0.67926386  0.66964123  0.66628206  1
  In  In39  1  0.81364865  0.33342764  0.81793816  1
  In  In40  1  0.86086606  0.68871274  0.83582132  1
  In  In41  1  0.64672975  0.18630830  0.47374963  1
  In  In42  1  0.68333769  0.67055049  0.02998669  1
  In  In43  1  0.85278727  0.34264723  0.50995344  1
  In  In44  1  0.67293672  0.36738017  0.64234470  1
  In  In45  1  0.48029130  0.18181060  0.68350604  1
  In  In46  1  0.16463753  0.52894422  0.32934648  1
  In  In47  1  0.02135516  -0.02503146  0.64054277  1
  In  In48  1  0.35315762  0.37447994  0.36369092  1
  In  In49  1  0.64277233  0.52883713  0.49660931  1
  In  In50  1  -0.04023598  0.14966802  0.83083167  1
  In  In51  1  0.86442688  -0.03683907  0.86831488  1
  In  In52  1  0.32232742  0.32328509  0.00092757  1
  In  In53  1  0.35722651  0.15812747  0.82660430  1
  In  In54  1  0.47840331  -0.01167842  0.50289830  1
  In  In55  1  0.84770127  0.16545476  0.31715542  1
  In  In56  1  0.84334217  0.81440595  0.33569962  1
  In  In57  1  0.32293446  0.51334365  0.16637669  1
  In  In58  1  0.67396717  -0.01909299  0.01137584  1
  In  In59  1  0.66508102  0.16562935  0.82802189  1
  In  In60  1  0.49140042  0.80856888  0.33021925  1
  In  In61  1  0.01093680  -0.01070529  0.32728998  1
  In  In62  1  0.67315615  0.81428959  0.49876250  1
  In  In63  1  0.83756053  0.16973453  0.69101956  1
  In  In64  1  0.81878640  0.34240737  0.16154652  1
  In  In65  1  0.15365213  0.69811982  0.81082780  1
  In  In66  1  0.66400013  0.51306787  0.16933731  1
  In  In67  1  0.85841448  0.68548645  0.15759873  1
  In  In68  1  0.66974362  -0.01320130  0.30299414  1
  In  In69  1  0.16422254  0.15662014  0.65412983  1
  In  In70  1  0.17819968  0.52302823  0.66009030  1
  In  In71  1  0.32185432  0.16606513  0.52248452  1
  Te  Te72  1  0.08310806  0.04928368  0.09746330  1
  Te  Te73  1  0.10659165  0.04848114  0.43467111  1
  Te  Te74  1  0.07441002  0.07968280  0.75349787  1
  Te  Te75  1  0.09346764  0.41899520  0.09882907  1
  Te  Te76  1  0.07815445  0.42345941  0.40503452  1
  Te  Te77  1  0.09138884  0.42275869  0.73951652  1
  Te  Te78  1  0.03779352  0.77708661  0.07601562  1
  Te  Te79  1  0.07219167  0.74630658  0.44988663  1
  Te  Te80  1  0.06842371  0.78877431  0.72866602  1
  Te  Te81  1  0.42121134  0.05685314  0.08829701  1
  Te  Te82  1  0.41149310  0.09227348  0.40967243  1
  Te  Te83  1  0.39001741  0.05950965  0.71443330  1
  Te  Te84  1  0.41020805  0.41810701  0.08335148  1
  Te  Te85  1  0.43216864  0.48837194  0.43206779  1
  Te  Te86  1  0.45173305  0.43673293  0.78083492  1
  Te  Te87  1  0.41100867  0.74507443  0.08129129  1
  Te  Te88  1  0.40680061  0.76630540  0.44423603  1
  Te  Te89  1  0.42310126  0.74267146  0.74847496  1
  Te  Te90  1  0.76316241  0.07211307  0.08591902  1
  Te  Te91  1  0.75321146  0.08691453  0.41183626  1
  Te  Te92  1  0.76126312  0.05896856  0.76768121  1
  Te  Te93  1  0.71783741  0.41041580  0.06863721  1
  Te  Te94  1  0.75357795  0.42144038  0.41895210  1
  Te  Te95  1  0.76223034  0.44932796  0.73473328  1
  Te  Te96  1  0.76762532  0.78113067  0.08516343  1
  Te  Te97  1  0.76833290  0.72451332  0.43044732  1
  Te  Te98  1  0.75903295  0.76764537  0.75033186  1
  Te  Te99  1  0.07256342  0.25137769  0.25170450  1
  Te  Te100  1  0.07233392  0.25833866  0.58557190  1
  Te  Te101  1  0.07453370  0.24034160  0.92021944  1
  Te  Te102  1  0.06764971  0.62453839  0.26388667  1
  Te  Te103  1  0.08000125  0.61789137  0.59725019  1
  Te  Te104  1  0.08119274  0.60550821  0.91296085  1
  Te  Te105  1  0.09309637  0.90211570  0.24024044  1
  Te  Te106  1  0.10349826  0.85654043  0.58997246  1
  Te  Te107  1  0.06095815  0.87381183  0.93969426  1
  Te  Te108  1  0.40612860  0.25411621  0.25775134  1
  Te  Te109  1  0.41381506  0.27258511  0.58052406  1
  Te  Te110  1  0.42963826  0.26966089  0.90052447  1
  Te  Te111  1  0.41584445  0.59559081  0.25495716  1
  Te  Te112  1  0.42533262  0.56269747  0.57048887  1
  Te  Te113  1  0.41815138  0.56042629  0.91962859  1
  Te  Te114  1  0.43054248  0.92580574  0.25347208  1
  Te  Te115  1  0.39662601  0.89969922  0.58768115  1
  Te  Te116  1  0.41387374  0.91638171  0.90875265  1
  Te  Te117  1  0.73769095  0.23648959  0.23764311  1
  Te  Te118  1  0.75152288  0.23999772  0.58182520  1
  Te  Te119  1  0.73407661  0.26210184  0.92512665  1
  Te  Te120  1  0.75052920  0.60925251  0.24607230  1
  Te  Te121  1  0.75703132  0.59306352  0.56558096  1
  Te  Te122  1  0.75518607  0.59175433  0.91127829  1
  Te  Te123  1  0.77388411  0.90432185  0.23918207  1
  Te  Te124  1  0.75943120  0.91192928  0.59298428  1
  Te  Te125  1  0.74956159  0.88838701  0.92272074  1
  Te  Te126  1  0.23092428  0.25350507  0.10170617  1
  Te  Te127  1  0.24889534  0.24544872  0.41052298  1
  Te  Te128  1  0.25888752  0.25161699  0.74067958  1
  Te  Te129  1  0.22492519  0.60595609  0.09397952  1
  Te  Te130  1  0.23561890  0.58406289  0.44650471  1
  Te  Te131  1  0.26028266  0.59691016  0.76507796  1
  Te  Te132  1  0.22563006  0.90121459  0.08927096  1
  Te  Te133  1  0.27371753  0.87754284  0.42919932  1
  Te  Te134  1  0.23539880  0.92251015  0.74626453  1
  Te  Te135  1  0.59113726  0.24252784  0.08308029  1
  Te  Te136  1  0.55270503  0.29299811  0.42240469  1
  Te  Te137  1  0.59861021  0.26397064  0.73407250  1
  Te  Te138  1  0.56958238  0.57348386  0.06461624  1
  Te  Te139  1  0.54848216  0.58572674  0.39928119  1
  Te  Te140  1  0.57806863  0.57562521  0.73288279  1
  Te  Te141  1  0.58649606  0.90640222  0.10594295  1
  Te  Te142  1  0.59599671  0.92649148  0.42675333  1
  Te  Te143  1  0.59572195  0.90091937  0.77118546  1
  Te  Te144  1  0.90610078  0.24718336  0.07609407  1
  Te  Te145  1  0.92981429  0.25657746  0.40779038  1
  Te  Te146  1  0.93473363  0.27511712  0.74535235  1
  Te  Te147  1  0.93958980  0.59567439  0.06083885  1
  Te  Te148  1  0.92078346  0.60274962  0.41595739  1
  Te  Te149  1  0.91539901  0.60392223  0.72790048  1
  Te  Te150  1  0.92540799  0.86765281  0.06315171  1
  Te  Te151  1  0.94737349  0.89134538  0.42813341  1
  Te  Te152  1  0.93403579  0.90090354  0.74479399  1
  Te  Te153  1  0.23480047  0.06571066  0.23584859  1
  Te  Te154  1  0.23137857  0.05736456  0.56632798  1
  Te  Te155  1  0.24628105  0.08593229  0.90381453  1
  Te  Te156  1  0.24831857  0.41862558  0.25999193  1
  Te  Te157  1  0.26521336  0.42795976  0.57616333  1
  Te  Te158  1  0.25851916  0.42645132  0.90533475  1
  Te  Te159  1  0.24623852  0.73783569  0.25610948  1
  Te  Te160  1  0.22105183  0.75336278  0.61457871  1
  Te  Te161  1  0.23088992  0.76290118  0.93251660  1
  Te  Te162  1  0.58783514  0.08589309  0.23013290  1
  Te  Te163  1  0.57058827  0.09559689  0.58176018  1
  Te  Te164  1  0.57334547  0.08438572  0.91960540  1
  Te  Te165  1  0.56887101  0.43393060  0.25770255  1
  Te  Te166  1  0.55648533  0.43744924  0.58052514  1
  Te  Te167  1  0.55097375  0.40331043  0.89703394  1
  Te  Te168  1  0.60694713  0.75467410  0.25672660  1
  Te  Te169  1  0.57057079  0.72883974  0.57148400  1
  Te  Te170  1  0.60183421  0.74413179  0.91993467  1
  Te  Te171  1  0.90547958  0.05157044  0.23494652  1
  Te  Te172  1  0.91352639  0.08098129  0.58303998  1
  Te  Te173  1  0.94825330  0.05820703  0.95272025  1
  Te  Te174  1  0.92153342  0.41127615  0.24974501  1
  Te  Te175  1  0.92344463  0.43625576  0.59707424  1
  Te  Te176  1  0.91021827  0.42626684  0.90996048  1
  Te  Te177  1  0.95357026  0.74430628  0.25828645  1
  Te  Te178  1  0.95209539  0.71969188  0.54789226  1
  Te  Te179  1  0.94060144  0.76878192  0.93407322  1
