# generated using pymatgen
data_In2Te3
_symmetry_space_group_name_H-M   'P 1'
_cell_length_a   18.98867465
_cell_length_b   18.98902760
_cell_length_c   18.98635689
_cell_angle_alpha   89.88826072
_cell_angle_beta   89.97182538
_cell_angle_gamma   89.93868063
_symmetry_Int_Tables_number   1
_chemical_formula_structural   In2Te3
_chemical_formula_sum   'In72 Te108'
_cell_volume   6846.01572960
_cell_formula_units_Z   36
loop_
 _symmetry_equiv_pos_site_id
 _symmetry_equiv_pos_as_xyz
  1  'x, y, z'
loop_
 _atom_site_type_symbol
 _atom_site_label
 _atom_site_symmetry_multiplicity
 _atom_site_fract_x
 _atom_site_fract_y
 _atom_site_fract_z
 _atom_site_occupancy
  In  In0  1  0.32562544  0.63905839  0.66526550  1
  In  In1  1  0.31171342  0.66375276  0.32940217  1
  In  In2  1  0.65916014  -0.00085151  -0.00610500  1
  In  In3  1  0.71201251  0.70605512  0.00845344  1
  In  In4  1  0.33420730  0.85527322  0.81573591  1
  In  In5  1  0.48906506  0.15855703  0.62147506  1
  In  In6  1  0.84159634  0.15679599  0.65402287  1
  In  In7  1  -0.02683637  0.16698525  0.48928427  1
  In  In8  1  0.86018133  0.69891035  0.47750097  1
  In  In9  1  0.00876806  0.35375558  0.65586410  1
  In  In10  1  0.64478627  0.18075992  0.79958366  1
  In  In11  1  0.02047744  0.32289691  0.00494247  1
  In  In12  1  0.52872055  0.67396181  0.85271281  1
  In  In13  1  0.33761579  0.49796681  0.50061451  1
  In  In14  1  0.52188416  0.47551101  0.00498475  1
  In  In15  1  0.83538143  0.49181467  0.34204114  1
  In  In16  1  0.15214940  0.69512048  0.84371824  1
  In  In17  1  0.65011159  0.32063905  0.31038784  1
  In  In18  1  0.02687640  0.49876562  0.50080684  1
  In  In19  1  0.18033354  0.32108422  0.18106624  1
  In  In20  1  0.18106208  0.49404458  -0.00575307  1
  In  In21  1  0.48312149  0.31192130  0.15659668  1
  In  In22  1  0.34681338  0.44855571  0.83177502  1
  In  In23  1  0.15681029  0.51552803  0.68907110  1
  In  In24  1  0.65482992  0.66153287  0.33034999  1
  In  In25  1  0.33836501  0.15824047  0.17078302  1
  In  In26  1  0.32201884  0.30344766  0.66601422  1
  In  In27  1  0.46829802  0.82861373  0.64577295  1
  In  In28  1  0.81013213  0.34318011  0.49580595  1
  In  In29  1  -0.00031926  0.85685896  0.49179357  1
  In  In30  1  0.64143306  0.30788105  0.01356423  1
  In  In31  1  0.17704958  -0.01404739  0.48236631  1
  In  In32  1  0.67158737  0.01431466  0.67089409  1
  In  In33  1  0.16362594  -0.00902518  0.16889733  1
  In  In34  1  -0.01087064  0.83907610  0.84228788  1
  In  In35  1  0.18971802  0.83992287  0.01121514  1
  In  In36  1  0.86592833  0.31665962  0.85990990  1
  In  In37  1  0.50160391  -0.00327461  0.83332139  1
  In  In38  1  0.84226054  0.84351546  0.31761445  1
  In  In39  1  0.00928176  0.00488437  -0.00905749  1
  In  In40  1  0.15266206  0.69443800  0.51047578  1
  In  In41  1  0.69666333  0.15223351  0.46469949  1
  In  In42  1  0.13861744  0.51281421  0.30985124  1
  In  In43  1  -0.00166830  0.85027571  0.17493536  1
  In  In44  1  0.33496189  -0.00524199  0.64663103  1
  In  In45  1  -0.01734416  0.69318045  0.01769129  1
  In  In46  1  0.85768866  0.01937438  0.18228980  1
  In  In47  1  0.47957609  0.14145412  0.35387589  1
  In  In48  1  0.49868058  0.48040621  0.34508846  1
  In  In49  1  0.69082473  0.51979744  0.17880264  1
  In  In50  1  0.34371847  0.63320401  0.01657062  1
  In  In51  1  0.79149734  0.50767284  0.68062142  1
  In  In52  1  0.32951304  0.82705419  0.18252536  1
  In  In53  1  0.84778055  0.14579439  0.00196097  1
  In  In54  1  0.17082263  0.33298025  0.48521963  1
  In  In55  1  0.51086850  0.83791297  0.34080543  1
  In  In56  1  0.65519503  0.63357367  0.65142196  1
  In  In57  1  0.83304180  0.54498602  0.02431748  1
  In  In58  1  0.67256988  0.84000674  0.83498756  1
  In  In59  1  0.80748035  0.33416324  0.16697908  1
  In  In60  1  0.13720412  0.12880577  0.67634941  1
  In  In61  1  0.17174661  0.14891280  -0.00547583  1
  In  In62  1  0.50329212  0.00560642  0.17264249  1
  In  In63  1  0.67948316  0.47276915  0.85134480  1
  In  In64  1  -0.01451130  0.51116114  0.82772999  1
  In  In65  1  0.64956296  0.85010894  0.50988066  1
  In  In66  1  0.82859579  0.85007280  0.69256248  1
  In  In67  1  0.34350157  0.18969379  0.85589618  1
  In  In68  1  0.33055625  0.82222130  0.48299316  1
  In  In69  1  0.51034804  0.66125108  0.17400317  1
  In  In70  1  0.32681916  0.47446492  0.15487494  1
  In  In71  1  0.16460926  0.17130647  0.33115216  1
  Te  Te72  1  0.07456809  0.09129714  0.09585978  1
  Te  Te73  1  0.07683654  0.08223447  0.41620892  1
  Te  Te74  1  0.03679744  0.05890687  0.75863345  1
  Te  Te75  1  0.09671359  0.41697784  0.09453661  1
  Te  Te76  1  0.07098912  0.40125803  0.39471978  1
  Te  Te77  1  0.08553048  0.41100445  0.77319355  1
  Te  Te78  1  0.09473039  0.76041890  0.09512343  1
  Te  Te79  1  0.06707377  0.75416436  0.40551226  1
  Te  Te80  1  0.06781548  0.75939729  0.74574979  1
  Te  Te81  1  0.44163493  0.10463558  0.07980480  1
  Te  Te82  1  0.40804249  0.06434631  0.45513033  1
  Te  Te83  1  0.41983433  0.08202052  0.73794684  1
  Te  Te84  1  0.40218887  0.39105904  0.05372389  1
  Te  Te85  1  0.42596984  0.39803662  0.44051109  1
  Te  Te86  1  0.41346152  0.41005813  0.70865493  1
  Te  Te87  1  0.41717496  0.74439540  0.08846847  1
  Te  Te88  1  0.42311896  0.72950058  0.40683062  1
  Te  Te89  1  0.42396003  0.73410157  0.75846350  1
  Te  Te90  1  0.74649132  0.07908298  0.09009230  1
  Te  Te91  1  0.80623325  0.06859593  0.40660741  1
  Te  Te92  1  0.76026001  0.08977132  0.76591183  1
  Te  Te93  1  0.73705186  0.42347871  0.06204243  1
  Te  Te94  1  0.71681036  0.42135336  0.40373976  1
  Te  Te95  1  0.76491281  0.38116664  0.76699204  1
  Te  Te96  1  0.79040569  0.71904615  0.12941896  1
  Te  Te97  1  0.73708331  0.76620542  0.41390786  1
  Te  Te98  1  0.73067030  0.74276894  0.73667282  1
  Te  Te99  1  0.07414273  0.23853023  0.23716160  1
  Te  Te100  1  0.08538419  0.24706868  0.57947690  1
  Te  Te101  1  0.07140088  0.22242301  0.91148635  1
  Te  Te102  1  0.04028609  0.59317556  0.23962508  1
  Te  Te103  1  0.07011469  0.60329009  0.60240597  1
  Te  Te104  1  0.07675811  0.59370038  0.92811301  1
  Te  Te105  1  0.04874086  0.96202880  0.25581248  1
  Te  Te106  1  0.09842677  0.91449610  0.58300090  1
  Te  Te107  1  0.10405318  0.91517446  0.91462399  1
  Te  Te108  1  0.40676903  0.25133102  0.26941780  1
  Te  Te109  1  0.38152517  0.23331998  0.54995679  1
  Te  Te110  1  0.43395985  0.28568582  0.91465083  1
  Te  Te111  1  0.41098888  0.57118463  0.24506046  1
  Te  Te112  1  0.42864960  0.57821670  0.58327796  1
  Te  Te113  1  0.43004430  0.56293531  0.91430267  1
  Te  Te114  1  0.41067245  0.92187724  0.26637665  1
  Te  Te115  1  0.43070015  0.93265977  0.53606007  1
  Te  Te116  1  0.42611574  0.90397756  0.91679761  1
  Te  Te117  1  0.74941431  0.22720352  0.25310105  1
  Te  Te118  1  0.73831646  0.24147697  0.58163808  1
  Te  Te119  1  0.75110485  0.24145248  0.92852502  1
  Te  Te120  1  0.78040763  0.62072817  0.24904126  1
  Te  Te121  1  0.76708351  0.60396006  0.54753164  1
  Te  Te122  1  0.74808809  0.59770818  0.91062350  1
  Te  Te123  1  0.75709661  0.92740280  0.23416281  1
  Te  Te124  1  0.75831909  0.92777443  0.58203203  1
  Te  Te125  1  0.75614446  0.93795021  0.90153751  1
  Te  Te126  1  0.25745374  0.24464813  0.07628602  1
  Te  Te127  1  0.26269046  0.24379111  0.41512644  1
  Te  Te128  1  0.23255577  0.22215559  0.75502062  1
  Te  Te129  1  0.23436058  0.58535811  0.10804296  1
  Te  Te130  1  0.22556537  0.58288923  0.42714804  1
  Te  Te131  1  0.25134050  0.58237323  0.78585323  1
  Te  Te132  1  0.27819241  0.93509813  0.08606100  1
  Te  Te133  1  0.23868011  0.88772854  0.38877332  1
  Te  Te134  1  0.23857144  0.92635908  0.73432979  1
  Te  Te135  1  0.57761831  0.21129529  0.10492585  1
  Te  Te136  1  0.58134269  0.24082729  0.41724481  1
  Te  Te137  1  0.56234925  0.25532989  0.70583829  1
  Te  Te138  1  0.59805868  0.59029245  0.07225833  1
  Te  Te139  1  0.57909976  0.57581036  0.42048076  1
  Te  Te140  1  0.58220638  0.56028491  0.77163666  1
  Te  Te141  1  0.58162794  0.91560676  0.08644534  1
  Te  Te142  1  0.60730002  0.93669250  0.39601588  1
  Te  Te143  1  0.57462512  0.90656233  0.72677197  1
  Te  Te144  1  0.91206773  0.25419780  0.08511381  1
  Te  Te145  1  0.90264274  0.26837199  0.40951500  1
  Te  Te146  1  0.92804505  0.25378195  0.73596646  1
  Te  Te147  1  0.94859232  0.58056549  0.11270222  1
  Te  Te148  1  0.93493531  0.58141199  0.41331553  1
  Te  Te149  1  0.89921662  0.58740669  0.73907884  1
  Te  Te150  1  0.91366141  0.92284253  0.07252881  1
  Te  Te151  1  0.90106781  0.94071577  0.41495239  1
  Te  Te152  1  0.92776110  0.94572083  0.75410172  1
  Te  Te153  1  0.25530467  0.07096836  0.26027977  1
  Te  Te154  1  0.24198276  0.08961893  0.57402587  1
  Te  Te155  1  0.26878883  0.07784489  0.91022520  1
  Te  Te156  1  0.25417124  0.41729825  0.27310402  1
  Te  Te157  1  0.23153267  0.42566345  0.59327764  1
  Te  Te158  1  0.23973853  0.39018386  0.91000434  1
  Te  Te159  1  0.22409283  0.76403467  0.26555491  1
  Te  Te160  1  0.25702943  0.75743577  0.60059054  1
  Te  Te161  1  0.27143202  0.73931808  0.93045657  1
  Te  Te162  1  0.58451989  0.06300931  0.28392515  1
  Te  Te163  1  0.59779267  0.07584075  0.55579210  1
  Te  Te164  1  0.57728604  0.10267264  0.90810779  1
  Te  Te165  1  0.57617341  0.42278497  0.21786470  1
  Te  Te166  1  0.66176774  0.48807205  0.60913931  1
  Te  Te167  1  0.56602847  0.37328095  0.89413081  1
  Te  Te168  1  0.59692383  0.76640427  0.23617081  1
  Te  Te169  1  0.56801790  0.74095231  0.57546966  1
  Te  Te170  1  0.59089902  0.77412824  0.94547334  1
  Te  Te171  1  0.87807254  0.12785146  0.28404351  1
  Te  Te172  1  0.92418993  0.06220379  0.57972267  1
  Te  Te173  1  0.94577187  0.10270596  0.89581088  1
  Te  Te174  1  0.90507675  0.41715792  0.23812698  1
  Te  Te175  1  0.90756170  0.43227499  0.57719809  1
  Te  Te176  1  0.91817377  0.43625471  0.94287930  1
  Te  Te177  1  0.95704070  0.75267886  0.28185500  1
  Te  Te178  1  0.91829263  0.77402544  0.59375646  1
  Te  Te179  1  0.89537153  0.75410449  0.91853855  1
