# generated using pymatgen
data_In2Te3
_symmetry_space_group_name_H-M   'P 1'
_cell_length_a   18.77210674
_cell_length_b   18.76832917
_cell_length_c   18.77315115
_cell_angle_alpha   89.96793441
_cell_angle_beta   90.12500528
_cell_angle_gamma   89.97738676
_symmetry_Int_Tables_number   1
_chemical_formula_structural   In2Te3
_chemical_formula_sum   'In72 Te108'
_cell_volume   6614.15956338
_cell_formula_units_Z   36
loop_
 _symmetry_equiv_pos_site_id
 _symmetry_equiv_pos_as_xyz
  1  'x, y, z'
loop_
 _atom_site_type_symbol
 _atom_site_label
 _atom_site_symmetry_multiplicity
 _atom_site_fract_x
 _atom_site_fract_y
 _atom_site_fract_z
 _atom_site_occupancy
  In  In0  1  0.83445016  0.85108677  0.31255680  1
  In  In1  1  0.51916286  0.85206899  0.34291315  1
  In  In2  1  0.85252351  0.64614183  0.82767984  1
  In  In3  1  0.16346484  0.83001749  0.00087801  1
  In  In4  1  0.31060806  0.02903143  -0.00498916  1
  In  In5  1  0.31467794  0.28460214  0.01953006  1
  In  In6  1  0.18863267  0.18257665  0.34484419  1
  In  In7  1  0.50144673  0.02395784  0.15659722  1
  In  In8  1  0.01461518  0.02660083  0.01647973  1
  In  In9  1  0.84750410  0.33507869  0.51851328  1
  In  In10  1  0.64928898  0.31899613  0.34310312  1
  In  In11  1  0.83442436  0.51886703  0.34472693  1
  In  In12  1  0.82462332  0.83935355  0.62438373  1
  In  In13  1  -0.00327545  0.64684185  -0.00339023  1
  In  In14  1  0.31598252  0.66137990  0.34248954  1
  In  In15  1  0.65108031  0.67045723  0.33300475  1
  In  In16  1  0.45879922  0.30353945  0.20090306  1
  In  In17  1  0.32261574  0.47657415  0.17127116  1
  In  In18  1  0.00639280  0.16649962  0.50429215  1
  In  In19  1  0.49098909  0.65653266  0.51336730  1
  In  In20  1  0.66863987  0.47558747  0.17697124  1
  In  In21  1  0.02135727  0.32255575  0.33716030  1
  In  In22  1  0.01431880  0.30963686  -0.02191252  1
  In  In23  1  0.67944415  0.14651159  0.14868977  1
  In  In24  1  0.49570844  0.48747821  0.68022145  1
  In  In25  1  0.83754603  0.01046426  0.84101698  1
  In  In26  1  0.63619471  0.17498243  0.51529585  1
  In  In27  1  0.48808147  0.86790623  0.67504555  1
  In  In28  1  0.67274701  0.85980419  0.47791470  1
  In  In29  1  0.86016917  0.31977831  0.14714023  1
  In  In30  1  0.17357955  0.47684685  0.33613228  1
  In  In31  1  0.03638161  0.00888206  0.67579654  1
  In  In32  1  0.67301166  0.66690605  0.65977548  1
  In  In33  1  0.01150609  0.68072067  0.33126499  1
  In  In34  1  0.68761695  0.31209976  0.00054958  1
  In  In35  1  0.66230173  0.01589448  0.33900248  1
  In  In36  1  0.31902285  0.84132244  0.51259417  1
  In  In37  1  0.64714410  0.17725386  0.82995274  1
  In  In38  1  0.65346346  0.50034728  0.52391595  1
  In  In39  1  0.16397833  0.01978724  0.81123443  1
  In  In40  1  0.50030960  0.50446790  -0.00186167  1
  In  In41  1  0.48081073  0.34253471  0.83125876  1
  In  In42  1  0.35248669  0.82841693  0.18427394  1
  In  In43  1  0.16742889  0.83664605  0.34039725  1
  In  In44  1  0.16868267  0.49425858  0.64935825  1
  In  In45  1  0.48857507  0.66500740  0.17868929  1
  In  In46  1  0.17242883  0.82340903  0.66650187  1
  In  In47  1  0.17919613  0.18774690  0.69037935  1
  In  In48  1  0.35185489  0.47273237  0.49659574  1
  In  In49  1  0.31896154  0.65054599  -0.01700211  1
  In  In50  1  0.00655739  0.32218456  0.67303278  1
  In  In51  1  0.84881826  0.65285040  0.50649125  1
  In  In52  1  0.84015804  0.84868445  0.00757081  1
  In  In53  1  0.31188858  0.49515221  0.83309230  1
  In  In54  1  -0.01544680  0.82035287  0.48604215  1
  In  In55  1  0.50628935  0.86274019  -0.00522656  1
  In  In56  1  0.84187304  0.13681860  0.29443681  1
  In  In57  1  -0.00118782  0.50156831  0.15491281  1
  In  In58  1  0.83851709  0.18252771  0.67069430  1
  In  In59  1  0.81602887  -0.01907331  0.50022912  1
  In  In60  1  0.16116046  0.01450643  0.17740270  1
  In  In61  1  0.00974625  0.47373160  0.83328579  1
  In  In62  1  0.35455152  0.83435335  0.83632322  1
  In  In63  1  0.50348650  0.18712341  -0.00917120  1
  In  In64  1  -0.01668530  0.84395479  0.13238995  1
  In  In65  1  0.01693180  0.83277572  0.80268242  1
  In  In66  1  0.17709810  0.02621490  0.49132351  1
  In  In67  1  0.16029907  0.48673927  0.00074111  1
  In  In68  1  0.65768064  0.84527432  0.82045822  1
  In  In69  1  0.34608769  0.17496245  0.51712938  1
  In  In70  1  0.69232221  0.47793272  0.80185838  1
  In  In71  1  0.68168542  0.69384112  -0.01976847  1
  Te  Te72  1  0.12245202  0.11882017  0.07334304  1
  Te  Te73  1  0.07436643  0.08424963  0.39652955  1
  Te  Te74  1  0.05281607  0.12527658  0.77082449  1
  Te  Te75  1  0.08593831  0.39380614  0.09415538  1
  Te  Te76  1  0.08318744  0.41201934  0.43517703  1
  Te  Te77  1  0.11213255  0.39237863  0.75724404  1
  Te  Te78  1  0.08386701  0.73520407  0.08833518  1
  Te  Te79  1  0.10482750  0.73781000  0.43923588  1
  Te  Te80  1  0.09115949  0.72287678  0.74086964  1
  Te  Te81  1  0.40167219  0.11408637  0.08312630  1
  Te  Te82  1  0.41909663  0.11300463  0.40281652  1
  Te  Te83  1  0.44507047  0.03480365  0.71390441  1
  Te  Te84  1  0.41158939  0.40206202  0.06869587  1
  Te  Te85  1  0.45021623  0.38437497  0.43113884  1
  Te  Te86  1  0.37771048  0.40049343  0.73153853  1
  Te  Te87  1  0.41215290  0.74794917  0.06595616  1
  Te  Te88  1  0.42008865  0.75490991  0.41121275  1
  Te  Te89  1  0.42057831  0.75152561  0.73429408  1
  Te  Te90  1  0.77780906  0.07820083  0.06674351  1
  Te  Te91  1  0.74778201  0.10643790  0.43110447  1
  Te  Te92  1  0.74612157  0.08709907  0.74355371  1
  Te  Te93  1  0.76751065  0.41999729  0.07462963  1
  Te  Te94  1  0.74590612  0.41758229  0.41983315  1
  Te  Te95  1  0.75481368  0.37438821  0.71968575  1
  Te  Te96  1  0.75875240  0.75573160  0.08850757  1
  Te  Te97  1  0.76266306  0.74631521  0.41714961  1
  Te  Te98  1  0.76083913  0.75407361  0.75214107  1
  Te  Te99  1  0.09301651  0.23691758  0.23952356  1
  Te  Te100  1  0.10559536  0.25638579  0.57299603  1
  Te  Te101  1  0.10860559  0.23084210  0.89394786  1
  Te  Te102  1  0.09069427  0.57673865  0.25122001  1
  Te  Te103  1  0.03666505  0.55501734  0.61231988  1
  Te  Te104  1  0.09592746  0.58297864  0.90155707  1
  Te  Te105  1  0.07357419  0.90759823  0.24284674  1
  Te  Te106  1  0.08509503  0.91572636  0.56530590  1
  Te  Te107  1  0.07883868  0.92806899  0.91487208  1
  Te  Te108  1  0.37925161  0.20250334  0.28689715  1
  Te  Te109  1  0.44134807  0.22767786  0.62271119  1
  Te  Te110  1  0.40298226  0.21680137  0.87869469  1
  Te  Te111  1  0.40827338  0.56801347  0.26343150  1
  Te  Te112  1  0.39881830  0.57940458  0.60269842  1
  Te  Te113  1  0.42356712  0.58452216  0.89363725  1
  Te  Te114  1  0.42299104  0.93832413  0.25957392  1
  Te  Te115  1  0.40894304  0.94391786  0.57247870  1
  Te  Te116  1  0.41524006  0.95478382  0.91251271  1
  Te  Te117  1  0.75197237  0.25871791  0.24389659  1
  Te  Te118  1  0.72768443  0.27361588  0.59449534  1
  Te  Te119  1  0.76428300  0.24456508  0.89547426  1
  Te  Te120  1  0.74650717  0.59114335  0.24330764  1
  Te  Te121  1  0.76926703  0.56302984  0.60176665  1
  Te  Te122  1  0.74899173  0.57440213  0.91257757  1
  Te  Te123  1  0.73059517  0.92776052  0.24161368  1
  Te  Te124  1  0.71233587  0.93944899  0.60562883  1
  Te  Te125  1  0.73843052  0.92645615  0.92249945  1
  Te  Te126  1  0.21507396  0.23882547  0.11831262  1
  Te  Te127  1  0.25172518  0.27084881  0.44789178  1
  Te  Te128  1  0.29718392  0.23794482  0.76288050  1
  Te  Te129  1  0.24104404  0.58001438  0.09319772  1
  Te  Te130  1  0.24355793  0.57021809  0.43759431  1
  Te  Te131  1  0.23542753  0.58697566  0.74619563  1
  Te  Te132  1  0.25890596  0.91478265  0.08710398  1
  Te  Te133  1  0.26468250  0.93530883  0.40378026  1
  Te  Te134  1  0.25817559  0.92001040  0.74714567  1
  Te  Te135  1  0.58008071  0.26695052  0.09966465  1
  Te  Te136  1  0.53783337  0.25215718  0.42237085  1
  Te  Te137  1  0.55770582  0.25421419  0.73481465  1
  Te  Te138  1  0.58921066  0.58728504  0.09036762  1
  Te  Te139  1  0.56981555  0.57132416  0.41338882  1
  Te  Te140  1  0.59019856  0.58308788  0.75660341  1
  Te  Te141  1  0.59370942  0.92565330  0.09476315  1
  Te  Te142  1  0.56322513  0.96057914  0.44144542  1
  Te  Te143  1  0.56647065  0.95631246  0.77026245  1
  Te  Te144  1  0.92832084  0.21818722  0.06521746  1
  Te  Te145  1  0.90547524  0.24084523  0.41240961  1
  Te  Te146  1  0.89288422  0.28553215  0.76635885  1
  Te  Te147  1  0.89834533  0.58429682  0.08578930  1
  Te  Te148  1  0.95150131  0.57435483  0.42440296  1
  Te  Te149  1  0.92650598  0.55617823  0.73544487  1
  Te  Te150  1  0.88816844  0.97214027  0.11010256  1
  Te  Te151  1  0.92496147  0.93415912  0.40244588  1
  Te  Te152  1  0.91304235  0.92169812  0.73359836  1
  Te  Te153  1  0.26692083  0.08322998  0.25994202  1
  Te  Te154  1  0.25498294  0.08295761  0.60678094  1
  Te  Te155  1  0.21985446  0.12030436  0.91156655  1
  Te  Te156  1  0.26176198  0.38047303  0.26465169  1
  Te  Te157  1  0.25709805  0.39294372  0.58027155  1
  Te  Te158  1  0.24979928  0.38974422  0.92575274  1
  Te  Te159  1  0.23841369  0.74396126  0.23968899  1
  Te  Te160  1  0.25383287  0.73112592  0.58324577  1
  Te  Te161  1  0.23926808  0.74914186  0.89735194  1
  Te  Te162  1  0.57766060  0.11262804  0.25701251  1
  Te  Te163  1  0.54002464  0.10541959  0.60761434  1
  Te  Te164  1  0.58884596  0.08401244  0.93018554  1
  Te  Te165  1  0.55908015  0.41205832  0.25858459  1
  Te  Te166  1  0.55048275  0.40242890  0.56888645  1
  Te  Te167  1  0.59145414  0.41050410  0.91611454  1
  Te  Te168  1  0.58777941  0.76825859  0.23403399  1
  Te  Te169  1  0.59126591  0.75854374  0.56924533  1
  Te  Te170  1  0.56545249  0.75446744  0.90248151  1
  Te  Te171  1  0.94570245  0.07379599  0.21500444  1
  Te  Te172  1  0.91514709  0.07309203  0.58404750  1
  Te  Te173  1  0.91620092  0.10199495  0.93027683  1
  Te  Te174  1  0.91285394  0.41530415  0.26128281  1
  Te  Te175  1  0.94714963  0.42890921  0.58033282  1
  Te  Te176  1  0.91727437  0.41215900  0.93053474  1
  Te  Te177  1  0.91389263  0.74708299  0.23503032  1
  Te  Te178  1  0.93459393  0.73640342  0.60392898  1
  Te  Te179  1  0.92387887  0.76237878  0.91092808  1
