# generated using pymatgen
data_In2Te3
_symmetry_space_group_name_H-M   'P 1'
_cell_length_a   18.88669728
_cell_length_b   18.88113619
_cell_length_c   18.87136923
_cell_angle_alpha   90.08825467
_cell_angle_beta   90.11781605
_cell_angle_gamma   90.03702036
_symmetry_Int_Tables_number   1
_chemical_formula_structural   In2Te3
_chemical_formula_sum   'In72 Te108'
_cell_volume   6729.55011216
_cell_formula_units_Z   36
loop_
 _symmetry_equiv_pos_site_id
 _symmetry_equiv_pos_as_xyz
  1  'x, y, z'
loop_
 _atom_site_type_symbol
 _atom_site_label
 _atom_site_symmetry_multiplicity
 _atom_site_fract_x
 _atom_site_fract_y
 _atom_site_fract_z
 _atom_site_occupancy
  In  In0  1  0.48045604  -0.01369115  0.16623661  1
  In  In1  1  0.81538883  0.15956909  0.67686562  1
  In  In2  1  0.32904649  0.49603437  0.17182185  1
  In  In3  1  -0.01538406  -0.02269996  0.34669968  1
  In  In4  1  -0.02763141  0.17643518  0.51465699  1
  In  In5  1  -0.03835619  0.05233339  0.02408355  1
  In  In6  1  0.65911998  0.49413073  0.83138922  1
  In  In7  1  0.52129320  0.81707244  0.01245581  1
  In  In8  1  0.79655866  0.63654012  0.51698420  1
  In  In9  1  -0.00701646  0.50012089  0.49730485  1
  In  In10  1  0.80516532  0.15839994  0.33424775  1
  In  In11  1  0.50487690  0.17001229  0.33761422  1
  In  In12  1  0.15659632  0.65938216  0.85539874  1
  In  In13  1  0.53229062  0.33146044  0.16753656  1
  In  In14  1  -0.02847307  0.80837266  0.16688980  1
  In  In15  1  0.36157045  0.50971149  0.85083476  1
  In  In16  1  0.82355379  -0.01291029  0.82896185  1
  In  In17  1  0.53578026  0.84670104  0.68391999  1
  In  In18  1  0.80700028  0.67792936  0.79677097  1
  In  In19  1  0.33339038  0.64446861  0.32233281  1
  In  In20  1  0.67024813  0.85506877  0.51340559  1
  In  In21  1  0.35460836  -0.03812535  0.29910543  1
  In  In22  1  0.52490753  0.34737160  0.51172884  1
  In  In23  1  0.12360113  0.51789797  0.32956783  1
  In  In24  1  0.51685976  0.66062306  0.84105085  1
  In  In25  1  0.68657527  0.34227771  0.67377071  1
  In  In26  1  0.67526532  0.66166155  0.32077465  1
  In  In27  1  -0.01338699  0.35218168  0.65281995  1
  In  In28  1  0.34760386  0.01375044  0.68696427  1
  In  In29  1  0.65619132  0.02265063  -0.04188201  1
  In  In30  1  0.14074059  0.63242109  0.16325417  1
  In  In31  1  0.33625148  0.81485666  0.49183353  1
  In  In32  1  0.31770461  0.13949994  0.13750407  1
  In  In33  1  0.82203579  0.01369563  0.16900896  1
  In  In34  1  0.15514347  0.01440954  0.82916325  1
  In  In35  1  -0.01143182  0.84781722  0.82916723  1
  In  In36  1  0.50163372  0.63008661  0.50381455  1
  In  In37  1  0.64749315  0.33883590  0.32416788  1
  In  In38  1  -0.01477638  0.81501721  0.48942846  1
  In  In39  1  0.81634824  0.50053500  0.30463119  1
  In  In40  1  0.36025265  0.15980992  0.52130689  1
  In  In41  1  0.34165566  0.82467419  0.83588733  1
  In  In42  1  0.67772868  -0.01462582  0.33493430  1
  In  In43  1  0.13786439  0.38644444  0.14627444  1
  In  In44  1  0.37454137  -0.00132420  -0.02052549  1
  In  In45  1  0.64454263  0.19620760  0.15495008  1
  In  In46  1  0.81464487  0.32333258  0.87707314  1
  In  In47  1  0.16605223  -0.01204713  0.13015230  1
  In  In48  1  0.81119796  0.49065314  0.03317027  1
  In  In49  1  0.32948409  0.49427477  0.51320038  1
  In  In50  1  0.16836011  0.82823294  0.32826404  1
  In  In51  1  0.33672036  0.32170153  -0.00453299  1
  In  In52  1  0.51889092  0.00116442  0.51689220  1
  In  In53  1  0.15493545  0.18364810  0.68750938  1
  In  In54  1  0.02333229  0.18539589  0.82834845  1
  In  In55  1  0.33132505  0.31602448  0.33004352  1
  In  In56  1  0.13828045  0.01074863  0.49824130  1
  In  In57  1  0.16419871  0.19197887  0.31089619  1
  In  In58  1  -0.01688874  0.66843840  -0.01470547  1
  In  In59  1  0.18111934  0.17241278  -0.01703934  1
  In  In60  1  -0.01436303  0.35019920  0.33816932  1
  In  In61  1  0.15921625  0.70318254  0.50128459  1
  In  In62  1  0.18028375  0.82345359  0.62952862  1
  In  In63  1  0.66512982  0.65715693  0.02049208  1
  In  In64  1  0.53898934  0.17727468  0.66786984  1
  In  In65  1  0.18237454  0.83225469  -0.02158064  1
  In  In66  1  0.50193404  0.35402371  0.84482364  1
  In  In67  1  0.67686093  0.82960548  0.16657148  1
  In  In68  1  -0.00249012  0.66028286  0.68493085  1
  In  In69  1  0.17921031  0.49030172  0.67892650  1
  In  In70  1  0.16726902  0.34307773  0.83407603  1
  In  In71  1  0.50844833  0.49100303  0.29809573  1
  Te  Te72  1  0.08975525  0.10908918  0.08960702  1
  Te  Te73  1  0.06929882  0.10584255  0.40229944  1
  Te  Te74  1  0.05967773  0.07253825  0.72778995  1
  Te  Te75  1  0.05323518  0.45078311  0.04502481  1
  Te  Te76  1  0.09357807  0.40732836  0.42949941  1
  Te  Te77  1  0.06579592  0.42972092  0.75986293  1
  Te  Te78  1  0.08750035  0.75722195  0.07250951  1
  Te  Te79  1  0.06136064  0.72733972  0.37916043  1
  Te  Te80  1  0.09588174  0.75802743  0.75439025  1
  Te  Te81  1  0.44500139  0.10222770  0.06766588  1
  Te  Te82  1  0.41522429  0.07044222  0.40917923  1
  Te  Te83  1  0.46829322  0.07035934  0.75349287  1
  Te  Te84  1  0.41997054  0.40642735  0.09073226  1
  Te  Te85  1  0.42626782  0.40957842  0.40465246  1
  Te  Te86  1  0.43887530  0.44290945  0.74317586  1
  Te  Te87  1  0.40458922  0.78014274  0.09071850  1
  Te  Te88  1  0.42704190  0.72818527  0.40860762  1
  Te  Te89  1  0.43468903  0.74836274  0.74323362  1
  Te  Te90  1  0.74706778  0.11130270  0.06997823  1
  Te  Te91  1  0.75449882  0.06282207  0.43510767  1
  Te  Te92  1  0.72616439  0.08443116  0.77016594  1
  Te  Te93  1  0.75186725  0.38273408  0.11885287  1
  Te  Te94  1  0.73715525  0.42342883  0.40291868  1
  Te  Te95  1  0.77786363  0.42220300  0.76825584  1
  Te  Te96  1  0.76973472  0.73692433  0.09448731  1
  Te  Te97  1  0.74179850  0.74901246  0.42944699  1
  Te  Te98  1  0.72868585  0.78548874  0.72674999  1
  Te  Te99  1  0.06743223  0.27628699  0.23049865  1
  Te  Te100  1  0.08376480  0.26030505  0.57869016  1
  Te  Te101  1  0.07732374  0.27368761  0.93894347  1
  Te  Te102  1  0.02600163  0.56167189  0.22730828  1
  Te  Te103  1  0.09119071  0.58870755  0.58503636  1
  Te  Te104  1  0.07646465  0.56099884  0.93491302  1
  Te  Te105  1  0.08031861  0.91978506  0.23509577  1
  Te  Te106  1  0.06476637  0.91072176  0.58426136  1
  Te  Te107  1  0.07582208  0.92970738  0.92770571  1
  Te  Te108  1  0.41474124  0.23362120  0.23321677  1
  Te  Te109  1  0.43074159  0.26614702  0.60191465  1
  Te  Te110  1  0.40704744  0.24848499  0.89021736  1
  Te  Te111  1  0.43519956  0.59790430  0.21858969  1
  Te  Te112  1  0.42859037  0.55223890  0.60711199  1
  Te  Te113  1  0.44533912  0.58691046  0.94608693  1
  Te  Te114  1  0.43251056  0.85288101  0.22645719  1
  Te  Te115  1  0.40895436  0.91418700  0.58785503  1
  Te  Te116  1  0.45629506  0.90333217  0.89767985  1
  Te  Te117  1  0.75668638  0.26957725  0.23477175  1
  Te  Te118  1  0.76255880  0.25787788  0.58060631  1
  Te  Te119  1  0.72092347  0.23978763  0.95346316  1
  Te  Te120  1  0.78065211  0.62166193  0.22145219  1
  Te  Te121  1  0.70810092  0.57447279  0.61820979  1
  Te  Te122  1  0.75534436  0.58299856  0.91692893  1
  Te  Te123  1  0.77665044  0.89872479  0.26003684  1
  Te  Te124  1  0.74950802  0.90734530  0.62987625  1
  Te  Te125  1  0.76364802  0.92377357  0.94894287  1
  Te  Te126  1  0.23879838  0.26568527  0.10222790  1
  Te  Te127  1  0.25604492  0.23073792  0.42955007  1
  Te  Te128  1  0.26030042  0.25046628  0.76440022  1
  Te  Te129  1  0.24559575  0.57370859  0.07909558  1
  Te  Te130  1  0.23522673  0.58578230  0.42252802  1
  Te  Te131  1  0.25604642  0.58825600  0.76520318  1
  Te  Te132  1  0.28039638  0.91131838  0.06993477  1
  Te  Te133  1  0.24412024  0.92084197  0.42424383  1
  Te  Te134  1  0.24560938  0.91098157  0.75164442  1
  Te  Te135  1  0.59035517  0.27312498  0.03416929  1
  Te  Te136  1  0.59985554  0.23923783  0.43149495  1
  Te  Te137  1  0.60462046  0.26396258  0.77359652  1
  Te  Te138  1  0.57987907  0.56249074  0.09195964  1
  Te  Te139  1  0.59361903  0.56100029  0.40389112  1
  Te  Te140  1  0.60742195  0.59886303  0.73514442  1
  Te  Te141  1  0.60154142  0.93683090  0.08368473  1
  Te  Te142  1  0.56830908  0.90927247  0.40661512  1
  Te  Te143  1  0.64672347  0.92224719  0.75104483  1
  Te  Te144  1  0.88822044  0.16591847  0.08823500  1
  Te  Te145  1  0.89219907  0.25933042  0.41544703  1
  Te  Te146  1  0.91509027  0.26217194  0.75356548  1
  Te  Te147  1  0.89910948  0.60170412  0.08909625  1
  Te  Te148  1  0.89550777  0.57984662  0.41483501  1
  Te  Te149  1  0.91326201  0.57909264  0.77263962  1
  Te  Te150  1  0.90978281  0.91877764  0.08324861  1
  Te  Te151  1  0.89258771  0.92124981  0.44579111  1
  Te  Te152  1  0.90029348  0.90765136  0.72760688  1
  Te  Te153  1  0.24602898  0.07188687  0.25467090  1
  Te  Te154  1  0.24402704  0.07733190  0.59111733  1
  Te  Te155  1  0.27120227  0.08248261  0.90051432  1
  Te  Te156  1  0.23896235  0.42271201  0.27243050  1
  Te  Te157  1  0.25189477  0.39823513  0.59091939  1
  Te  Te158  1  0.25398365  0.42843712  0.92537807  1
  Te  Te159  1  0.24000188  0.73071511  0.23829505  1
  Te  Te160  1  0.28290994  0.71703896  0.59488941  1
  Te  Te161  1  0.27592573  0.72388007  0.92874875  1
  Te  Te162  1  0.59177956  0.08026504  0.24741808  1
  Te  Te163  1  0.61777243  0.08157771  0.58741390  1
  Te  Te164  1  0.54383253  0.08549249  0.89116302  1
  Te  Te165  1  0.62958850  0.45420310  0.19231873  1
  Te  Te166  1  0.61411765  0.44190256  0.58574283  1
  Te  Te167  1  0.59079306  0.42430160  0.94300410  1
  Te  Te168  1  0.58189315  0.74811044  0.24468118  1
  Te  Te169  1  0.57023347  0.75480423  0.56932942  1
  Te  Te170  1  0.61577267  0.75393081  0.91246197  1
  Te  Te171  1  0.91984010  0.08713471  0.26245027  1
  Te  Te172  1  0.89316550  0.07454691  0.58220145  1
  Te  Te173  1  0.91451770  0.10039460  0.89027635  1
  Te  Te174  1  0.91750922  0.42204992  0.22700354  1
  Te  Te175  1  0.89049793  0.43474714  0.57879902  1
  Te  Te176  1  0.91060932  0.40347985  0.95920800  1
  Te  Te177  1  0.93340324  0.75590737  0.29646438  1
  Te  Te178  1  0.90591847  0.72669748  0.58363721  1
  Te  Te179  1  0.89257490  0.75764258  0.90265246  1
