# generated using pymatgen
data_In2Te3
_symmetry_space_group_name_H-M   'P 1'
_cell_length_a   18.92140478
_cell_length_b   18.91718100
_cell_length_c   18.91968818
_cell_angle_alpha   89.98340323
_cell_angle_beta   89.83611962
_cell_angle_gamma   90.03600143
_symmetry_Int_Tables_number   1
_chemical_formula_structural   In2Te3
_chemical_formula_sum   'In72 Te108'
_cell_volume   6772.07702902
_cell_formula_units_Z   36
loop_
 _symmetry_equiv_pos_site_id
 _symmetry_equiv_pos_as_xyz
  1  'x, y, z'
loop_
 _atom_site_type_symbol
 _atom_site_label
 _atom_site_symmetry_multiplicity
 _atom_site_fract_x
 _atom_site_fract_y
 _atom_site_fract_z
 _atom_site_occupancy
  In  In0  1  0.66574036  0.32878361  -0.01689123  1
  In  In1  1  0.81333194  0.16835806  0.36110406  1
  In  In2  1  0.16459772  0.50297114  0.65539372  1
  In  In3  1  -0.01627764  0.17461230  0.14736801  1
  In  In4  1  0.51428448  0.85084060  0.65447828  1
  In  In5  1  0.31271424  0.17632117  0.48418854  1
  In  In6  1  0.81768933  0.32316191  0.52078472  1
  In  In7  1  0.45949848  0.17922784  0.35943243  1
  In  In8  1  0.36122686  0.13535002  0.15399629  1
  In  In9  1  0.00376006  0.50560420  0.84114437  1
  In  In10  1  0.83294291  0.65186571  0.47872379  1
  In  In11  1  0.33869119  0.32263953  0.67987722  1
  In  In12  1  0.50067419  0.65226166  0.81699191  1
  In  In13  1  0.64380696  0.33230808  0.33075186  1
  In  In14  1  -0.00580766  0.49264381  0.15955284  1
  In  In15  1  0.32697360  -0.01603719  0.33809694  1
  In  In16  1  0.16438662  0.33443698  0.18099219  1
  In  In17  1  0.36208957  0.69871963  0.35414213  1
  In  In18  1  0.33860074  0.49492871  0.14503780  1
  In  In19  1  0.00157978  0.00807424  0.33592957  1
  In  In20  1  0.80707491  -0.01254010  0.16986716  1
  In  In21  1  -0.00778815  0.34051888  0.66580119  1
  In  In22  1  0.51916315  0.68734849  0.13899905  1
  In  In23  1  0.33705139  0.33488149  0.00475260  1
  In  In24  1  0.67365249  0.67242812  -0.01053282  1
  In  In25  1  0.16336242  0.50075737  0.02226224  1
  In  In26  1  -0.00486212  0.65298123  0.67629487  1
  In  In27  1  0.83672416  0.31959973  0.14149155  1
  In  In28  1  0.17918881  -0.00921306  0.83404361  1
  In  In29  1  -0.00766833  0.65018189  0.33384529  1
  In  In30  1  0.85069189  0.65747191  0.84207665  1
  In  In31  1  0.33138583  0.52467166  0.83723562  1
  In  In32  1  0.18041069  -0.00275449  0.51455851  1
  In  In33  1  0.48766166  0.68851749  0.51800698  1
  In  In34  1  0.02473120  0.83236878  0.51457619  1
  In  In35  1  0.65689315  0.66339049  0.32635771  1
  In  In36  1  0.82792296  -0.00344360  0.52236179  1
  In  In37  1  0.17835890  0.66231976  0.17284141  1
  In  In38  1  0.80756067  0.84065419  0.33446099  1
  In  In39  1  0.81792205  0.32856222  0.83948659  1
  In  In40  1  0.78469766  0.67480544  0.16301677  1
  In  In41  1  0.47921472  0.35746538  0.52013645  1
  In  In42  1  0.51278564  0.16265730  -0.01398401  1
  In  In43  1  0.14885642  0.16149248  0.00496700  1
  In  In44  1  -0.01391072  0.85539241  0.17539411  1
  In  In45  1  0.67700356  0.83728595  0.83938582  1
  In  In46  1  0.82126796  0.51398886  0.00275225  1
  In  In47  1  0.16171935  0.01810102  0.17662008  1
  In  In48  1  0.67653219  0.00344630  0.67802498  1
  In  In49  1  0.83028757  0.85430478  0.67288521  1
  In  In50  1  -0.00784042  0.83597787  0.83535525  1
  In  In51  1  0.67485350  0.00544639  -0.00612345  1
  In  In52  1  0.52959218  -0.00243401  0.15661694  1
  In  In53  1  0.00912357  0.68576040  -0.01148435  1
  In  In54  1  0.16402142  0.17563264  0.67049807  1
  In  In55  1  0.17426231  0.84093564  0.68033496  1
  In  In56  1  0.68187480  0.15010247  0.50469450  1
  In  In57  1  0.49524762  0.34721108  0.17780448  1
  In  In58  1  0.34119045  0.15703262  0.82631268  1
  In  In59  1  0.52274191  0.48567982  0.67062450  1
  In  In60  1  0.34144022  0.69125290  0.66048387  1
  In  In61  1  0.17104752  0.66619174  0.51804760  1
  In  In62  1  0.67506691  0.50083738  0.50819175  1
  In  In63  1  0.02454901  0.34930054  0.33326510  1
  In  In64  1  -0.00791779  0.15049977  0.86439782  1
  In  In65  1  0.47669209  0.50705374  0.32997954  1
  In  In66  1  0.66447439  0.12998103  0.16697009  1
  In  In67  1  0.34304587  0.82670737  0.15302066  1
  In  In68  1  0.20611205  0.82324145  -0.01902203  1
  In  In69  1  0.53747530  0.17117706  0.69649358  1
  In  In70  1  -0.01706799  0.14467531  0.50682782  1
  In  In71  1  0.32381891  0.48994532  0.49256300  1
  Te  Te72  1  0.05638962  0.06225865  0.07587415  1
  Te  Te73  1  0.09624896  0.08797676  0.42236908  1
  Te  Te74  1  0.08429134  0.08360583  0.75844250  1
  Te  Te75  1  0.07106501  0.39245144  0.07562047  1
  Te  Te76  1  0.13644368  0.40261573  0.40839054  1
  Te  Te77  1  0.09104899  0.41587911  0.75531303  1
  Te  Te78  1  0.08398299  0.75766158  0.09980869  1
  Te  Te79  1  0.08756438  0.74019294  0.41271910  1
  Te  Te80  1  0.08493855  0.74336904  0.75823995  1
  Te  Te81  1  0.43065114  0.05115572  0.04920743  1
  Te  Te82  1  0.41119898  0.06096205  0.43976358  1
  Te  Te83  1  0.43874417  0.07617419  0.75272749  1
  Te  Te84  1  0.44572949  0.42754646  0.05904336  1
  Te  Te85  1  0.39935078  0.39567473  0.39856925  1
  Te  Te86  1  0.41883007  0.42057713  0.76083749  1
  Te  Te87  1  0.42321625  0.75690301  0.05192124  1
  Te  Te88  1  0.44775743  0.80237612  0.42837669  1
  Te  Te89  1  0.42635319  0.77123942  0.75366791  1
  Te  Te90  1  0.77306225  0.09836798  0.06926607  1
  Te  Te91  1  0.73494331  0.04033399  0.40092053  1
  Te  Te92  1  0.77014803  0.10873053  0.71879393  1
  Te  Te93  1  0.73701186  0.41893536  0.08562520  1
  Te  Te94  1  0.74780971  0.40606245  0.41219477  1
  Te  Te95  1  0.71175496  0.38976265  0.75462084  1
  Te  Te96  1  0.73375731  0.77909250  0.07507376  1
  Te  Te97  1  0.72833087  0.75240036  0.42817961  1
  Te  Te98  1  0.76220861  0.74591289  0.75356160  1
  Te  Te99  1  0.07769183  0.23035751  0.25133837  1
  Te  Te100  1  0.07309788  0.24877182  0.57489449  1
  Te  Te101  1  0.08449227  0.25508947  0.91383267  1
  Te  Te102  1  0.09035040  0.56620452  0.25117990  1
  Te  Te103  1  0.06238722  0.57097022  0.56639576  1
  Te  Te104  1  0.10288949  0.59413798  0.91519789  1
  Te  Te105  1  0.09456184  0.91168141  0.26515484  1
  Te  Te106  1  0.07607129  0.93706128  0.60868619  1
  Te  Te107  1  0.08906341  0.90841503  0.92512550  1
  Te  Te108  1  0.39499091  0.25542204  0.24444176  1
  Te  Te109  1  0.42641274  0.23548066  0.59301398  1
  Te  Te110  1  0.42434925  0.25778390  0.90763363  1
  Te  Te111  1  0.40750661  0.60288438  0.23758797  1
  Te  Te112  1  0.41069870  0.56789635  0.59109468  1
  Te  Te113  1  0.43780828  0.57362304  0.92450176  1
  Te  Te114  1  0.42426034  0.92171715  0.24014361  1
  Te  Te115  1  0.42153932  0.89340645  0.55021505  1
  Te  Te116  1  0.31823667  0.88659665  0.89297449  1
  Te  Te117  1  0.74202529  0.24656449  0.24879156  1
  Te  Te118  1  0.75632461  0.22251389  0.61470127  1
  Te  Te119  1  0.74261225  0.22267902  0.91373534  1
  Te  Te120  1  0.76381882  0.57949639  0.27046362  1
  Te  Te121  1  0.76135352  0.58597062  0.58990753  1
  Te  Te122  1  0.73583858  0.57085205  0.89266972  1
  Te  Te123  1  0.70379027  0.89866291  0.24075497  1
  Te  Te124  1  0.72390949  0.89987458  0.57436491  1
  Te  Te125  1  0.77152020  0.94140967  0.89480861  1
  Te  Te126  1  0.25478481  0.23789060  0.08953944  1
  Te  Te127  1  0.22593374  0.27732540  0.42792594  1
  Te  Te128  1  0.23895662  0.25786269  0.77363289  1
  Te  Te129  1  0.26683993  0.60391598  0.06505526  1
  Te  Te130  1  0.25890934  0.59969366  0.41144591  1
  Te  Te131  1  0.24341833  0.60170832  0.73832909  1
  Te  Te132  1  0.24740107  0.92832533  0.09068787  1
  Te  Te133  1  0.23303618  0.90150839  0.41637857  1
  Te  Te134  1  0.27749125  0.93164755  0.73717551  1
  Te  Te135  1  0.57957256  0.24639522  0.09913995  1
  Te  Te136  1  0.57702107  0.24519980  0.43508669  1
  Te  Te137  1  0.59811826  0.28098044  0.77888124  1
  Te  Te138  1  0.60818535  0.58271871  0.08743662  1
  Te  Te139  1  0.56110045  0.57741195  0.43383541  1
  Te  Te140  1  0.60193343  0.60147217  0.71814789  1
  Te  Te141  1  0.60009043  0.90143444  0.06854992  1
  Te  Te142  1  0.61716257  0.95662900  0.35200269  1
  Te  Te143  1  0.57922070  0.92961747  0.76857741  1
  Te  Te144  1  0.91291384  0.24554962  0.04046249  1
  Te  Te145  1  0.92498944  0.25704983  0.41889713  1
  Te  Te146  1  0.92401795  0.24891784  0.76365795  1
  Te  Te147  1  0.91869064  0.60250357  0.08390946  1
  Te  Te148  1  0.91906516  0.55206068  0.41347674  1
  Te  Te149  1  0.89997551  0.55342010  0.74149288  1
  Te  Te150  1  0.90143532  0.92156678  0.07755330  1
  Te  Te151  1  0.91948177  0.91158275  0.42302101  1
  Te  Te152  1  0.92056019  0.93971491  0.75445661  1
  Te  Te153  1  0.25911085  0.09760395  0.26198980  1
  Te  Te154  1  0.26621744  0.08890114  0.60031399  1
  Te  Te155  1  0.25512272  0.08358272  0.92934210  1
  Te  Te156  1  0.24923572  0.43530318  0.24588335  1
  Te  Te157  1  0.24591419  0.39593230  0.58429026  1
  Te  Te158  1  0.24761238  0.42382105  0.92139043  1
  Te  Te159  1  0.25628348  0.75795852  0.26005725  1
  Te  Te160  1  0.25986603  0.77882024  0.56714499  1
  Te  Te161  1  0.28241550  0.74401256  0.88172652  1
  Te  Te162  1  0.56081917  0.09728927  0.27546363  1
  Te  Te163  1  0.57899901  0.07089486  0.58146588  1
  Te  Te164  1  0.61103952  0.09831104  0.89676425  1
  Te  Te165  1  0.58819982  0.44577732  0.24664381  1
  Te  Te166  1  0.60840019  0.38779576  0.59037290  1
  Te  Te167  1  0.60782676  0.40847275  0.87271377  1
  Te  Te168  1  0.56738934  0.75696828  0.25923967  1
  Te  Te169  1  0.59129073  0.72829547  0.61521957  1
  Te  Te170  1  0.57283323  0.75253505  0.90937958  1
  Te  Te171  1  0.90073283  0.08581507  0.25401500  1
  Te  Te172  1  0.89993202  0.08662858  0.61638455  1
  Te  Te173  1  0.89835800  0.03672366  0.88574099  1
  Te  Te174  1  0.90754940  0.40354795  0.24578901  1
  Te  Te175  1  0.90028335  0.42376768  0.58707195  1
  Te  Te176  1  0.91100393  0.42054862  0.92519582  1
  Te  Te177  1  0.90393776  0.75161327  0.25489527  1
  Te  Te178  1  0.91797759  0.75190490  0.58778850  1
  Te  Te179  1  0.89537679  0.76907334  0.93395602  1
