# generated using pymatgen
data_In2Te3
_symmetry_space_group_name_H-M   'P 1'
_cell_length_a   18.95351775
_cell_length_b   18.92999276
_cell_length_c   18.93729085
_cell_angle_alpha   89.97514107
_cell_angle_beta   89.99459413
_cell_angle_gamma   89.92171444
_symmetry_Int_Tables_number   1
_chemical_formula_structural   In2Te3
_chemical_formula_sum   'In72 Te108'
_cell_volume   6794.50269587
_cell_formula_units_Z   36
loop_
 _symmetry_equiv_pos_site_id
 _symmetry_equiv_pos_as_xyz
  1  'x, y, z'
loop_
 _atom_site_type_symbol
 _atom_site_label
 _atom_site_symmetry_multiplicity
 _atom_site_fract_x
 _atom_site_fract_y
 _atom_site_fract_z
 _atom_site_occupancy
  In  In0  1  -0.03063333  0.66795597  0.62998078  1
  In  In1  1  0.69280077  0.00204052  0.34242596  1
  In  In2  1  0.34527272  0.35641764  -0.01721207  1
  In  In3  1  0.79514538  0.65992387  0.21060755  1
  In  In4  1  0.50482152  0.34682942  0.82707680  1
  In  In5  1  -0.02236155  0.51280728  0.19012638  1
  In  In6  1  -0.00104426  0.83007626  0.82516870  1
  In  In7  1  -0.07674277  0.04101094  0.36011997  1
  In  In8  1  -0.01895953  0.29926692  0.03098176  1
  In  In9  1  0.50808820  0.00059049  0.17159079  1
  In  In10  1  0.17503932  0.69195435  0.84774690  1
  In  In11  1  0.13921369  0.33876742  0.50746105  1
  In  In12  1  0.35420717  0.00077196  0.32726697  1
  In  In13  1  0.82904227  0.01188016  0.15551952  1
  In  In14  1  0.36247531  0.67878077  0.31500412  1
  In  In15  1  0.51841771  0.49050054  0.67045206  1
  In  In16  1  0.13892334  0.68354646  0.46923448  1
  In  In17  1  0.16355319  0.32454632  0.17548628  1
  In  In18  1  0.67080472  0.84569854  0.81125246  1
  In  In19  1  0.16720218  0.85031219  0.00120052  1
  In  In20  1  0.32183378  0.83654696  0.14081260  1
  In  In21  1  0.50175271  0.16653543  0.67053441  1
  In  In22  1  0.84494468  0.67271105  0.82740768  1
  In  In23  1  0.34429919  0.18960026  0.17246490  1
  In  In24  1  0.68331787  0.16766893  0.82915660  1
  In  In25  1  0.65751058  0.33736650  -0.02795524  1
  In  In26  1  0.14823513  0.86610871  0.29408915  1
  In  In27  1  0.14275610  0.85752289  0.66693205  1
  In  In28  1  0.16306760  0.16755809  0.66488295  1
  In  In29  1  0.19081232  0.46960947  0.00176493  1
  In  In30  1  0.48725693  0.63992029  0.83406137  1
  In  In31  1  0.15321907  0.51713760  0.67514301  1
  In  In32  1  0.01228215  0.47916186  0.83466163  1
  In  In33  1  0.67047852  0.31176989  0.33711765  1
  In  In34  1  0.82581380  0.85852434  0.64028691  1
  In  In35  1  0.48809036  -0.01951421  0.83750594  1
  In  In36  1  0.14816059  0.00216203  0.49461592  1
  In  In37  1  0.00075184  0.68547426  -0.01331657  1
  In  In38  1  0.81259884  0.49811026  0.01311033  1
  In  In39  1  -0.03515445  0.28898598  0.35349769  1
  In  In40  1  0.81295207  0.46032974  0.65615796  1
  In  In41  1  0.83617993  0.32531485  0.83043364  1
  In  In42  1  0.49840327  0.83326766  0.00744341  1
  In  In43  1  0.67488946  0.84432603  0.48601100  1
  In  In44  1  0.36131364  0.51292934  0.14503778  1
  In  In45  1  0.34356061  0.48804320  0.50367967  1
  In  In46  1  0.37235531  0.34751510  0.33541693  1
  In  In47  1  0.67405196  0.50233763  0.49641627  1
  In  In48  1  0.32290634  0.81947115  0.50558935  1
  In  In49  1  0.31075569  0.17727304  0.50654791  1
  In  In50  1  -0.01001537  0.16866013  0.84452422  1
  In  In51  1  0.33349974  0.68217245  0.68803178  1
  In  In52  1  0.65114370  0.82749587  0.17759883  1
  In  In53  1  0.52087582  0.65300218  0.48946163  1
  In  In54  1  0.51210332  0.83603567  0.65194976  1
  In  In55  1  0.51839954  0.15321122  0.01255210  1
  In  In56  1  0.16603299  0.00411967  0.82087371  1
  In  In57  1  0.50500763  0.01444175  0.50587298  1
  In  In58  1  0.66444292  0.66088535  0.00394192  1
  In  In59  1  -0.03878336  0.47674825  0.48399199  1
  In  In60  1  -0.00621373  0.87139616  0.18411601  1
  In  In61  1  0.16352945  0.15871496  0.36246290  1
  In  In62  1  0.83834730  0.00960101  0.84217476  1
  In  In63  1  0.19415272  0.64328807  0.13361972  1
  In  In64  1  0.13373731  0.14732331  0.01459485  1
  In  In65  1  0.32421297  0.16640666  0.82931423  1
  In  In66  1  0.53769272  0.64779351  0.16702324  1
  In  In67  1  -0.01409769  0.67702581  0.35171827  1
  In  In68  1  0.81924353  0.46218475  0.32540485  1
  In  In69  1  0.17868974  0.50210257  0.34023148  1
  In  In70  1  0.51663835  0.31764843  0.50502321  1
  In  In71  1  0.67417351  0.16699491  0.16766404  1
  Te  Te72  1  0.10044378  0.04352193  0.11267169  1
  Te  Te73  1  0.04560093  0.10171537  0.44069742  1
  Te  Te74  1  0.06339578  0.08151535  0.74238708  1
  Te  Te75  1  0.08363192  0.43391314  0.10354393  1
  Te  Te76  1  0.06577258  0.41047899  0.38603720  1
  Te  Te77  1  0.07623185  0.40049281  0.72657718  1
  Te  Te78  1  0.09042568  0.74911011  0.09128361  1
  Te  Te79  1  0.06618899  0.79652961  0.40531476  1
  Te  Te80  1  0.06693433  0.72782406  0.73552801  1
  Te  Te81  1  0.40904848  0.07936407  0.08765700  1
  Te  Te82  1  0.41361643  0.10440779  0.42106678  1
  Te  Te83  1  0.40778830  0.07301987  0.74457856  1
  Te  Te84  1  0.42106714  0.38510963  0.10448120  1
  Te  Te85  1  0.45998738  0.43442887  0.42354489  1
  Te  Te86  1  0.41291834  0.41645340  0.73772866  1
  Te  Te87  1  0.43104334  0.73507385  0.10065619  1
  Te  Te88  1  0.43364235  0.76040324  0.42060221  1
  Te  Te89  1  0.43129518  0.76834653  0.76131586  1
  Te  Te90  1  0.72288834  0.06899477  0.06960592  1
  Te  Te91  1  0.78902930  0.09336855  0.41050323  1
  Te  Te92  1  0.76899661  0.08979918  0.73666556  1
  Te  Te93  1  0.75605364  0.37843385  0.07484895  1
  Te  Te94  1  0.76599644  0.38522283  0.44602792  1
  Te  Te95  1  0.73890958  0.42004726  0.77554063  1
  Te  Te96  1  0.75186582  0.74618606  0.09441427  1
  Te  Te97  1  0.79284831  0.78654769  0.41367201  1
  Te  Te98  1  0.75944240  0.75186228  0.73097311  1
  Te  Te99  1  0.07829189  0.23355439  0.26037266  1
  Te  Te100  1  0.06750904  0.22702036  0.56746141  1
  Te  Te101  1  0.08102662  0.26017145  0.92436187  1
  Te  Te102  1  0.08814568  0.59710696  0.26173538  1
  Te  Te103  1  0.07092866  0.57417236  0.54990364  1
  Te  Te104  1  0.09126452  0.58123778  0.92286482  1
  Te  Te105  1  0.05238638  0.97894986  0.27127065  1
  Te  Te106  1  0.05258225  0.93103513  0.58022858  1
  Te  Te107  1  0.07150583  0.92819164  0.91408401  1
  Te  Te108  1  0.44700947  0.24830747  0.25961438  1
  Te  Te109  1  0.40665950  0.25839713  0.59145012  1
  Te  Te110  1  0.43176511  0.23705589  0.91531564  1
  Te  Te111  1  0.44341960  0.56526332  0.26073934  1
  Te  Te112  1  0.41251698  0.59848797  0.58878508  1
  Te  Te113  1  0.42977910  0.54412727  0.92719275  1
  Te  Te114  1  0.42151110  0.89576193  0.24023428  1
  Te  Te115  1  0.40676444  0.91935070  0.58130859  1
  Te  Te116  1  0.40246626  0.92364575  0.94235681  1
  Te  Te117  1  0.77157172  0.23387044  0.25865803  1
  Te  Te118  1  0.81366612  0.22132024  0.60741142  1
  Te  Te119  1  0.76821703  0.23712597  0.93332259  1
  Te  Te120  1  0.72819635  0.52585583  0.22022452  1
  Te  Te121  1  0.77262839  0.57745584  0.57738603  1
  Te  Te122  1  0.74953427  0.58221085  0.90372486  1
  Te  Te123  1  0.76057319  0.90809300  0.24507750  1
  Te  Te124  1  0.73415910  0.95386675  0.57049939  1
  Te  Te125  1  0.74464518  0.91964933  0.91260926  1
  Te  Te126  1  0.24468703  0.24949760  0.07117431  1
  Te  Te127  1  0.25314833  0.28510292  0.40797756  1
  Te  Te128  1  0.24365711  0.25694311  0.74796506  1
  Te  Te129  1  0.29259328  0.58192164  0.02770732  1
  Te  Te130  1  0.27100111  0.59400926  0.41822965  1
  Te  Te131  1  0.25282109  0.58410939  0.77051116  1
  Te  Te132  1  0.22107486  0.94371451  0.10822358  1
  Te  Te133  1  0.25252168  0.91676100  0.40860275  1
  Te  Te134  1  0.24773842  0.90006006  0.75688619  1
  Te  Te135  1  0.58508561  0.26412009  0.08823646  1
  Te  Te136  1  0.60821532  0.22271353  0.43895763  1
  Te  Te137  1  0.59805298  0.25935118  0.74393441  1
  Te  Te138  1  0.58518700  0.55123251  0.06461620  1
  Te  Te139  1  0.62557289  0.60344220  0.39752017  1
  Te  Te140  1  0.59008963  0.59517691  0.74169985  1
  Te  Te141  1  0.59776335  0.92594296  0.07436595  1
  Te  Te142  1  0.57459239  0.92412674  0.40531285  1
  Te  Te143  1  0.58920287  0.94219142  0.72735519  1
  Te  Te144  1  0.93363030  0.16939217  0.08109138  1
  Te  Te145  1  0.87337911  0.26937961  0.46802650  1
  Te  Te146  1  0.91330607  0.23924229  0.73667940  1
  Te  Te147  1  0.91459513  0.59285820  0.07709757  1
  Te  Te148  1  0.88355252  0.57942369  0.40540912  1
  Te  Te149  1  0.93008460  0.57591249  0.74796978  1
  Te  Te150  1  0.92157497  0.92933375  0.07293498  1
  Te  Te151  1  0.88175260  0.90485009  0.42173112  1
  Te  Te152  1  0.91826586  0.92580042  0.74085807  1
  Te  Te153  1  0.25782495  0.09667867  0.26013150  1
  Te  Te154  1  0.24895028  0.06676743  0.58791581  1
  Te  Te155  1  0.24079023  0.08319807  0.92610894  1
  Te  Te156  1  0.26073669  0.42820341  0.23636053  1
  Te  Te157  1  0.23952041  0.42097032  0.58852030  1
  Te  Te158  1  0.24366429  0.39839310  0.88579842  1
  Te  Te159  1  0.24462861  0.74890934  0.24996561  1
  Te  Te160  1  0.22627778  0.73651407  0.58979738  1
  Te  Te161  1  0.26800478  0.77054411  0.92864461  1
  Te  Te162  1  0.58721656  0.08640209  0.26442937  1
  Te  Te163  1  0.59722995  0.10962830  0.57185122  1
  Te  Te164  1  0.58837318  0.07429987  0.90454379  1
  Te  Te165  1  0.61836862  0.43051404  0.27170958  1
  Te  Te166  1  0.61006828  0.39985129  0.59150140  1
  Te  Te167  1  0.56003693  0.44633894  0.92694524  1
  Te  Te168  1  0.60199976  0.72732999  0.27535420  1
  Te  Te169  1  0.60586927  0.74330340  0.57790013  1
  Te  Te170  1  0.58549167  0.75251258  0.91147108  1
  Te  Te171  1  0.89792408  0.12345580  0.23147412  1
  Te  Te172  1  0.83552782  0.08084740  0.56544218  1
  Te  Te173  1  0.91764363  0.08701973  0.94662498  1
  Te  Te174  1  0.91624829  0.38308583  0.23854814  1
  Te  Te175  1  0.94613743  0.41019742  0.61437701  1
  Te  Te176  1  0.92469292  0.41205790  0.93922898  1
  Te  Te177  1  0.91573808  0.74761661  0.23662528  1
  Te  Te178  1  0.90322964  0.77094532  0.54351990  1
  Te  Te179  1  0.89673111  0.77631618  0.92487335  1
