# generated using pymatgen
data_In2Te3
_symmetry_space_group_name_H-M   'P 1'
_cell_length_a   18.79725388
_cell_length_b   18.80088644
_cell_length_c   18.79640555
_cell_angle_alpha   89.96269720
_cell_angle_beta   90.02437308
_cell_angle_gamma   90.08845457
_symmetry_Int_Tables_number   1
_chemical_formula_structural   In2Te3
_chemical_formula_sum   'In72 Te108'
_cell_volume   6642.73445201
_cell_formula_units_Z   36
loop_
 _symmetry_equiv_pos_site_id
 _symmetry_equiv_pos_as_xyz
  1  'x, y, z'
loop_
 _atom_site_type_symbol
 _atom_site_label
 _atom_site_symmetry_multiplicity
 _atom_site_fract_x
 _atom_site_fract_y
 _atom_site_fract_z
 _atom_site_occupancy
  In  In0  1  0.51677978  0.51285602  0.00462078  1
  In  In1  1  0.14220463  0.33304694  0.47713213  1
  In  In2  1  0.49041027  0.17914746  0.01485718  1
  In  In3  1  0.35617731  0.16476073  0.16662046  1
  In  In4  1  0.65098146  -0.01107335  0.31520086  1
  In  In5  1  0.50726515  0.49208515  0.32830621  1
  In  In6  1  0.14866054  0.01788401  0.16744079  1
  In  In7  1  0.51427443  0.33477343  0.49681389  1
  In  In8  1  0.18103614  0.34067533  0.16446468  1
  In  In9  1  0.19266602  -0.00742555  0.48421987  1
  In  In10  1  0.17518600  -0.00433805  0.84016496  1
  In  In11  1  0.34947485  0.51504009  0.84368299  1
  In  In12  1  0.81613397  0.66775617  0.85861004  1
  In  In13  1  0.31508689  0.53323340  0.46311016  1
  In  In14  1  0.33819751  -0.00617181  -0.00367466  1
  In  In15  1  0.82160560  0.17181051  0.31523937  1
  In  In16  1  0.51389860  0.32268408  0.18526840  1
  In  In17  1  -0.00566247  0.65750636  0.01616662  1
  In  In18  1  0.66585873  0.83702080  0.49354054  1
  In  In19  1  0.81796493  0.81715123  0.68133592  1
  In  In20  1  0.82162274  0.16127587  0.01805596  1
  In  In21  1  0.15038129  0.47552522  0.67375221  1
  In  In22  1  0.32271459  0.31443333  0.64288019  1
  In  In23  1  0.82615175  -0.01760532  0.16409340  1
  In  In24  1  -0.01399529  0.35547286  0.32410725  1
  In  In25  1  -0.02492016  0.33303144  0.65298013  1
  In  In26  1  0.49135060  0.35285481  0.86585592  1
  In  In27  1  0.66152353  0.68461286  0.32402681  1
  In  In28  1  0.65759873  -0.01203091  0.02275618  1
  In  In29  1  0.80150781  0.63733929  0.50711663  1
  In  In30  1  0.16226599  0.51917306  0.00904232  1
  In  In31  1  0.16879758  0.66627953  0.86404637  1
  In  In32  1  0.52201866  0.48575826  0.66905515  1
  In  In33  1  0.16866578  0.32843018  0.82090915  1
  In  In34  1  -0.00960677  -0.00319944  0.66948651  1
  In  In35  1  0.31994071  0.50887657  0.17206452  1
  In  In36  1  0.32111804  0.00216441  0.66120474  1
  In  In37  1  -0.01594804  0.82316597  0.46417120  1
  In  In38  1  0.50036376  0.15217955  0.66709449  1
  In  In39  1  0.82365926  0.68769409  0.14112798  1
  In  In40  1  0.67846473  0.15798164  0.83036757  1
  In  In41  1  0.49201132  0.68413334  0.48482854  1
  In  In42  1  0.50053707  -0.02938091  0.84115205  1
  In  In43  1  0.48730984  0.02463611  0.46896926  1
  In  In44  1  0.34004769  0.82754781  0.47071547  1
  In  In45  1  0.64611470  0.17209146  0.49515119  1
  In  In46  1  0.52237556  0.68846558  0.88432167  1
  In  In47  1  0.85010852  0.34562428  0.84545671  1
  In  In48  1  0.80749858  0.00770004  0.84789659  1
  In  In49  1  0.17495475  0.15871244  0.33355117  1
  In  In50  1  0.51641547  0.68479123  0.13805195  1
  In  In51  1  -0.01282797  0.34639216  -0.00132438  1
  In  In52  1  0.82421828  0.34240745  0.49347024  1
  In  In53  1  -0.00341485  0.16026218  0.14995796  1
  In  In54  1  0.51669379  0.83944779  0.66918011  1
  In  In55  1  0.32765528  0.31932576  0.01880503  1
  In  In56  1  0.65840504  0.33361445  0.66616970  1
  In  In57  1  0.36808695  0.84223444  0.19571584  1
  In  In58  1  -0.00354154  0.84507696  0.15504318  1
  In  In59  1  0.16926646  0.82743946  0.01042019  1
  In  In60  1  0.82686041  0.50260038  0.33463713  1
  In  In61  1  0.01136840  0.80380309  0.84471359  1
  In  In62  1  0.02803929  0.16270482  0.50351267  1
  In  In63  1  0.85072147  -0.01052312  0.49213942  1
  In  In64  1  -0.01911740  0.65721013  0.68510834  1
  In  In65  1  0.15815816  0.66035067  0.47540270  1
  In  In66  1  0.02038551  0.65702073  0.30334104  1
  In  In67  1  0.00600347  0.16698130  0.83156016  1
  In  In68  1  -0.00361517  0.47207990  0.48581284  1
  In  In69  1  0.66405337  0.51326307  0.84854275  1
  In  In70  1  0.18553153  0.86200126  0.65616389  1
  In  In71  1  0.35438130  0.67177763  0.67298246  1
  Te  Te72  1  0.07325263  0.07778440  0.05583088  1
  Te  Te73  1  0.07901563  0.06086900  0.40453060  1
  Te  Te74  1  0.09535294  0.08210563  0.74021541  1
  Te  Te75  1  0.07720117  0.42722333  0.09521892  1
  Te  Te76  1  0.10490208  0.44515284  0.37631694  1
  Te  Te77  1  0.04986755  0.40961158  0.76626353  1
  Te  Te78  1  0.09339556  0.73403192  0.10340939  1
  Te  Te79  1  0.09981306  0.76860278  0.38356538  1
  Te  Te80  1  0.10206993  0.75015627  0.73342304  1
  Te  Te81  1  0.44111480  0.05839493  0.09375182  1
  Te  Te82  1  0.42200316  0.11149776  0.37030031  1
  Te  Te83  1  0.41371194  0.07161337  0.76220191  1
  Te  Te84  1  0.42639623  0.41406608  0.08434566  1
  Te  Te85  1  0.41028793  0.41899046  0.41926584  1
  Te  Te86  1  0.40642522  0.41069909  0.74290443  1
  Te  Te87  1  0.41434057  0.77295668  0.07104186  1
  Te  Te88  1  0.40738228  0.73407895  0.37128288  1
  Te  Te89  1  0.43554115  0.75442917  0.76899246  1
  Te  Te90  1  0.72786718  0.09037262  0.11420225  1
  Te  Te91  1  0.74367744  0.08030704  0.41295423  1
  Te  Te92  1  0.75422998  0.08078108  0.73175884  1
  Te  Te93  1  0.71146069  0.36772236  0.13300716  1
  Te  Te94  1  0.73518525  0.39371162  0.38457000  1
  Te  Te95  1  0.74424264  0.41809439  0.75950041  1
  Te  Te96  1  0.71862799  0.77880583  0.07892870  1
  Te  Te97  1  0.76612559  0.75275402  0.41562731  1
  Te  Te98  1  0.72633203  0.73581281  0.76137833  1
  Te  Te99  1  0.07955652  0.24971412  0.25043323  1
  Te  Te100  1  0.09679429  0.25735432  0.60200908  1
  Te  Te101  1  0.08698148  0.25361889  0.92802556  1
  Te  Te102  1  0.12034831  0.55905743  0.25793116  1
  Te  Te103  1  0.07716520  0.57490184  0.58197051  1
  Te  Te104  1  0.06062052  0.57119759  0.90539761  1
  Te  Te105  1  0.08326637  0.91628362  0.25223153  1
  Te  Te106  1  0.06897681  0.91119719  0.56865964  1
  Te  Te107  1  0.07682213  0.91538664  0.92591992  1
  Te  Te108  1  0.42470630  0.24142521  0.27889734  1
  Te  Te109  1  0.42210508  0.23087329  0.56197218  1
  Te  Te110  1  0.39830463  0.23880486  0.90990901  1
  Te  Te111  1  0.43755571  0.58584527  0.23059428  1
  Te  Te112  1  0.42352850  0.57243141  0.57823026  1
  Te  Te113  1  0.40712498  0.60635472  0.94813308  1
  Te  Te114  1  0.45096715  0.95452608  0.24953092  1
  Te  Te115  1  0.41541152  0.91228454  0.57737389  1
  Te  Te116  1  0.43645252  0.88963425  0.94949944  1
  Te  Te117  1  0.74192495  0.28334760  0.25695441  1
  Te  Te118  1  0.74944396  0.24345741  0.58421713  1
  Te  Te119  1  0.74930702  0.25541614  0.92226863  1
  Te  Te120  1  0.74766924  0.59304376  0.23942650  1
  Te  Te121  1  0.72368674  0.55431053  0.59572743  1
  Te  Te122  1  0.73884864  0.58332770  0.95857657  1
  Te  Te123  1  0.74775651  0.89475585  0.25559247  1
  Te  Te124  1  0.75317478  0.91997657  0.58739028  1
  Te  Te125  1  0.72715951  0.90299805  0.91762024  1
  Te  Te126  1  0.23575713  0.22044691  0.08774517  1
  Te  Te127  1  0.24961100  0.25221799  0.41982399  1
  Te  Te128  1  0.26075637  0.23716672  0.75172117  1
  Te  Te129  1  0.25197819  0.60734202  0.08552289  1
  Te  Te130  1  0.24226738  0.61064912  0.35218121  1
  Te  Te131  1  0.24691581  0.57886399  0.74657675  1
  Te  Te132  1  0.25356743  0.91634131  0.10210019  1
  Te  Te133  1  0.26639171  0.91856525  0.38097875  1
  Te  Te134  1  0.27581524  0.90185737  0.77063363  1
  Te  Te135  1  0.60191943  0.24662896  0.08979823  1
  Te  Te136  1  0.59456537  0.26542128  0.39218039  1
  Te  Te137  1  0.56441154  0.25667294  0.76114645  1
  Te  Te138  1  0.62065014  0.59671845  0.07324253  1
  Te  Te139  1  0.58861361  0.58669094  0.41669485  1
  Te  Te140  1  0.56594481  0.59406068  0.76482565  1
  Te  Te141  1  0.59993867  0.87766443  0.10924644  1
  Te  Te142  1  0.55911987  0.90350257  0.40868177  1
  Te  Te143  1  0.60774480  0.91832960  0.75458461  1
  Te  Te144  1  0.90000285  0.26506645  0.09772463  1
  Te  Te145  1  0.92675661  0.24850147  0.41862408  1
  Te  Te146  1  0.90087584  0.23833286  0.74713412  1
  Te  Te147  1  0.91355806  0.57184150  0.10742760  1
  Te  Te148  1  0.92904877  0.59348222  0.41774152  1
  Te  Te149  1  0.89625979  0.57583025  0.77115595  1
  Te  Te150  1  0.90703832  0.91562568  0.06030223  1
  Te  Te151  1  0.90497919  0.91378641  0.37871224  1
  Te  Te152  1  0.91817476  0.90383859  0.76696172  1
  Te  Te153  1  0.26687285  0.07067433  0.25035983  1
  Te  Te154  1  0.25201431  0.09541760  0.57049045  1
  Te  Te155  1  0.25013623  0.08912400  0.92597878  1
  Te  Te156  1  0.28532756  0.39178169  0.25519807  1
  Te  Te157  1  0.24926555  0.42854195  0.56671940  1
  Te  Te158  1  0.25329397  0.42110075  0.92216517  1
  Te  Te159  1  0.28210719  0.74633896  0.27179298  1
  Te  Te160  1  0.25542819  0.74273594  0.57473303  1
  Te  Te161  1  0.26133716  0.76954695  0.90865671  1
  Te  Te162  1  0.54831060  0.07534123  0.25197507  1
  Te  Te163  1  0.58505174  0.05963125  0.58138117  1
  Te  Te164  1  0.58048602  0.08572467  0.92297755  1
  Te  Te165  1  0.60055522  0.44324785  0.21904760  1
  Te  Te166  1  0.61946852  0.43999035  0.55791867  1
  Te  Te167  1  0.60780809  0.40419023  0.94463313  1
  Te  Te168  1  0.57762602  0.77757372  0.24107700  1
  Te  Te169  1  0.59413837  0.73714135  0.58532420  1
  Te  Te170  1  0.62042646  0.77589141  0.95626109  1
  Te  Te171  1  0.91829256  0.07636268  0.25068178  1
  Te  Te172  1  0.91474106  0.09634163  0.58213537  1
  Te  Te173  1  0.91532220  0.08362990  0.92442701  1
  Te  Te174  1  0.91312895  0.44140737  0.22866238  1
  Te  Te175  1  0.88860639  0.44267131  0.59099005  1
  Te  Te176  1  0.87955436  0.43882334  0.95622949  1
  Te  Te177  1  0.91425697  0.75077305  0.24673707  1
  Te  Te178  1  0.91296633  0.74720945  0.58055866  1
  Te  Te179  1  0.90543813  0.75956207  0.94470680  1
