# generated using pymatgen
data_In2Te3
_symmetry_space_group_name_H-M   'P 1'
_cell_length_a   18.77192317
_cell_length_b   18.77095140
_cell_length_c   18.77044323
_cell_angle_alpha   90.01832059
_cell_angle_beta   89.98350365
_cell_angle_gamma   89.97720743
_symmetry_Int_Tables_number   1
_chemical_formula_structural   In2Te3
_chemical_formula_sum   'In72 Te108'
_cell_volume   6614.08096085
_cell_formula_units_Z   36
loop_
 _symmetry_equiv_pos_site_id
 _symmetry_equiv_pos_as_xyz
  1  'x, y, z'
loop_
 _atom_site_type_symbol
 _atom_site_label
 _atom_site_symmetry_multiplicity
 _atom_site_fract_x
 _atom_site_fract_y
 _atom_site_fract_z
 _atom_site_occupancy
  In  In0  1  0.16097427  0.00394535  0.50246686  1
  In  In1  1  0.51556619  0.66091933  0.84701876  1
  In  In2  1  0.00514488  0.48947415  0.85879433  1
  In  In3  1  0.15798511  -0.00142847  0.83638829  1
  In  In4  1  0.85195244  0.65634586  0.15107655  1
  In  In5  1  0.81143588  0.48275016  0.67453184  1
  In  In6  1  0.32242992  0.00869181  0.64720038  1
  In  In7  1  0.66576221  0.30974299  -0.01612175  1
  In  In8  1  0.18830677  0.31331959  0.46857783  1
  In  In9  1  0.51089370  0.33003514  0.82871410  1
  In  In10  1  0.49447070  0.84560298  0.68674840  1
  In  In11  1  0.32522989  0.65367704  0.32564387  1
  In  In12  1  0.01911429  0.17818392  0.15383194  1
  In  In13  1  0.18212549  0.00980257  0.15855472  1
  In  In14  1  0.17975838  0.82644843  0.32853043  1
  In  In15  1  0.49196564  0.14667691  0.00240053  1
  In  In16  1  0.83777339  0.17078740  0.67883467  1
  In  In17  1  0.51343653  0.17894474  0.66850186  1
  In  In18  1  -0.00174362  0.82009941  0.14794123  1
  In  In19  1  0.33333053  0.65610321  0.64655100  1
  In  In20  1  0.00676258  0.84381268  0.83283612  1
  In  In21  1  0.01838196  0.16781976  0.50855406  1
  In  In22  1  0.33057969  0.00436007  0.31844704  1
  In  In23  1  0.49034701  0.33009172  0.48079439  1
  In  In24  1  0.62820571  0.86827411  0.14787770  1
  In  In25  1  0.18199602  0.49253943  0.67085597  1
  In  In26  1  0.84835922  0.68345293  0.49070338  1
  In  In27  1  0.84448715  0.82234663  0.33389348  1
  In  In28  1  0.18243756  0.67223486  0.49973258  1
  In  In29  1  0.83875717  0.48728837  0.32814587  1
  In  In30  1  0.82751836  0.16632964  0.34586880  1
  In  In31  1  0.00331721  0.67868944  0.67480727  1
  In  In32  1  0.63731732  0.49565838  0.18940789  1
  In  In33  1  0.80801430  0.00975732  0.14552642  1
  In  In34  1  -0.00914617  0.32949640  0.00507676  1
  In  In35  1  0.16814468  0.51094580  -0.00463531  1
  In  In36  1  0.53273169  0.00284238  0.83827718  1
  In  In37  1  0.83075335  0.68751158  0.81933370  1
  In  In38  1  0.33320243  0.16973188  0.83239751  1
  In  In39  1  0.34202419  0.34374805  0.05655768  1
  In  In40  1  0.01502920  0.50991355  0.18055973  1
  In  In41  1  0.49270681  0.67213226  0.17155630  1
  In  In42  1  0.81109810  0.01000341  0.85029472  1
  In  In43  1  0.15713928  0.33168147  0.83829025  1
  In  In44  1  -0.00710453  0.82139212  0.50568015  1
  In  In45  1  0.19995709  0.32379396  0.19362691  1
  In  In46  1  0.49757777  0.65952170  0.49995486  1
  In  In47  1  -0.00835530  0.00074354  0.66695089  1
  In  In48  1  0.64881993  0.01703092  0.32657490  1
  In  In49  1  0.33287844  0.84642374  0.85854544  1
  In  In50  1  0.63036032  0.50390637  0.51084755  1
  In  In51  1  0.01258519  0.47327641  0.48625839  1
  In  In52  1  0.33448928  0.33061253  0.65358860  1
  In  In53  1  0.00068443  0.00847929  0.34154053  1
  In  In54  1  0.66050961  0.49842226  0.82968279  1
  In  In55  1  0.33522884  0.67725482  0.00826994  1
  In  In56  1  0.48603739  0.01246387  0.49473989  1
  In  In57  1  0.65259815  0.16804396  0.50438922  1
  In  In58  1  0.48723100  0.83749081  0.32884530  1
  In  In59  1  0.66983833  0.68792432  0.01134541  1
  In  In60  1  0.83984524  0.32551114  0.15477282  1
  In  In61  1  0.83876573  0.84402456  -0.01783882  1
  In  In62  1  0.64014445  0.34819787  0.33738213  1
  In  In63  1  0.66229330  0.65890586  0.36830190  1
  In  In64  1  0.33604405  0.50948010  0.82295638  1
  In  In65  1  0.34213852  0.00521196  0.01662862  1
  In  In66  1  0.67302288  0.67959723  0.67485249  1
  In  In67  1  0.83898571  0.30791794  0.50281874  1
  In  In68  1  0.84621102  0.49533257  0.00516928  1
  In  In69  1  0.16612713  0.66721366  0.17223028  1
  In  In70  1  -0.00649815  0.15884685  0.82991759  1
  In  In71  1  0.65302433  0.14953909  0.16225100  1
  Te  Te72  1  0.07884079  0.07273508  0.07132704  1
  Te  Te73  1  0.10457438  0.10173622  0.39838602  1
  Te  Te74  1  0.09413158  0.09162500  0.73274725  1
  Te  Te75  1  0.09392221  0.40903010  0.08605266  1
  Te  Te76  1  0.10500622  0.41042585  0.39021086  1
  Te  Te77  1  0.07191076  0.41437867  0.74258239  1
  Te  Te78  1  0.10069863  0.75093650  0.06799390  1
  Te  Te79  1  0.07994860  0.74257311  0.40857917  1
  Te  Te80  1  0.09805155  0.76512768  0.74516589  1
  Te  Te81  1  0.40791009  0.09792248  0.11446837  1
  Te  Te82  1  0.40000611  0.10148267  0.41225639  1
  Te  Te83  1  0.42147893  0.07212391  0.75356354  1
  Te  Te84  1  0.43090292  0.44223519  0.11957129  1
  Te  Te85  1  0.38836954  0.39626517  0.39489081  1
  Te  Te86  1  0.42596153  0.41961739  0.73782145  1
  Te  Te87  1  0.43371540  0.76641627  0.07501704  1
  Te  Te88  1  0.40328096  0.74815391  0.41892488  1
  Te  Te89  1  0.41080238  0.74136335  0.76386283  1
  Te  Te90  1  0.72191133  0.08189265  0.04760560  1
  Te  Te91  1  0.74753450  0.07074934  0.43230623  1
  Te  Te92  1  0.73839853  0.08201410  0.74185251  1
  Te  Te93  1  0.74119678  0.42610542  0.09260877  1
  Te  Te94  1  0.74802388  0.41579341  0.42836386  1
  Te  Te95  1  0.73129128  0.39093315  0.75679970  1
  Te  Te96  1  0.76124116  0.76987918  0.10261435  1
  Te  Te97  1  0.73338885  0.77885145  0.44093365  1
  Te  Te98  1  0.72978799  0.78302359  0.76697416  1
  Te  Te99  1  0.08313883  0.25703896  0.25961472  1
  Te  Te100  1  0.09781486  0.27011131  0.57876938  1
  Te  Te101  1  0.08800944  0.23661352  0.93240333  1
  Te  Te102  1  0.11260303  0.57079951  0.27341295  1
  Te  Te103  1  0.07866216  0.58019563  0.58441097  1
  Te  Te104  1  0.09568950  0.59758054  0.90003606  1
  Te  Te105  1  0.07803991  0.91337058  0.25035517  1
  Te  Te106  1  0.08617998  0.90528968  0.59287904  1
  Te  Te107  1  0.08098519  0.92119785  0.93550172  1
  Te  Te108  1  0.37010528  0.28664713  0.27620716  1
  Te  Te109  1  0.41030522  0.22887493  0.56950625  1
  Te  Te110  1  0.41236713  0.26127815  0.92580799  1
  Te  Te111  1  0.41021560  0.56482601  0.23642219  1
  Te  Te112  1  0.41754023  0.55973229  0.57375256  1
  Te  Te113  1  0.42218139  0.57407617  0.93043778  1
  Te  Te114  1  0.41851549  0.92205994  0.22999266  1
  Te  Te115  1  0.40892217  0.90574246  0.57467523  1
  Te  Te116  1  0.45026741  0.91471245  0.93475460  1
  Te  Te117  1  0.74047823  0.25497499  0.25453175  1
  Te  Te118  1  0.73192447  0.25897509  0.59618611  1
  Te  Te119  1  0.79086849  0.26644020  0.92187545  1
  Te  Te120  1  0.75096223  0.58864394  0.25145272  1
  Te  Te121  1  0.75335246  0.58628185  0.57297621  1
  Te  Te122  1  0.75367777  0.58810225  0.91892619  1
  Te  Te123  1  0.74885514  0.91940735  0.25489442  1
  Te  Te124  1  0.78905074  0.87064195  0.55669005  1
  Te  Te125  1  0.72307009  0.91877329  0.93112969  1
  Te  Te126  1  0.25138600  0.23251270  0.08783309  1
  Te  Te127  1  0.28183011  0.22447475  0.38657019  1
  Te  Te128  1  0.23984164  0.24706144  0.73987227  1
  Te  Te129  1  0.26164543  0.57282245  0.09609502  1
  Te  Te130  1  0.24292351  0.56773416  0.41435220  1
  Te  Te131  1  0.23664576  0.60423933  0.75803943  1
  Te  Te132  1  0.25244386  0.90643268  0.07980929  1
  Te  Te133  1  0.25770994  0.91512186  0.42313383  1
  Te  Te134  1  0.25253094  0.91568894  0.74830164  1
  Te  Te135  1  0.57024149  0.25532360  0.08869216  1
  Te  Te136  1  0.56760885  0.22572902  0.39264009  1
  Te  Te137  1  0.60376144  0.22715288  0.77570821  1
  Te  Te138  1  0.58068861  0.58474766  0.07750328  1
  Te  Te139  1  0.55296047  0.55670428  0.39113627  1
  Te  Te140  1  0.57347961  0.57784298  0.73168448  1
  Te  Te141  1  0.54783550  0.94685546  0.05534950  1
  Te  Te142  1  0.58029726  0.91680536  0.42046242  1
  Te  Te143  1  0.61105929  0.92119621  0.74002426  1
  Te  Te144  1  0.89287881  0.22175851  0.05960198  1
  Te  Te145  1  0.93872546  0.25187854  0.40387441  1
  Te  Te146  1  0.93497570  0.26175204  0.74131219  1
  Te  Te147  1  0.95452180  0.58683072  0.06258296  1
  Te  Te148  1  0.92839864  0.57963972  0.40892586  1
  Te  Te149  1  0.91164373  0.57327772  0.75250588  1
  Te  Te150  1  0.92069713  0.93211865  0.07740812  1
  Te  Te151  1  0.90822149  0.92733627  0.43234898  1
  Te  Te152  1  0.90012682  0.92075055  0.75614506  1
  Te  Te153  1  0.24059709  0.10713660  0.25563807  1
  Te  Te154  1  0.24006857  0.10652206  0.57505542  1
  Te  Te155  1  0.24850595  0.08644433  0.92575198  1
  Te  Te156  1  0.29169605  0.41825123  0.26772513  1
  Te  Te157  1  0.25816756  0.42355487  0.56102661  1
  Te  Te158  1  0.26177376  0.41110738  0.91775984  1
  Te  Te159  1  0.27397940  0.76231096  0.22930059  1
  Te  Te160  1  0.25386351  0.76558794  0.58782935  1
  Te  Te161  1  0.23806534  0.75689436  0.92788577  1
  Te  Te162  1  0.54636384  0.07778508  0.23760539  1
  Te  Te163  1  0.58737452  0.06456398  0.59664590  1
  Te  Te164  1  0.60922373  0.10445170  0.91875109  1
  Te  Te165  1  0.53988631  0.38979034  0.23198863  1
  Te  Te166  1  0.57717163  0.39021319  0.58660893  1
  Te  Te167  1  0.57550711  0.42280968  0.93253378  1
  Te  Te168  1  0.59989907  0.74976812  0.25781035  1
  Te  Te169  1  0.57634617  0.75738592  0.58537295  1
  Te  Te170  1  0.60393516  0.76588734  0.90382256  1
  Te  Te171  1  0.90955934  0.08511933  0.24309058  1
  Te  Te172  1  0.90703206  0.08445912  0.57120344  1
  Te  Te173  1  0.92558091  0.06813770  0.92403443  1
  Te  Te174  1  0.93418457  0.39852258  0.25004831  1
  Te  Te175  1  0.91583437  0.40892115  0.58708410  1
  Te  Te176  1  0.88800383  0.38961590  0.89967727  1
  Te  Te177  1  0.93792964  0.72859903  0.25572251  1
  Te  Te178  1  0.88655322  0.77141363  0.61653936  1
  Te  Te179  1  0.92889768  0.73783508  0.92219643  1
