# generated using pymatgen
data_In2Te3
_symmetry_space_group_name_H-M   'P 1'
_cell_length_a   18.97323234
_cell_length_b   18.94477857
_cell_length_c   18.93900736
_cell_angle_alpha   89.88972006
_cell_angle_beta   89.89394591
_cell_angle_gamma   89.93905572
_symmetry_Int_Tables_number   1
_chemical_formula_structural   In2Te3
_chemical_formula_sum   'In72 Te108'
_cell_volume   6807.47850666
_cell_formula_units_Z   36
loop_
 _symmetry_equiv_pos_site_id
 _symmetry_equiv_pos_as_xyz
  1  'x, y, z'
loop_
 _atom_site_type_symbol
 _atom_site_label
 _atom_site_symmetry_multiplicity
 _atom_site_fract_x
 _atom_site_fract_y
 _atom_site_fract_z
 _atom_site_occupancy
  In  In0  1  0.84572733  0.85606408  0.32930458  1
  In  In1  1  0.86229675  0.50055971  0.31992629  1
  In  In2  1  0.52718404  0.03033939  0.16186716  1
  In  In3  1  0.33670220  0.50800594  0.52999453  1
  In  In4  1  0.32236344  0.50525198  0.15464827  1
  In  In5  1  0.84679589  0.20223651  0.02524530  1
  In  In6  1  0.33122253  0.67344672  0.35338621  1
  In  In7  1  0.30096090  0.00306828  0.67882285  1
  In  In8  1  0.51148402  0.83830110  0.31887744  1
  In  In9  1  0.69392053  0.48950614  0.18341408  1
  In  In10  1  0.85645853  0.15795897  0.30781104  1
  In  In11  1  0.31853241  0.84725876  0.16761505  1
  In  In12  1  0.82380037  0.32146575  0.49286345  1
  In  In13  1  0.00072104  0.15734645  0.82476226  1
  In  In14  1  0.15591617  0.19190633  0.30224375  1
  In  In15  1  0.68870209  0.03713110  0.34464588  1
  In  In16  1  0.64710403  0.82875500  0.82434917  1
  In  In17  1  0.50066678  0.00628175  0.51706623  1
  In  In18  1  0.50416344  0.64886360  0.48887658  1
  In  In19  1  0.31749866  0.32591714  0.69909650  1
  In  In20  1  0.00044380  0.32370991  0.67715110  1
  In  In21  1  -0.00611385  0.01424869  0.00944087  1
  In  In22  1  0.30038768  0.64742482  0.69233672  1
  In  In23  1  0.83963468  -0.00287813  0.80888264  1
  In  In24  1  0.49660777  0.65136074  0.82226579  1
  In  In25  1  0.53119265  0.46383197  0.65101498  1
  In  In26  1  0.52775772  0.29604230  0.13510687  1
  In  In27  1  0.36550820  0.34771523  0.31743069  1
  In  In28  1  0.15293934  0.83796439  0.28684654  1
  In  In29  1  0.33380363  -0.00448621  -0.00391223  1
  In  In30  1  0.51992848  0.17999112  0.67653474  1
  In  In31  1  0.01215377  0.47080891  0.14368195  1
  In  In32  1  0.68037904  0.01438745  0.66053762  1
  In  In33  1  0.84283507  0.83334464  0.66914618  1
  In  In34  1  0.67870126  0.83563454  0.51432063  1
  In  In35  1  0.14032700  0.01358066  0.16259647  1
  In  In36  1  0.65279338  0.83066860  0.16165838  1
  In  In37  1  0.02089508  0.50028900  0.50319503  1
  In  In38  1  0.80140566  0.36283644  0.83956059  1
  In  In39  1  0.49252222  0.66449508  0.17934216  1
  In  In40  1  0.83975620  0.47794540  0.01507292  1
  In  In41  1  0.53320304  0.49276755  0.35353879  1
  In  In42  1  0.16836565  0.81081075  0.68327045  1
  In  In43  1  0.67102409  0.05075472  0.01448553  1
  In  In44  1  0.17379902  0.33707594  0.48450018  1
  In  In45  1  0.15279276  0.50519066  0.30987933  1
  In  In46  1  0.00015655  0.84442199  0.15135664  1
  In  In47  1  0.81864870  0.65542188  0.52444601  1
  In  In48  1  0.84126681  0.65284972  0.84604926  1
  In  In49  1  0.67705021  0.67530425  -0.00122257  1
  In  In50  1  0.30869949  0.19022619  0.13448682  1
  In  In51  1  0.46331063  0.83323467  0.66301224  1
  In  In52  1  0.32351317  0.17129328  0.84661303  1
  In  In53  1  0.49765369  0.00118294  0.85478831  1
  In  In54  1  0.16303680  0.33406144  0.86336928  1
  In  In55  1  0.35261509  0.16398784  0.50375546  1
  In  In56  1  0.83490854  0.84804478  -0.01236233  1
  In  In57  1  -0.01959550  0.48916162  0.82779963  1
  In  In58  1  0.14418142  0.64716417  0.13793032  1
  In  In59  1  0.65879506  0.63277852  0.66244534  1
  In  In60  1  0.00082886  0.83691556  0.47981858  1
  In  In61  1  0.50434267  0.32294795  0.84021720  1
  In  In62  1  0.82301208  0.17453685  0.65034293  1
  In  In63  1  0.31777172  0.67065958  0.01805561  1
  In  In64  1  0.15671376  0.64271445  0.85214413  1
  In  In65  1  0.67334908  0.30128754  0.34036286  1
  In  In66  1  0.33078467  0.00862786  0.35479215  1
  In  In67  1  0.50376787  0.49727258  -0.00505843  1
  In  In68  1  0.14805485  0.01104366  0.83135088  1
  In  In69  1  0.15049285  0.67835273  0.50973672  1
  In  In70  1  0.15853337  -0.00645632  0.48190577  1
  In  In71  1  -0.01973002  0.17041058  0.50393786  1
  Te  Te72  1  0.07191410  0.11840431  0.08268525  1
  Te  Te73  1  0.09031124  0.11096822  0.41171239  1
  Te  Te74  1  0.06964945  0.07565504  0.72262849  1
  Te  Te75  1  0.10821507  0.37478214  0.08435709  1
  Te  Te76  1  0.07419863  0.40571192  0.39298911  1
  Te  Te77  1  0.09156504  0.41581127  0.75483023  1
  Te  Te78  1  0.09141958  0.76474110  0.06559477  1
  Te  Te79  1  0.08587592  0.74556208  0.39186861  1
  Te  Te80  1  0.08275481  0.70331312  0.73674690  1
  Te  Te81  1  0.41337287  0.09227913  0.07943796  1
  Te  Te82  1  0.44472735  0.09485026  0.40538889  1
  Te  Te83  1  0.41184881  0.08246074  0.74706620  1
  Te  Te84  1  0.43168348  0.41577584  0.10028602  1
  Te  Te85  1  0.42212957  0.42383973  0.43607953  1
  Te  Te86  1  0.42377057  0.41902289  0.75144450  1
  Te  Te87  1  0.41929999  0.76203832  0.09031929  1
  Te  Te88  1  0.42863527  0.76465435  0.42469736  1
  Te  Te89  1  0.39404383  0.74890332  0.76587860  1
  Te  Te90  1  0.76575191  0.10926367  0.11186219  1
  Te  Te91  1  0.77552649  0.11941196  0.42728317  1
  Te  Te92  1  0.74161205  0.10445788  0.76302152  1
  Te  Te93  1  0.72942947  0.39806790  0.07423148  1
  Te  Te94  1  0.75744877  0.41508298  0.39388414  1
  Te  Te95  1  0.78188519  0.46132542  0.73119710  1
  Te  Te96  1  0.76433194  0.75550471  0.09056126  1
  Te  Te97  1  0.76476752  0.75524856  0.42263262  1
  Te  Te98  1  0.74092086  0.74034108  0.74426830  1
  Te  Te99  1  0.07252177  0.25041370  0.19318411  1
  Te  Te100  1  0.08852873  0.25072037  0.57611874  1
  Te  Te101  1  0.06835490  0.23976239  0.92505864  1
  Te  Te102  1  0.05018194  0.58892088  0.24122610  1
  Te  Te103  1  0.08852451  0.58524779  0.60478856  1
  Te  Te104  1  0.04984637  0.57082920  0.93058504  1
  Te  Te105  1  0.05529372  0.95695189  0.27560014  1
  Te  Te106  1  0.09319423  0.90137276  0.58305749  1
  Te  Te107  1  0.05260832  0.92662588  0.90659796  1
  Te  Te108  1  0.42031178  0.23829636  0.22986877  1
  Te  Te109  1  0.41558636  0.26084429  0.59976251  1
  Te  Te110  1  0.41221889  0.25039022  0.93542156  1
  Te  Te111  1  0.41331559  0.57102499  0.27104749  1
  Te  Te112  1  0.43462884  0.58993216  0.61019680  1
  Te  Te113  1  0.40358029  0.58463970  0.92341141  1
  Te  Te114  1  0.42358001  0.93361598  0.24069651  1
  Te  Te115  1  0.38461116  0.92714616  0.57312031  1
  Te  Te116  1  0.41320017  0.90097809  0.91706309  1
  Te  Te117  1  0.74139269  0.22322744  0.23249629  1
  Te  Te118  1  0.72733724  0.27907218  0.60011183  1
  Te  Te119  1  0.74318355  0.27279769  0.94285011  1
  Te  Te120  1  0.78042724  0.59153923  0.23866645  1
  Te  Te121  1  0.74884176  0.53903860  0.58948495  1
  Te  Te122  1  0.74699687  0.56544461  0.92426393  1
  Te  Te123  1  0.73225339  0.92508701  0.25302801  1
  Te  Te124  1  0.77634574  0.93388538  0.57555369  1
  Te  Te125  1  0.73161970  0.92583439  0.90322519  1
  Te  Te126  1  0.24577501  0.30280362  0.05711916  1
  Te  Te127  1  0.27026084  0.25065625  0.40260768  1
  Te  Te128  1  0.21837404  0.22942521  0.75567729  1
  Te  Te129  1  0.22320338  0.55048412  0.05196765  1
  Te  Te130  1  0.24292989  0.56732338  0.42162581  1
  Te  Te131  1  0.25453587  0.55065863  0.78976892  1
  Te  Te132  1  0.22515672  0.92098875  0.07579694  1
  Te  Te133  1  0.24209503  0.89501544  0.39889041  1
  Te  Te134  1  0.24411811  0.90370857  0.77662712  1
  Te  Te135  1  0.59847455  0.19631178  0.04966064  1
  Te  Te136  1  0.56405765  0.28468888  0.43684653  1
  Te  Te137  1  0.60897714  0.27281038  0.74630343  1
  Te  Te138  1  0.59026749  0.58613517  0.09318154  1
  Te  Te139  1  0.61916051  0.58601276  0.42564201  1
  Te  Te140  1  0.59188841  0.54723055  0.76800038  1
  Te  Te141  1  0.58676101  0.92839555  0.06731114  1
  Te  Te142  1  0.58919386  0.92107868  0.42212096  1
  Te  Te143  1  0.57348960  0.92755400  0.72965410  1
  Te  Te144  1  0.93043965  0.27171189  0.12850834  1
  Te  Te145  1  0.92649747  0.26276598  0.39667700  1
  Te  Te146  1  0.89277517  0.25713995  0.76240098  1
  Te  Te147  1  0.94564489  0.57467944  0.05686780  1
  Te  Te148  1  0.92077841  0.58774677  0.43054379  1
  Te  Te149  1  0.89522529  0.56970595  0.73227669  1
  Te  Te150  1  0.89434977  0.93754155  0.09620510  1
  Te  Te151  1  0.92064308  0.94387469  0.42001469  1
  Te  Te152  1  0.93581367  0.89522174  0.76566448  1
  Te  Te153  1  0.25777606  0.08327533  0.24316250  1
  Te  Te154  1  0.23895255  0.08995140  0.57093793  1
  Te  Te155  1  0.23119966  0.08835536  0.93328500  1
  Te  Te156  1  0.24665276  0.40592012  0.24315683  1
  Te  Te157  1  0.24015969  0.41438423  0.59703573  1
  Te  Te158  1  0.29736972  0.36268703  0.92218072  1
  Te  Te159  1  0.24868367  0.72084745  0.23439449  1
  Te  Te160  1  0.26507736  0.74422899  0.58072857  1
  Te  Te161  1  0.21787190  0.74617236  0.94134703  1
  Te  Te162  1  0.59727554  0.11612356  0.25899928  1
  Te  Te163  1  0.60116697  0.10616340  0.56899295  1
  Te  Te164  1  0.57534402  0.11162256  0.91626631  1
  Te  Te165  1  0.58066833  0.39610130  0.24569769  1
  Te  Te166  1  0.60262578  0.37748035  0.54870156  1
  Te  Te167  1  0.59374773  0.40709765  0.92374211  1
  Te  Te168  1  0.59948559  0.72837665  0.26602373  1
  Te  Te169  1  0.57959887  0.75498546  0.59731696  1
  Te  Te170  1  0.56706914  0.74537531  0.92164197  1
  Te  Te171  1  0.94661002  0.06274333  0.24212985  1
  Te  Te172  1  0.93376434  0.08283530  0.61505217  1
  Te  Te173  1  0.89113791  0.09091230  0.91973244  1
  Te  Te174  1  0.90399768  0.39648729  0.21891787  1
  Te  Te175  1  0.92575742  0.40393458  0.57290895  1
  Te  Te176  1  0.92419016  0.38834015  0.92576767  1
  Te  Te177  1  0.92865234  0.76391601  0.24960336  1
  Te  Te178  1  0.92745769  0.74549472  0.58011873  1
  Te  Te179  1  0.92048480  0.75077466  0.91864983  1
