# generated using pymatgen
data_In2Te3
_symmetry_space_group_name_H-M   'P 1'
_cell_length_a   18.91866038
_cell_length_b   18.93460521
_cell_length_c   18.92650932
_cell_angle_alpha   89.98805204
_cell_angle_beta   90.04467942
_cell_angle_gamma   90.00553019
_symmetry_Int_Tables_number   1
_chemical_formula_structural   In2Te3
_chemical_formula_sum   'In72 Te108'
_cell_volume   6779.80206206
_cell_formula_units_Z   36
loop_
 _symmetry_equiv_pos_site_id
 _symmetry_equiv_pos_as_xyz
  1  'x, y, z'
loop_
 _atom_site_type_symbol
 _atom_site_label
 _atom_site_symmetry_multiplicity
 _atom_site_fract_x
 _atom_site_fract_y
 _atom_site_fract_z
 _atom_site_occupancy
  In  In0  1  0.16502541  0.17470226  0.31945622  1
  In  In1  1  0.48788581  0.15546089  0.66581036  1
  In  In2  1  0.82476855  0.16745089  0.64591113  1
  In  In3  1  -0.00075081  0.81969866  0.52975134  1
  In  In4  1  0.15101330  0.49838881  0.66420395  1
  In  In5  1  0.50392747  0.67765648  0.50323050  1
  In  In6  1  -0.00464877  0.17885417  0.84676798  1
  In  In7  1  0.49380108  0.34268475  0.48590795  1
  In  In8  1  0.32475633  0.00734115  0.00208679  1
  In  In9  1  0.69375915  0.79980650  0.49082891  1
  In  In10  1  0.01903624  0.66025846  0.31894077  1
  In  In11  1  0.68883510  0.52001671  0.83772219  1
  In  In12  1  0.04106136  0.36079900  0.02083277  1
  In  In13  1  0.34677394  0.33162507  0.65388405  1
  In  In14  1  0.49903597  0.53741524  -0.00490902  1
  In  In15  1  0.49589129  0.00911024  0.15787680  1
  In  In16  1  0.11649483  0.68812766  0.84817406  1
  In  In17  1  0.00434342  0.16565852  0.48380642  1
  In  In18  1  0.01110640  0.51442634  0.83628542  1
  In  In19  1  0.81576614  0.33015003  0.82981006  1
  In  In20  1  0.00794880  0.34585591  0.32776459  1
  In  In21  1  0.15710044  0.31731535  0.48885040  1
  In  In22  1  0.17000947  0.66197283  0.16522450  1
  In  In23  1  0.29851933  -0.01905357  0.64597682  1
  In  In24  1  0.13872077  -0.00803006  0.48032313  1
  In  In25  1  0.34660394  0.19066808  0.84631106  1
  In  In26  1  0.84373013  -0.01748681  0.48705178  1
  In  In27  1  0.70492307  0.66787983  0.31246174  1
  In  In28  1  0.70354984  0.37789362  0.35558268  1
  In  In29  1  0.45461391  0.34798463  0.86960098  1
  In  In30  1  0.68384867  -0.01942902  0.32932426  1
  In  In31  1  0.14878105  0.01321917  0.16898033  1
  In  In32  1  0.33210513  0.49086597  0.17190820  1
  In  In33  1  0.84106198  0.49286802  0.62467980  1
  In  In34  1  0.50963717  0.47907599  0.69556596  1
  In  In35  1  0.85260476  0.65049489  0.14851404  1
  In  In36  1  0.15339591  0.82288641  0.01340204  1
  In  In37  1  0.68991401  0.65476006  0.67359196  1
  In  In38  1  0.49762220  0.00561720  0.83945305  1
  In  In39  1  -0.02246451  0.13699522  0.16069783  1
  In  In40  1  0.68522893  0.00984535  0.64483286  1
  In  In41  1  0.89406022  -0.09056541  0.87980282  1
  In  In42  1  0.82370769  0.15052655  0.00459395  1
  In  In43  1  0.51463529  0.50638818  0.33061767  1
  In  In44  1  0.47766900  0.84910214  0.67417447  1
  In  In45  1  0.17501206  0.64762140  0.50297552  1
  In  In46  1  0.30273339  0.84090846  0.49054291  1
  In  In47  1  0.86503156  0.34530484  0.16952242  1
  In  In48  1  0.34640439  0.51098015  0.47944789  1
  In  In49  1  0.33146427  0.65118282  0.69020905  1
  In  In50  1  0.47480156  0.15003805  0.34727286  1
  In  In51  1  0.65369149  0.34876540  0.02002099  1
  In  In52  1  0.62948680  0.80095802  0.86733638  1
  In  In53  1  -0.00780308  0.50765386  0.47446850  1
  In  In54  1  0.14930394  0.84552034  0.30277999  1
  In  In55  1  0.16969383  0.18308452  0.04554915  1
  In  In56  1  0.64599278  0.01475079  -0.00124812  1
  In  In57  1  0.50191082  0.33217163  0.19845464  1
  In  In58  1  0.70757005  0.83937719  0.16368893  1
  In  In59  1  0.49609772  0.83022044  0.35280729  1
  In  In60  1  0.51753910  0.66560884  0.15971651  1
  In  In61  1  0.36323329  0.81699539  0.16144085  1
  In  In62  1  0.14294565  -0.01652551  0.83951671  1
  In  In63  1  0.16132041  0.14062377  0.67170734  1
  In  In64  1  0.64831765  0.15100055  0.81742145  1
  In  In65  1  0.84766734  0.51304513  -0.02385628  1
  In  In66  1  0.66087869  0.30984342  0.63838341  1
  In  In67  1  0.66522109  0.18315361  0.48863388  1
  In  In68  1  0.32484949  0.84970569  0.84963307  1
  In  In69  1  0.86489927  0.69314754  0.83183943  1
  In  In70  1  0.18354967  0.38506702  0.88376569  1
  In  In71  1  0.68611836  0.17892382  0.17646423  1
  Te  Te72  1  0.06757941  0.07195547  0.05396008  1
  Te  Te73  1  0.06382232  0.07509375  0.37814279  1
  Te  Te74  1  0.05395850  0.07137547  0.75326497  1
  Te  Te75  1  0.11327395  0.42793814  0.13246706  1
  Te  Te76  1  0.10697647  0.43229160  0.40553563  1
  Te  Te77  1  0.08885791  0.40335509  0.76379870  1
  Te  Te78  1  0.06519097  0.75773415  0.11431337  1
  Te  Te79  1  0.10118909  0.75390875  0.41724935  1
  Te  Te80  1  0.01333674  0.74188938  0.75105593  1
  Te  Te81  1  0.39852805  0.09762346  0.09174725  1
  Te  Te82  1  0.43876510  0.05762229  0.45060559  1
  Te  Te83  1  0.39319087  0.06290540  0.74063425  1
  Te  Te84  1  0.44670186  0.42808313  0.09554378  1
  Te  Te85  1  0.40539943  0.40985415  0.38294752  1
  Te  Te86  1  0.38053822  0.43177973  0.76461716  1
  Te  Te87  1  0.43389371  0.73835995  0.05509292  1
  Te  Te88  1  0.39390512  0.73944725  0.41983198  1
  Te  Te89  1  0.41399091  0.75129847  0.77043851  1
  Te  Te90  1  0.75602092  0.05820931  0.10607860  1
  Te  Te91  1  0.75592723  0.08563051  0.41518852  1
  Te  Te92  1  0.76537864  0.07719476  0.75478818  1
  Te  Te93  1  0.77067813  0.42304113  0.07516590  1
  Te  Te94  1  0.76481211  0.45591482  0.46332002  1
  Te  Te95  1  0.73692519  0.41416242  0.73060015  1
  Te  Te96  1  0.74348424  0.72558861  0.07902323  1
  Te  Te97  1  0.79807748  0.74303857  0.40305909  1
  Te  Te98  1  0.73868854  0.76198292  0.76835489  1
  Te  Te99  1  0.06281781  0.24150064  0.22923834  1
  Te  Te100  1  0.07813920  0.24289214  0.59353496  1
  Te  Te101  1  0.11010581  0.25101485  0.91837470  1
  Te  Te102  1  0.08876373  0.55704478  0.23496775  1
  Te  Te103  1  0.06239308  0.59217435  0.58749010  1
  Te  Te104  1  0.06749527  0.59133772  0.95097653  1
  Te  Te105  1  0.04992226  0.91937594  0.22251909  1
  Te  Te106  1  0.09094386  0.91512012  0.59535373  1
  Te  Te107  1  0.05660440  0.89512173  0.92183244  1
  Te  Te108  1  0.40706488  0.22955316  0.24525803  1
  Te  Te109  1  0.41317342  0.23558752  0.55821713  1
  Te  Te110  1  0.36707122  0.27662946  0.96502105  1
  Te  Te111  1  0.42054364  0.59363400  0.25123383  1
  Te  Te112  1  0.42963904  0.57715495  0.59590419  1
  Te  Te113  1  0.39141708  0.54954817  0.89687660  1
  Te  Te114  1  0.41958862  0.92105035  0.25757076  1
  Te  Te115  1  0.41609373  0.92630354  0.55757172  1
  Te  Te116  1  0.42964958  0.91464686  0.93860224  1
  Te  Te117  1  0.76978048  0.26940224  0.26206496  1
  Te  Te118  1  0.77567070  0.27143807  0.54695015  1
  Te  Te119  1  0.73013927  0.24169149  0.92081625  1
  Te  Te120  1  0.79000387  0.56189268  0.25314149  1
  Te  Te121  1  0.74540272  0.58425428  0.55410613  1
  Te  Te122  1  0.75707358  0.62248572  0.92385567  1
  Te  Te123  1  0.79540420  0.90994573  0.26094273  1
  Te  Te124  1  0.76531099  0.89669154  0.58668386  1
  Te  Te125  1  0.71998189  0.91286769  0.91615666  1
  Te  Te126  1  0.24351529  0.30281774  0.08934029  1
  Te  Te127  1  0.25665952  0.24701722  0.41026876  1
  Te  Te128  1  0.25492881  0.24446478  0.73756016  1
  Te  Te129  1  0.27221017  0.59294340  0.07930791  1
  Te  Te130  1  0.24841131  0.57938883  0.39578051  1
  Te  Te131  1  0.21083040  0.59676045  0.76334293  1
  Te  Te132  1  0.25351516  0.90811226  0.09318832  1
  Te  Te133  1  0.24382342  0.93300688  0.38650844  1
  Te  Te134  1  0.22273999  0.89329133  0.74555519  1
  Te  Te135  1  0.57669053  0.24292875  0.09350005  1
  Te  Te136  1  0.58737321  0.26957136  0.39158068  1
  Te  Te137  1  0.56238119  0.25865900  0.74937296  1
  Te  Te138  1  0.60647021  0.57303152  0.08805688  1
  Te  Te139  1  0.59733791  0.60595760  0.40903903  1
  Te  Te140  1  0.57920794  0.59518228  0.76260665  1
  Te  Te141  1  0.58733240  0.90927440  0.09152508  1
  Te  Te142  1  0.60128777  0.90549373  0.43305659  1
  Te  Te143  1  0.58629668  0.93502882  0.73930209  1
  Te  Te144  1  0.92276286  0.25134104  0.06130667  1
  Te  Te145  1  0.92019666  0.25217570  0.40072495  1
  Te  Te146  1  0.91027954  0.25176483  0.74136595  1
  Te  Te147  1  0.95018676  0.56916055  0.06658285  1
  Te  Te148  1  0.91937940  0.62815315  0.42572216  1
  Te  Te149  1  0.89640257  0.56505707  0.75318031  1
  Te  Te150  1  0.86024162  0.88527448  0.02277247  1
  Te  Te151  1  0.94103625  0.89723774  0.41903719  1
  Te  Te152  1  0.92659584  0.87300584  0.73775112  1
  Te  Te153  1  0.25351786  0.09363496  0.23140728  1
  Te  Te154  1  0.23895940  0.08565576  0.55453506  1
  Te  Te155  1  0.24763754  0.08034095  0.89391264  1
  Te  Te156  1  0.23567444  0.38581321  0.22185052  1
  Te  Te157  1  0.25530764  0.42689692  0.57664435  1
  Te  Te158  1  0.26512016  0.48288204  0.95767836  1
  Te  Te159  1  0.25950133  0.75207259  0.25053882  1
  Te  Te160  1  0.25262161  0.74125968  0.59591030  1
  Te  Te161  1  0.24250946  0.74376411  0.92010001  1
  Te  Te162  1  0.59433523  0.08436094  0.25798324  1
  Te  Te163  1  0.57847353  0.08372422  0.56610552  1
  Te  Te164  1  0.55109343  0.11409621  0.92997188  1
  Te  Te165  1  0.61379278  0.43066614  0.24535341  1
  Te  Te166  1  0.58457624  0.42622010  0.57367363  1
  Te  Te167  1  0.59016265  0.41775402  0.90068015  1
  Te  Te168  1  0.59467225  0.76576135  0.25608250  1
  Te  Te169  1  0.58271335  0.75805732  0.60488276  1
  Te  Te170  1  0.54912156  0.71130780  0.95064013  1
  Te  Te171  1  0.86696034  0.06361717  0.22164639  1
  Te  Te172  1  0.92372054  0.07552944  0.57806161  1
  Te  Te173  1  0.90477344  0.07287692  0.90632858  1
  Te  Te174  1  0.91207902  0.44553906  0.26870632  1
  Te  Te175  1  0.95288086  0.41180119  0.57884642  1
  Te  Te176  1  0.92609815  0.39822509  0.90935561  1
  Te  Te177  1  0.94076066  0.74599004  0.22380267  1
  Te  Te178  1  0.90766769  0.75819347  0.63080913  1
  Te  Te179  1  0.92454907  0.77047728  0.95090973  1
