# generated using pymatgen
data_In2Te3
_symmetry_space_group_name_H-M   'P 1'
_cell_length_a   18.85624233
_cell_length_b   18.85251468
_cell_length_c   18.85993496
_cell_angle_alpha   90.01605949
_cell_angle_beta   90.03723282
_cell_angle_gamma   90.04104579
_symmetry_Int_Tables_number   1
_chemical_formula_structural   In2Te3
_chemical_formula_sum   'In72 Te108'
_cell_volume   6704.46933669
_cell_formula_units_Z   36
loop_
 _symmetry_equiv_pos_site_id
 _symmetry_equiv_pos_as_xyz
  1  'x, y, z'
loop_
 _atom_site_type_symbol
 _atom_site_label
 _atom_site_symmetry_multiplicity
 _atom_site_fract_x
 _atom_site_fract_y
 _atom_site_fract_z
 _atom_site_occupancy
  In  In0  1  0.33589944  0.51936545  0.16058895  1
  In  In1  1  0.81088304  0.51930192  -0.00674080  1
  In  In2  1  -0.02938660  -0.03384288  0.02520913  1
  In  In3  1  -0.01115882  0.50091984  0.20226913  1
  In  In4  1  0.51848237  0.02057746  0.15454215  1
  In  In5  1  0.52736081  0.50442447  0.00764716  1
  In  In6  1  0.83023371  0.16109557  0.34166609  1
  In  In7  1  0.34009189  0.14439092  0.84140713  1
  In  In8  1  0.67323758  0.52288224  0.84028456  1
  In  In9  1  0.16162942  0.34932386  0.16243073  1
  In  In10  1  0.84376642  0.51357870  0.65757865  1
  In  In11  1  0.14154235  -0.01875555  0.51198717  1
  In  In12  1  0.30909043  0.50013386  0.81125145  1
  In  In13  1  0.82627251  0.66762908  0.17647808  1
  In  In14  1  0.15640971  0.15956524  -0.01385862  1
  In  In15  1  0.66515657  0.49101993  0.17389976  1
  In  In16  1  0.34910904  0.36103643  0.67219735  1
  In  In17  1  0.82002788  0.32173050  0.84622485  1
  In  In18  1  0.82087357  0.14442097  0.64841581  1
  In  In19  1  0.16461039  0.15148884  0.67170299  1
  In  In20  1  0.17654169  -0.00649987  0.18662758  1
  In  In21  1  0.14298716  0.51651763  -0.01191682  1
  In  In22  1  0.48774010  0.66642706  0.83352424  1
  In  In23  1  0.15940458  0.29499131  0.85458758  1
  In  In24  1  0.16720611  0.66983727  0.80403178  1
  In  In25  1  0.14970038  0.32968966  0.49849898  1
  In  In26  1  0.49011370  0.68674182  0.50728894  1
  In  In27  1  0.37385471  0.29804811  0.29778056  1
  In  In28  1  -0.01798756  0.17648196  0.15416741  1
  In  In29  1  0.49755275  0.85699403  0.01719684  1
  In  In30  1  0.15041780  0.81700631  0.32928283  1
  In  In31  1  0.68143961  0.66032621  0.01628400  1
  In  In32  1  0.49223483  0.00656732  0.82485524  1
  In  In33  1  0.15192092  0.52837233  0.66077723  1
  In  In34  1  0.31341975  0.83481803  0.52382384  1
  In  In35  1  0.67771546  0.30510785  0.65962323  1
  In  In36  1  0.34790909  0.17246211  0.48356077  1
  In  In37  1  0.50937716  0.86087280  0.63215297  1
  In  In38  1  0.83448866  0.00611593  0.49179311  1
  In  In39  1  0.34699662  0.32666523  0.00603028  1
  In  In40  1  0.67447698  0.48294298  0.50038928  1
  In  In41  1  0.81952074  0.85322057  0.33039899  1
  In  In42  1  0.16600179  0.13740215  0.34530896  1
  In  In43  1  0.34558911  0.52813477  0.50173858  1
  In  In44  1  0.67319621  0.14843493  0.16825148  1
  In  In45  1  -0.01467150  0.31074708  0.34145704  1
  In  In46  1  0.36131356  0.00440235  0.35493822  1
  In  In47  1  0.00544437  0.65830382  0.35889657  1
  In  In48  1  0.11718513  0.80885003  0.00258201  1
  In  In49  1  0.51962866  0.33126351  0.49048018  1
  In  In50  1  0.01138623  -0.01000310  0.32666899  1
  In  In51  1  0.83191739  0.00574287  0.81435369  1
  In  In52  1  0.81866891  0.84947564  0.67118102  1
  In  In53  1  0.67516043  0.31966839  0.34387704  1
  In  In54  1  0.66231128  0.82863079  0.83119170  1
  In  In55  1  0.30301143  0.84002163  0.77236714  1
  In  In56  1  0.69942024  -0.01802671  0.00314760  1
  In  In57  1  0.51203477  0.17475501  -0.00337725  1
  In  In58  1  0.52876588  0.13938853  0.64702665  1
  In  In59  1  -0.00722167  0.35657048  0.67393016  1
  In  In60  1  0.53166500  0.85190145  0.36572647  1
  In  In61  1  0.47956703  0.50272094  0.32940310  1
  In  In62  1  0.32703617  0.01239695  -0.01743136  1
  In  In63  1  0.67682753  0.31748532  0.00994466  1
  In  In64  1  0.19057415  0.51590311  0.35651517  1
  In  In65  1  0.01618643  0.68863477  0.64519678  1
  In  In66  1  0.32697191  0.67780749  -0.00224708  1
  In  In67  1  0.32183119  0.83600065  0.17562778  1
  In  In68  1  0.67222088  0.67361151  0.33560069  1
  In  In69  1  0.00728291  0.14925203  0.83334340  1
  In  In70  1  0.83428888  0.66743855  0.49253172  1
  In  In71  1  -0.01057544  0.51211294  0.81275628  1
  Te  Te72  1  0.08402828  0.06963878  0.08825081  1
  Te  Te73  1  0.05839077  0.08753724  0.43722625  1
  Te  Te74  1  0.06568016  0.05823940  0.73168499  1
  Te  Te75  1  0.06224719  0.42880635  0.08202156  1
  Te  Te76  1  0.07903077  0.42150485  0.40153896  1
  Te  Te77  1  0.10433089  0.41855392  0.76632276  1
  Te  Te78  1  0.03364636  0.74057268  0.10300966  1
  Te  Te79  1  0.07823487  0.75679192  0.44200864  1
  Te  Te80  1  0.08171680  0.77848122  0.74674975  1
  Te  Te81  1  0.40568585  0.09856937  0.07827207  1
  Te  Te82  1  0.45714679  0.10513202  0.40927090  1
  Te  Te83  1  0.40416355  0.07492750  0.72303514  1
  Te  Te84  1  0.43034996  0.42033906  0.09267318  1
  Te  Te85  1  0.40360034  0.40628399  0.42396486  1
  Te  Te86  1  0.43250860  0.43199127  0.76939825  1
  Te  Te87  1  0.42035261  0.74971387  0.09347425  1
  Te  Te88  1  0.40989308  0.77594829  0.41473044  1
  Te  Te89  1  0.43123150  0.77126727  0.73682179  1
  Te  Te90  1  0.76638154  0.10031647  0.06375335  1
  Te  Te91  1  0.73540182  0.05379736  0.38763206  1
  Te  Te92  1  0.73241269  0.10170005  0.75863401  1
  Te  Te93  1  0.76433608  0.41181778  0.09087439  1
  Te  Te94  1  0.76891039  0.39775267  0.42799344  1
  Te  Te95  1  0.75548524  0.42190420  0.74714756  1
  Te  Te96  1  0.76874235  0.76509428  0.07824452  1
  Te  Te97  1  0.73911546  0.77125519  0.43108963  1
  Te  Te98  1  0.73353590  0.74464536  0.73387066  1
  Te  Te99  1  0.09535301  0.23643472  0.24748342  1
  Te  Te100  1  0.07067192  0.24747547  0.59720219  1
  Te  Te101  1  0.04035637  0.26165222  0.94936286  1
  Te  Te102  1  0.09990114  0.58933825  0.25756824  1
  Te  Te103  1  0.05459584  0.57264096  0.56186548  1
  Te  Te104  1  0.06081057  0.61277492  0.90492658  1
  Te  Te105  1  0.06841448  0.89274372  0.22357593  1
  Te  Te106  1  0.12041891  0.86974273  0.61003698  1
  Te  Te107  1  0.05504216  0.91194493  0.91484006  1
  Te  Te108  1  0.45500989  0.21692666  0.21021349  1
  Te  Te109  1  0.42348649  0.25125788  0.59317397  1
  Te  Te110  1  0.42781867  0.25633492  0.89761093  1
  Te  Te111  1  0.39981153  0.60552893  0.26201737  1
  Te  Te112  1  0.44623406  0.57616665  0.59620585  1
  Te  Te113  1  0.40585934  0.56803216  0.92701995  1
  Te  Te114  1  0.42659744  0.92539248  0.24080816  1
  Te  Te115  1  0.40344959  0.94125404  0.56866102  1
  Te  Te116  1  0.40638206  0.90629803  0.90474141  1
  Te  Te117  1  0.76229868  0.25096503  0.23831613  1
  Te  Te118  1  0.75277188  0.23575195  0.55383585  1
  Te  Te119  1  0.75323761  0.21838549  0.93022499  1
  Te  Te120  1  0.75720881  0.56565229  0.26929201  1
  Te  Te121  1  0.73647164  0.59320424  0.58495683  1
  Te  Te122  1  0.77061327  0.62841627  0.89559507  1
  Te  Te123  1  0.78231907  0.94772650  0.22253281  1
  Te  Te124  1  0.73105593  0.94087306  0.58517195  1
  Te  Te125  1  0.77648767  0.89155320  0.90902235  1
  Te  Te126  1  0.24204611  0.24629946  0.08196756  1
  Te  Te127  1  0.24782481  0.25858063  0.40416350  1
  Te  Te128  1  0.25977767  0.25129760  0.74782317  1
  Te  Te129  1  0.22817020  0.59931626  0.08289790  1
  Te  Te130  1  0.23966859  0.62161678  0.45272142  1
  Te  Te131  1  0.27769381  0.61313233  0.70959160  1
  Te  Te132  1  0.24420124  0.91640803  0.06951469  1
  Te  Te133  1  0.23851160  0.92522404  0.40282031  1
  Te  Te134  1  0.21546658  0.93818992  0.70802536  1
  Te  Te135  1  0.57243679  0.26155071  0.10861928  1
  Te  Te136  1  0.58509742  0.22348413  0.41477578  1
  Te  Te137  1  0.59288547  0.22343201  0.75032195  1
  Te  Te138  1  0.57912266  0.60108562  0.11390069  1
  Te  Te139  1  0.57881109  0.57822736  0.41759006  1
  Te  Te140  1  0.58527302  0.59662037  0.74882699  1
  Te  Te141  1  0.61082441  0.90733207  0.10328229  1
  Te  Te142  1  0.60702586  0.94012058  0.45757803  1
  Te  Te143  1  0.59361759  0.93084510  0.74295244  1
  Te  Te144  1  0.92345458  0.25709442  0.04885511  1
  Te  Te145  1  0.91280523  0.23190877  0.44249751  1
  Te  Te146  1  0.91725024  0.24864713  0.75233487  1
  Te  Te147  1  0.91375600  0.57787209  0.08983574  1
  Te  Te148  1  0.89778425  0.56772847  0.40475408  1
  Te  Te149  1  0.91425425  0.62056028  0.74023919  1
  Te  Te150  1  0.87088907  0.89282179  0.11456414  1
  Te  Te151  1  0.93040333  0.90668173  0.42332865  1
  Te  Te152  1  0.92198720  0.89771937  0.76637459  1
  Te  Te153  1  0.27513415  0.08790249  0.25291253  1
  Te  Te154  1  0.24381620  0.08830336  0.55789094  1
  Te  Te155  1  0.21991564  0.06164052  0.88612543  1
  Te  Te156  1  0.26325878  0.41779550  0.25369729  1
  Te  Te157  1  0.24160084  0.42260085  0.58130430  1
  Te  Te158  1  0.24378599  0.41413979  0.93024354  1
  Te  Te159  1  0.24056998  0.73565051  0.24480242  1
  Te  Te160  1  0.25224954  0.71633749  0.58653802  1
  Te  Te161  1  0.24839061  0.76353242  0.90012878  1
  Te  Te162  1  0.60663367  0.06015445  0.26791297  1
  Te  Te163  1  0.61881188  0.05191445  0.56729508  1
  Te  Te164  1  0.58648037  0.06229834  0.92945212  1
  Te  Te165  1  0.57585452  0.40669306  0.26263764  1
  Te  Te166  1  0.58370983  0.41197532  0.60117481  1
  Te  Te167  1  0.59948392  0.40897439  0.91449397  1
  Te  Te168  1  0.59430866  0.77176000  0.25903132  1
  Te  Te169  1  0.59919995  0.75946344  0.57410851  1
  Te  Te170  1  0.57403940  0.74438095  0.93661070  1
  Te  Te171  1  0.91409926  0.07389692  0.24409571  1
  Te  Te172  1  0.92396088  0.04858711  0.60397865  1
  Te  Te173  1  0.91692040  0.07174917  0.92616002  1
  Te  Te174  1  0.90568989  0.38735959  0.24434242  1
  Te  Te175  1  0.91361037  0.41963644  0.56786761  1
  Te  Te176  1  0.90647518  0.43150889  0.91048919  1
  Te  Te177  1  0.91298280  0.74734233  0.27178349  1
  Te  Te178  1  0.91015311  0.77140974  0.57366263  1
  Te  Te179  1  0.97440542  0.75579062  0.96821929  1
