# generated using pymatgen
data_In2Te3
_symmetry_space_group_name_H-M   'P 1'
_cell_length_a   18.92443632
_cell_length_b   18.91404985
_cell_length_c   18.94989673
_cell_angle_alpha   89.92407966
_cell_angle_beta   90.06740453
_cell_angle_gamma   90.03542207
_symmetry_Int_Tables_number   1
_chemical_formula_structural   In2Te3
_chemical_formula_sum   'In72 Te108'
_cell_volume   6782.87111880
_cell_formula_units_Z   36
loop_
 _symmetry_equiv_pos_site_id
 _symmetry_equiv_pos_as_xyz
  1  'x, y, z'
loop_
 _atom_site_type_symbol
 _atom_site_label
 _atom_site_symmetry_multiplicity
 _atom_site_fract_x
 _atom_site_fract_y
 _atom_site_fract_z
 _atom_site_occupancy
  In  In0  1  0.49932373  0.49413307  -0.00798209  1
  In  In1  1  -0.02387464  0.64411515  -0.01647505  1
  In  In2  1  0.52958195  0.34717977  0.17383214  1
  In  In3  1  0.28477487  0.80926992  0.17765013  1
  In  In4  1  0.51792191  -0.03759065  0.50844536  1
  In  In5  1  0.50946885  0.02120959  0.83193085  1
  In  In6  1  0.85100838  0.00443115  0.82862715  1
  In  In7  1  0.82466924  0.67593308  0.50382316  1
  In  In8  1  0.12875371  0.32461017  0.53291915  1
  In  In9  1  0.51098036  -0.01604602  0.18205216  1
  In  In10  1  0.00131293  0.00445942  -0.01077708  1
  In  In11  1  0.67882326  0.16541191  0.50583841  1
  In  In12  1  0.30985152  0.16294415  0.19605629  1
  In  In13  1  0.16717954  0.16023384  0.32826450  1
  In  In14  1  0.51623605  0.33027154  0.83190301  1
  In  In15  1  -0.01983164  0.00230418  0.31629464  1
  In  In16  1  0.65501933  0.65706282  0.33167897  1
  In  In17  1  0.31718093  0.49658393  0.85436439  1
  In  In18  1  0.89095594  0.30626950  0.53203873  1
  In  In19  1  -0.05206483  0.47504547  0.85069004  1
  In  In20  1  0.32047155  0.36808592  -0.01247995  1
  In  In21  1  0.30584118  0.53092702  0.17414228  1
  In  In22  1  0.14377945  0.83421572  0.34227457  1
  In  In23  1  0.52566851  0.18391690  0.33644559  1
  In  In24  1  0.69483338  0.83492076  0.14619488  1
  In  In25  1  0.53096321  0.64331042  0.84128095  1
  In  In26  1  0.68761378  -0.00839364  0.68119941  1
  In  In27  1  0.30699168  0.32555193  0.67813214  1
  In  In28  1  0.33433373  0.15279289  0.51459485  1
  In  In29  1  -0.01277809  0.82821986  0.84073992  1
  In  In30  1  0.69084411  0.47846233  0.51560314  1
  In  In31  1  0.68790535  0.82018597  0.80869970  1
  In  In32  1  0.70960984  0.36514447  0.69713551  1
  In  In33  1  0.18972005  0.83400441  0.66521841  1
  In  In34  1  0.12444884  0.63974332  0.13607579  1
  In  In35  1  0.34475497  0.82345502  0.48075823  1
  In  In36  1  0.52161626  0.15934517  -0.00148423  1
  In  In37  1  0.73909715  0.32853008  -0.00445175  1
  In  In38  1  0.65148964  0.48768857  0.16166319  1
  In  In39  1  0.49350823  0.66384963  0.16603964  1
  In  In40  1  -0.01049700  0.16380012  0.83328526  1
  In  In41  1  0.33834328  0.67420414  0.65759606  1
  In  In42  1  0.68684902  0.18885247  0.16199127  1
  In  In43  1  0.83636505  0.01945725  0.51167237  1
  In  In44  1  0.83214795  0.01006332  0.14613016  1
  In  In45  1  0.31441960  0.34692969  0.33297947  1
  In  In46  1  -0.00556706  0.49544126  0.49857194  1
  In  In47  1  0.55251102  0.66769312  0.54240182  1
  In  In48  1  0.34030352  -0.01798407  0.04345596  1
  In  In49  1  0.33319192  0.00819869  0.64060025  1
  In  In50  1  0.13366919  0.34912826  0.12204804  1
  In  In51  1  0.34767117  0.01874640  0.31640714  1
  In  In52  1  0.51685833  0.84196238  0.36128805  1
  In  In53  1  0.85292877  0.82470677  0.32672721  1
  In  In54  1  0.30607921  0.18151804  0.83568038  1
  In  In55  1  0.35455318  0.81942071  0.82465360  1
  In  In56  1  0.82872359  0.47581649  0.32102800  1
  In  In57  1  0.16468310  0.16229987  -0.00588316  1
  In  In58  1  0.13318603  0.49609394  0.68826202  1
  In  In59  1  0.00849377  -0.00549328  0.68569932  1
  In  In60  1  -0.02048515  0.20451819  0.13176128  1
  In  In61  1  -0.01964091  0.64424259  0.67034256  1
  In  In62  1  0.00726863  0.67797549  0.32150248  1
  In  In63  1  0.50075303  0.81809906  0.01135654  1
  In  In64  1  0.50646950  0.46927916  0.32050348  1
  In  In65  1  0.15910684  0.01876715  0.50121941  1
  In  In66  1  0.51619766  0.19391957  0.67224455  1
  In  In67  1  0.31628484  0.51826780  0.47544609  1
  In  In68  1  0.83636619  0.82545089  -0.00798041  1
  In  In69  1  0.52107652  0.51519547  0.69470983  1
  In  In70  1  -0.01406771  0.33084178  0.34103531  1
  In  In71  1  0.16297477  0.68168064  0.85467997  1
  Te  Te72  1  0.07459800  0.09000475  0.09162878  1
  Te  Te73  1  0.06172066  0.09348766  0.41288877  1
  Te  Te74  1  0.09143528  0.06368261  0.78813771  1
  Te  Te75  1  0.02664099  0.44234440  0.07254508  1
  Te  Te76  1  0.09178770  0.41161666  0.41599121  1
  Te  Te77  1  0.02612432  0.40678002  0.73651948  1
  Te  Te78  1  0.05673342  0.74261742  0.05767105  1
  Te  Te79  1  0.06393708  0.75336089  0.43442279  1
  Te  Te80  1  0.08552380  0.74957823  0.74156479  1
  Te  Te81  1  0.42830134  0.09670653  0.10578731  1
  Te  Te82  1  0.43479683  0.08342578  0.42311081  1
  Te  Te83  1  0.40924241  0.10155240  0.74487620  1
  Te  Te84  1  0.41454293  0.42622223  0.10036941  1
  Te  Te85  1  0.41415604  0.41067247  0.42781472  1
  Te  Te86  1  0.41170761  0.41657321  0.75780827  1
  Te  Te87  1  0.39184780  0.74333387  0.08695310  1
  Te  Te88  1  0.45382084  0.72776445  0.43675990  1
  Te  Te89  1  0.44843325  0.73278813  0.74382028  1
  Te  Te90  1  0.73402825  0.08764729  0.06803691  1
  Te  Te91  1  0.77534456  0.10963294  0.40821158  1
  Te  Te92  1  0.78330466  0.09484666  0.73040719  1
  Te  Te93  1  0.76475437  0.46074219  0.06499010  1
  Te  Te94  1  0.79119558  0.39483524  0.44284102  1
  Te  Te95  1  0.79634366  0.43752694  0.80419051  1
  Te  Te96  1  0.75541950  0.72809327  0.06816662  1
  Te  Te97  1  0.73858870  0.75694347  0.40695856  1
  Te  Te98  1  0.71936116  0.74116712  0.68636331  1
  Te  Te99  1  0.08821868  0.25350582  0.23817195  1
  Te  Te100  1  0.02105176  0.24111047  0.58724176  1
  Te  Te101  1  0.06528709  0.25417737  0.92992745  1
  Te  Te102  1  0.07873532  0.56697641  0.25464055  1
  Te  Te103  1  0.09042450  0.58578033  0.57585404  1
  Te  Te104  1  0.06870957  0.57039348  0.88876069  1
  Te  Te105  1  0.05699094  0.89971611  0.24473588  1
  Te  Te106  1  0.08925868  0.91292096  0.58296160  1
  Te  Te107  1  0.08412567  0.92688650  0.89375294  1
  Te  Te108  1  0.42021104  0.26269356  0.25324817  1
  Te  Te109  1  0.41148707  0.26245046  0.58574415  1
  Te  Te110  1  0.41610140  0.25717327  0.92136157  1
  Te  Te111  1  0.41772425  0.58069058  0.26690620  1
  Te  Te112  1  0.42396404  0.57050530  0.58510514  1
  Te  Te113  1  0.40990720  0.59576564  0.92278140  1
  Te  Te114  1  0.40827529  0.89457205  0.25205421  1
  Te  Te115  1  0.41828001  0.89003329  0.59625303  1
  Te  Te116  1  0.42994807  0.92900547  0.92740305  1
  Te  Te117  1  0.74758605  0.29178563  0.24284161  1
  Te  Te118  1  0.75739802  0.25589221  0.59940727  1
  Te  Te119  1  0.77260164  0.25533135  0.86986148  1
  Te  Te120  1  0.74650910  0.57918077  0.24190623  1
  Te  Te121  1  0.74903129  0.58686790  0.59823416  1
  Te  Te122  1  0.71034573  0.54201334  0.87608946  1
  Te  Te123  1  0.76152004  0.92326238  0.24891174  1
  Te  Te124  1  0.74109256  0.91518875  0.56599387  1
  Te  Te125  1  0.75257015  0.91822793  0.90671158  1
  Te  Te126  1  0.25685003  0.25405593  0.08179099  1
  Te  Te127  1  0.24533978  0.24669098  0.42690524  1
  Te  Te128  1  0.20694450  0.26178271  0.76367703  1
  Te  Te129  1  0.22959578  0.57333421  0.05732500  1
  Te  Te130  1  0.24305649  0.59657331  0.38014748  1
  Te  Te131  1  0.24967330  0.58959269  0.74754369  1
  Te  Te132  1  0.22299107  0.90732088  0.08835960  1
  Te  Te133  1  0.26299214  0.93990180  0.42252784  1
  Te  Te134  1  0.26947188  0.92596761  0.75512581  1
  Te  Te135  1  0.59738015  0.28163120  0.05292750  1
  Te  Te136  1  0.58673757  0.26255404  0.44255265  1
  Te  Te137  1  0.62343224  0.24829869  0.76395411  1
  Te  Te138  1  0.58578210  0.59233472  0.07134882  1
  Te  Te139  1  0.59043960  0.55498692  0.42414588  1
  Te  Te140  1  0.64022244  0.59555704  0.74526712  1
  Te  Te141  1  0.59351139  0.92382213  0.07133450  1
  Te  Te142  1  0.61040271  0.94844542  0.39631203  1
  Te  Te143  1  0.57823553  0.91254267  0.75172481  1
  Te  Te144  1  0.86607996  0.28114140  0.07197514  1
  Te  Te145  1  0.89561357  0.23081095  0.40126729  1
  Te  Te146  1  0.87717282  0.23476410  0.76280277  1
  Te  Te147  1  0.90192588  0.53843424  0.05725433  1
  Te  Te148  1  0.90218931  0.58184648  0.41023235  1
  Te  Te149  1  0.88094261  0.58003199  0.76014758  1
  Te  Te150  1  0.92560346  0.90985699  0.08078833  1
  Te  Te151  1  0.91858124  0.91833924  0.42641832  1
  Te  Te152  1  0.90268315  0.89597000  0.73426852  1
  Te  Te153  1  0.21998735  0.04854120  0.23924540  1
  Te  Te154  1  0.22212594  0.10835046  0.60718370  1
  Te  Te155  1  0.27142675  0.07340155  0.93575635  1
  Te  Te156  1  0.22719437  0.41292736  0.22957473  1
  Te  Te157  1  0.23821079  0.42539717  0.58453606  1
  Te  Te158  1  0.20957722  0.40614952  0.90026769  1
  Te  Te159  1  0.25012184  0.73292946  0.30217735  1
  Te  Te160  1  0.24461236  0.73962978  0.55791057  1
  Te  Te161  1  0.25514262  0.77352394  0.92125868  1
  Te  Te162  1  0.60027822  0.09073533  0.24435399  1
  Te  Te163  1  0.57643824  0.07625303  0.59810290  1
  Te  Te164  1  0.61319858  0.09472435  0.90508738  1
  Te  Te165  1  0.63374795  0.38520195  0.28492656  1
  Te  Te166  1  0.59020005  0.41069600  0.60953509  1
  Te  Te167  1  0.60520435  0.43116480  0.90290243  1
  Te  Te168  1  0.58422946  0.76255981  0.23824580  1
  Te  Te169  1  0.62410299  0.79144452  0.57715603  1
  Te  Te170  1  0.60220747  0.75237524  0.91945655  1
  Te  Te171  1  0.90995414  0.11003055  0.22974360  1
  Te  Te172  1  0.94436924  0.08996461  0.59054597  1
  Te  Te173  1  0.89695753  0.09994951  0.93870883  1
  Te  Te174  1  0.94139134  0.42746259  0.23782642  1
  Te  Te175  1  0.92412006  0.42932914  0.61235067  1
  Te  Te176  1  0.95207381  0.36174557  0.95597301  1
  Te  Te177  1  0.91346140  0.73848578  0.22605094  1
  Te  Te178  1  0.92660704  0.74845271  0.58197562  1
  Te  Te179  1  0.88629361  0.72504940  0.88828628  1
