# generated using pymatgen
data_In2Te3
_symmetry_space_group_name_H-M   'P 1'
_cell_length_a   18.90174833
_cell_length_b   18.90224853
_cell_length_c   18.88415454
_cell_angle_alpha   89.97071604
_cell_angle_beta   90.01548830
_cell_angle_gamma   90.05700845
_symmetry_Int_Tables_number   1
_chemical_formula_structural   In2Te3
_chemical_formula_sum   'In72 Te108'
_cell_volume   6747.03097354
_cell_formula_units_Z   36
loop_
 _symmetry_equiv_pos_site_id
 _symmetry_equiv_pos_as_xyz
  1  'x, y, z'
loop_
 _atom_site_type_symbol
 _atom_site_label
 _atom_site_symmetry_multiplicity
 _atom_site_fract_x
 _atom_site_fract_y
 _atom_site_fract_z
 _atom_site_occupancy
  In  In0  1  0.82618718  0.00515717  0.84539532  1
  In  In1  1  0.49094940  0.31854046  0.84478942  1
  In  In2  1  0.51001905  0.18776135  0.32835533  1
  In  In3  1  -0.01735094  -0.00432654  0.00182960  1
  In  In4  1  0.83878745  0.01148209  0.16874145  1
  In  In5  1  0.14636276  0.50165080  0.66174136  1
  In  In6  1  0.66231508  0.15844480  0.53142347  1
  In  In7  1  0.18211299  0.84075840  -0.00369762  1
  In  In8  1  0.68719581  0.65691978  0.30169560  1
  In  In9  1  0.82351873  0.50210744  0.02608044  1
  In  In10  1  -0.02583612  0.37046383  0.31603590  1
  In  In11  1  0.33069513  0.82365934  0.83628234  1
  In  In12  1  0.66427077  0.84143646  0.49135208  1
  In  In13  1  0.46974878  0.00148122  0.16490010  1
  In  In14  1  0.50753401  0.51216404  0.01562698  1
  In  In15  1  -0.01352150  0.51490229  0.49736709  1
  In  In16  1  0.00930924  0.31638247  0.00622537  1
  In  In17  1  0.67227570  0.50816397  0.80455772  1
  In  In18  1  0.32081938  0.31299722  0.66218731  1
  In  In19  1  0.65884091  0.18980829  0.15612112  1
  In  In20  1  0.33799639  0.50250342  0.46565656  1
  In  In21  1  0.30548391  0.68715632  0.65123624  1
  In  In22  1  0.00716132  0.00531861  0.64417616  1
  In  In23  1  0.67402089  0.34049911  0.65461501  1
  In  In24  1  0.17054974  0.14276697  -0.02264759  1
  In  In25  1  -0.01114708  0.64335675  -0.00832910  1
  In  In26  1  0.84224693  0.15888860  0.01036797  1
  In  In27  1  0.17552787  0.52433016  0.32568951  1
  In  In28  1  0.34272520  0.17010199  0.50270333  1
  In  In29  1  0.33650474  -0.00511232  -0.00136849  1
  In  In30  1  0.01082364  0.16610763  0.16198912  1
  In  In31  1  0.00932896  0.82064337  0.82590562  1
  In  In32  1  0.50100142  0.67390689  0.16558185  1
  In  In33  1  0.51870450  0.66960039  0.48561165  1
  In  In34  1  0.19544600  0.13320461  0.69296408  1
  In  In35  1  0.82925570  0.48037245  0.64784379  1
  In  In36  1  0.33683286  0.31423099  -0.00282653  1
  In  In37  1  -0.01362573  0.18112542  0.50494066  1
  In  In38  1  0.65917837  0.15908281  0.84908552  1
  In  In39  1  0.01106422  0.68446934  0.66155237  1
  In  In40  1  0.34527066  0.68044733  0.31232974  1
  In  In41  1  0.50071836  0.52488222  0.68207617  1
  In  In42  1  0.28783714  -0.03856448  0.31570333  1
  In  In43  1  0.16717826  -0.03207355  0.49059549  1
  In  In44  1  0.15850259  0.51224764  -0.00044015  1
  In  In45  1  -0.00507130  0.46040252  0.82668528  1
  In  In46  1  0.48950645  0.00344387  0.51761894  1
  In  In47  1  0.68484987  0.50749594  0.47445006  1
  In  In48  1  0.15932258  0.66210153  0.15863702  1
  In  In49  1  0.33757543  0.69371821  0.02379540  1
  In  In50  1  0.65860006  0.01440288  0.36891231  1
  In  In51  1  0.83437979  0.81675704  0.33179184  1
  In  In52  1  0.64283458  0.70673258  -0.01145611  1
  In  In53  1  0.03591834  -0.03388914  0.30469470  1
  In  In54  1  0.33594755  0.32319004  0.32467195  1
  In  In55  1  0.83359479  0.67054040  0.81607143  1
  In  In56  1  0.82862660  0.82464690  0.65540692  1
  In  In57  1  -0.01435033  0.67211918  0.32960576  1
  In  In58  1  0.33302500  0.50350384  0.85527288  1
  In  In59  1  0.67581626  0.33495916  0.00214615  1
  In  In60  1  0.16971337  0.14536099  0.33644110  1
  In  In61  1  0.52088861  0.33033928  0.15769887  1
  In  In62  1  0.01317826  0.82970575  0.49596216  1
  In  In63  1  0.64121945  -0.01604124  -0.03461822  1
  In  In64  1  0.15891636  0.34372280  0.15907041  1
  In  In65  1  0.40494474  -0.03231965  0.72431074  1
  In  In66  1  0.47429920  0.33731701  0.51516328  1
  In  In67  1  0.69162082  0.33993520  0.32379369  1
  In  In68  1  0.82754247  0.00584526  0.50704343  1
  In  In69  1  0.65756096  0.68740026  0.67983566  1
  In  In70  1  0.67487577  0.83054260  0.16506626  1
  In  In71  1  0.13487261  0.33357405  0.52634584  1
  Te  Te72  1  0.09052684  0.06588159  0.08536452  1
  Te  Te73  1  0.07324580  0.07354839  0.42966867  1
  Te  Te74  1  0.07554865  0.07294015  0.75471469  1
  Te  Te75  1  0.06161141  0.43520112  0.08805376  1
  Te  Te76  1  0.09062213  0.42738769  0.41200964  1
  Te  Te77  1  0.11095503  0.39055560  0.75512393  1
  Te  Te78  1  0.08004793  0.74670773  0.06204072  1
  Te  Te79  1  0.08854264  0.75135770  0.39866230  1
  Te  Te80  1  0.10992276  0.74263369  0.75246457  1
  Te  Te81  1  0.42333497  0.09599880  0.06395244  1
  Te  Te82  1  0.42191353  0.08913054  0.40344100  1
  Te  Te83  1  0.42520023  0.10108524  0.78792513  1
  Te  Te84  1  0.41491489  0.41281784  0.08307617  1
  Te  Te85  1  0.43760269  0.41654679  0.38934467  1
  Te  Te86  1  0.41410191  0.41672149  0.74740351  1
  Te  Te87  1  0.41638197  0.78391104  0.11062995  1
  Te  Te88  1  0.41736094  0.75312852  0.42020397  1
  Te  Te89  1  0.41225370  0.74272392  0.73865751  1
  Te  Te90  1  0.73413614  0.07379877  0.07391899  1
  Te  Te91  1  0.76241848  0.11053370  0.41833324  1
  Te  Te92  1  0.73817581  0.07820975  0.75467125  1
  Te  Te93  1  0.73813029  0.41292635  0.11268303  1
  Te  Te94  1  0.77112004  0.39569449  0.43599994  1
  Te  Te95  1  0.76693237  0.39972259  0.76253655  1
  Te  Te96  1  0.75378885  0.74393795  0.07747364  1
  Te  Te97  1  0.74554306  0.73506975  0.42340679  1
  Te  Te98  1  0.73704292  0.78015015  0.77029372  1
  Te  Te99  1  0.08547572  0.25871224  0.26517202  1
  Te  Te100  1  0.09078745  0.21820454  0.60945118  1
  Te  Te101  1  0.08154087  0.23703776  0.90700513  1
  Te  Te102  1  0.06344100  0.57478873  0.23883468  1
  Te  Te103  1  0.09304136  0.60245864  0.56161953  1
  Te  Te104  1  0.07744699  0.57578482  0.88864282  1
  Te  Te105  1  0.15914391  0.90757175  0.24590415  1
  Te  Te106  1  0.10034862  0.89064301  0.60762082  1
  Te  Te107  1  0.08202590  0.92100901  0.91317074  1
  Te  Te108  1  0.41396140  0.24134005  0.22379097  1
  Te  Te109  1  0.43431917  0.22489380  0.61061138  1
  Te  Te110  1  0.38865184  0.21858236  0.89126236  1
  Te  Te111  1  0.41662674  0.57688474  0.23717831  1
  Te  Te112  1  0.41313967  0.58619600  0.57340816  1
  Te  Te113  1  0.42142356  0.60224278  0.92921727  1
  Te  Te114  1  0.40358454  0.89623311  0.24453462  1
  Te  Te115  1  0.38999817  0.91765521  0.58471932  1
  Te  Te116  1  0.42598540  0.88752632  0.93706491  1
  Te  Te117  1  0.75916507  0.22941846  0.25419969  1
  Te  Te118  1  0.76587532  0.24706646  0.58993518  1
  Te  Te119  1  0.76476412  0.24885021  0.91510255  1
  Te  Te120  1  0.79972666  0.56648400  0.26818863  1
  Te  Te121  1  0.73728991  0.58932598  0.59290980  1
  Te  Te122  1  0.75171331  0.58325494  0.91075980  1
  Te  Te123  1  0.74711262  0.92898201  0.27109809  1
  Te  Te124  1  0.73265743  0.92779167  0.59655286  1
  Te  Te125  1  0.76318400  0.90860811  0.93564651  1
  Te  Te126  1  0.23549154  0.23920455  0.08245085  1
  Te  Te127  1  0.24342887  0.25857128  0.42834821  1
  Te  Te128  1  0.25136791  0.24610145  0.77227968  1
  Te  Te129  1  0.26340619  0.57580981  0.08870793  1
  Te  Te130  1  0.24839466  0.61429905  0.42135823  1
  Te  Te131  1  0.25500763  0.57284374  0.74417723  1
  Te  Te132  1  0.24703699  0.92626300  0.09776521  1
  Te  Te133  1  0.26501833  0.86805239  0.43468201  1
  Te  Te134  1  0.26240282  0.93793816  0.76867994  1
  Te  Te135  1  0.56694119  0.23725931  0.04445741  1
  Te  Te136  1  0.58371287  0.26122494  0.43823745  1
  Te  Te137  1  0.58953415  0.25556547  0.75038419  1
  Te  Te138  1  0.60956622  0.59611895  0.08909741  1
  Te  Te139  1  0.58435450  0.57607184  0.38550174  1
  Te  Te140  1  0.56841456  0.61718410  0.78194531  1
  Te  Te141  1  0.58092898  0.92262469  0.09075819  1
  Te  Te142  1  0.55640903  0.91258548  0.41215293  1
  Te  Te143  1  0.51146013  0.87408431  0.78082481  1
  Te  Te144  1  0.90555027  0.25838994  0.10527782  1
  Te  Te145  1  0.91657650  0.27569752  0.41467224  1
  Te  Te146  1  0.96207173  0.34519991  0.73364786  1
  Te  Te147  1  0.89962533  0.60278437  0.10264396  1
  Te  Te148  1  0.89100126  0.57826760  0.40206777  1
  Te  Te149  1  0.91980453  0.57820248  0.73106052  1
  Te  Te150  1  0.92280861  0.90824626  0.10574191  1
  Te  Te151  1  0.91753823  0.92223214  0.41770546  1
  Te  Te152  1  0.91929446  0.91252456  0.73993224  1
  Te  Te153  1  0.26835821  0.09068825  0.24569756  1
  Te  Te154  1  0.25582857  0.06639051  0.57035006  1
  Te  Te155  1  0.24697683  0.04737447  0.88983217  1
  Te  Te156  1  0.25644603  0.42467493  0.24318197  1
  Te  Te157  1  0.25891445  0.42339240  0.57215525  1
  Te  Te158  1  0.23899870  0.40655730  0.92411718  1
  Te  Te159  1  0.23491738  0.75660773  0.24396018  1
  Te  Te160  1  0.24098692  0.79111011  0.56994798  1
  Te  Te161  1  0.23956074  0.72734521  0.91284379  1
  Te  Te162  1  0.58789520  0.08159344  0.24937465  1
  Te  Te163  1  0.58392898  0.06444950  0.61273285  1
  Te  Te164  1  0.54535386  0.06364361  0.88145138  1
  Te  Te165  1  0.60680397  0.42238201  0.23466221  1
  Te  Te166  1  0.57774218  0.43750617  0.58186313  1
  Te  Te167  1  0.58373076  0.42821161  0.91034039  1
  Te  Te168  1  0.58405516  0.76028794  0.26348869  1
  Te  Te169  1  0.57007631  0.77071557  0.58904158  1
  Te  Te170  1  0.55249610  0.79608272  0.91163658  1
  Te  Te171  1  0.93874303  0.07782211  0.26284519  1
  Te  Te172  1  0.89703136  0.10155606  0.60303185  1
  Te  Te173  1  0.93089855  0.10003833  0.90257843  1
  Te  Te174  1  0.87010167  0.43144655  0.23146547  1
  Te  Te175  1  0.94343282  0.40162896  0.58765202  1
  Te  Te176  1  0.90551216  0.40795158  0.93905257  1
  Te  Te177  1  0.93526406  0.77543744  0.23356574  1
  Te  Te178  1  0.90832814  0.73804369  0.56164216  1
  Te  Te179  1  0.91030138  0.75289161  0.91816757  1
