# generated using pymatgen
data_In2Te3
_symmetry_space_group_name_H-M   'P 1'
_cell_length_a   18.96199013
_cell_length_b   18.99955557
_cell_length_c   18.96460668
_cell_angle_alpha   90.13130404
_cell_angle_beta   90.00115752
_cell_angle_gamma   89.95658622
_symmetry_Int_Tables_number   1
_chemical_formula_structural   In2Te3
_chemical_formula_sum   'In72 Te108'
_cell_volume   6832.34728639
_cell_formula_units_Z   36
loop_
 _symmetry_equiv_pos_site_id
 _symmetry_equiv_pos_as_xyz
  1  'x, y, z'
loop_
 _atom_site_type_symbol
 _atom_site_label
 _atom_site_symmetry_multiplicity
 _atom_site_fract_x
 _atom_site_fract_y
 _atom_site_fract_z
 _atom_site_occupancy
  In  In0  1  0.51067010  0.00502069  0.84609264  1
  In  In1  1  0.19246057  0.02297815  0.18829741  1
  In  In2  1  0.67596496  0.82851408  0.16462698  1
  In  In3  1  0.80212230  0.82452761  0.66812881  1
  In  In4  1  0.50659968  0.85203319  0.02087113  1
  In  In5  1  0.64425555  0.01141157  0.68397256  1
  In  In6  1  0.35318070  0.83100393  0.84468226  1
  In  In7  1  0.67994614  0.64684356  0.32868716  1
  In  In8  1  0.88627835  0.47988177  0.29911884  1
  In  In9  1  0.82087963  0.04115898  0.48100662  1
  In  In10  1  -0.02238323  -0.00491041  0.68625926  1
  In  In11  1  0.68402926  0.49333377  0.48439538  1
  In  In12  1  0.03250123  0.20370836  0.50066953  1
  In  In13  1  0.17853135  0.02646098  0.49681433  1
  In  In14  1  0.16543860  0.38109566  0.83184749  1
  In  In15  1  0.50242696  0.49194054  0.66863073  1
  In  In16  1  -0.02407679  0.81282398  0.16720391  1
  In  In17  1  0.67732286  0.32096317  0.67787830  1
  In  In18  1  0.84511968  0.64636748  0.48660005  1
  In  In19  1  0.31317488  0.46929082  0.47374642  1
  In  In20  1  0.67567502  0.82891316  0.86605789  1
  In  In21  1  0.81977421  0.81528603  0.32226976  1
  In  In22  1  0.70070722  0.49104808  0.15042815  1
  In  In23  1  0.49611683  0.66915230  0.81157532  1
  In  In24  1  0.49675198  0.68918213  0.17539535  1
  In  In25  1  0.47710604  0.67835244  0.48693078  1
  In  In26  1  0.00955315  0.62599586  0.65453151  1
  In  In27  1  0.13759208  0.50151590  0.29497283  1
  In  In28  1  0.64785146  0.86663564  0.48978653  1
  In  In29  1  0.52109049  0.52680399  -0.02414226  1
  In  In30  1  0.33190006  0.84166340  0.50421450  1
  In  In31  1  0.33649407  0.33420208  -0.01719727  1
  In  In32  1  0.17112389  0.64605793  0.80827873  1
  In  In33  1  0.18083338  0.82618083  0.66128576  1
  In  In34  1  0.31370589  0.67757879  0.33046121  1
  In  In35  1  -0.00843294  0.49161867  0.82883888  1
  In  In36  1  0.46411790  0.16375076  0.62586230  1
  In  In37  1  0.32405311  0.86220091  0.18705339  1
  In  In38  1  0.32358562  0.31222465  0.34427362  1
  In  In39  1  0.00957997  0.17300138  0.18907212  1
  In  In40  1  0.15962815  -0.00594261  0.84769318  1
  In  In41  1  0.34252304  0.51913320  0.15082791  1
  In  In42  1  0.18372397  0.19343597  -0.00113264  1
  In  In43  1  0.14437080  0.83411422  0.02397279  1
  In  In44  1  0.32348442  0.65693139  -0.01039994  1
  In  In45  1  0.86370162  0.47594031  0.65674490  1
  In  In46  1  0.66374027  0.33181348  0.31500753  1
  In  In47  1  0.02817185  0.17518361  0.84614573  1
  In  In48  1  0.11502477  0.51878986  0.02831088  1
  In  In49  1  0.83481213  0.18338576  0.64814058  1
  In  In50  1  0.34504548  0.17819422  0.82045425  1
  In  In51  1  0.50168016  0.13811797  0.04381716  1
  In  In52  1  0.49687940  0.33327285  0.17624497  1
  In  In53  1  0.81598274  -0.01161443  0.85763185  1
  In  In54  1  0.02220903  0.44049002  0.49692124  1
  In  In55  1  0.64571454  0.67349804  0.65777335  1
  In  In56  1  0.17098277  0.32831464  0.15988352  1
  In  In57  1  0.00666156  0.82894710  0.50641849  1
  In  In58  1  0.83727690  0.18604341  0.32997894  1
  In  In59  1  0.69895863  0.66339888  -0.00158317  1
  In  In60  1  0.83538252  0.16460640  0.02616661  1
  In  In61  1  0.65725384  0.17180702  0.84830023  1
  In  In62  1  -0.00210813  -0.00809941  0.02139780  1
  In  In63  1  0.52719426  0.34542001  0.84584423  1
  In  In64  1  0.13717758  0.82869260  0.33517752  1
  In  In65  1  0.85149143  0.32768381  0.84503894  1
  In  In66  1  0.31185320  0.01488652  0.62510544  1
  In  In67  1  -0.01080068  -0.00797086  0.33999328  1
  In  In68  1  0.31281891  0.64709404  0.66448053  1
  In  In69  1  0.65961404  0.15951323  0.17264676  1
  In  In70  1  0.33806047  0.32692347  0.65138997  1
  In  In71  1  0.49319269  0.03131555  0.46465636  1
  Te  Te72  1  0.10104573  0.09219630  0.07840529  1
  Te  Te73  1  0.08200285  0.09381668  0.40106337  1
  Te  Te74  1  0.09051077  0.08058207  0.74357528  1
  Te  Te75  1  0.05337624  0.41057637  0.11638570  1
  Te  Te76  1  0.08854209  0.38603709  0.37200231  1
  Te  Te77  1  0.06008563  0.40358174  0.72956020  1
  Te  Te78  1  0.04684891  0.73355821  0.06460386  1
  Te  Te79  1  0.08419347  0.73190471  0.43079183  1
  Te  Te80  1  0.07989435  0.74196613  0.73300173  1
  Te  Te81  1  0.38684328  0.08200856  0.11606520  1
  Te  Te82  1  0.36600254  0.09446908  0.41651851  1
  Te  Te83  1  0.41797305  0.06870581  0.74279954  1
  Te  Te84  1  0.43239340  0.43044515  0.06364476  1
  Te  Te85  1  0.42441832  0.40347452  0.40482764  1
  Te  Te86  1  0.41910902  0.40458642  0.76025431  1
  Te  Te87  1  0.39434329  0.75640924  0.08390634  1
  Te  Te88  1  0.41213277  0.77700408  0.39145672  1
  Te  Te89  1  0.40528626  0.75292244  0.72444424  1
  Te  Te90  1  0.74547140  0.07163428  0.09116717  1
  Te  Te91  1  0.72599385  0.11244505  0.39597111  1
  Te  Te92  1  0.75752646  0.09284211  0.75543739  1
  Te  Te93  1  0.81316945  0.41447659  0.09169999  1
  Te  Te94  1  0.76667832  0.42179668  0.38227594  1
  Te  Te95  1  0.76476025  0.41587688  0.75608824  1
  Te  Te96  1  0.77681730  0.73320140  0.10804137  1
  Te  Te97  1  0.73834009  0.74651773  0.44106144  1
  Te  Te98  1  0.73741040  0.73099078  0.76753707  1
  Te  Te99  1  0.10687935  0.25109194  0.26986881  1
  Te  Te100  1  0.08840542  0.30747050  0.58970413  1
  Te  Te101  1  0.08857800  0.28630860  0.92783566  1
  Te  Te102  1  0.05181890  0.61196502  0.24495341  1
  Te  Te103  1  0.09589548  0.54668445  0.57014696  1
  Te  Te104  1  0.06621770  0.59950876  0.90497257  1
  Te  Te105  1  0.07747345  0.92934499  0.23192543  1
  Te  Te106  1  0.08957455  0.92746657  0.58939086  1
  Te  Te107  1  0.06190847  0.90089715  0.91393229  1
  Te  Te108  1  0.43826311  0.23715429  0.27331009  1
  Te  Te109  1  0.43470328  0.28295292  0.54738175  1
  Te  Te110  1  0.43915226  0.23181214  0.92718324  1
  Te  Te111  1  0.41845488  0.59132538  0.26065927  1
  Te  Te112  1  0.41152545  0.56771750  0.57127353  1
  Te  Te113  1  0.40386160  0.57663915  0.88987906  1
  Te  Te114  1  0.41786598  0.97204218  0.21867822  1
  Te  Te115  1  0.42857365  0.93574518  0.57146255  1
  Te  Te116  1  0.41096482  0.93643818  0.93749385  1
  Te  Te117  1  0.76192841  0.26271427  0.22074962  1
  Te  Te118  1  0.73635908  0.24929378  0.56384030  1
  Te  Te119  1  0.75098834  0.25359926  0.93234206  1
  Te  Te120  1  0.78393449  0.58066938  0.24223921  1
  Te  Te121  1  0.75256422  0.58015000  0.59112293  1
  Te  Te122  1  0.79514733  0.55299362  0.95830103  1
  Te  Te123  1  0.73958478  0.92007748  0.26361140  1
  Te  Te124  1  0.74891616  0.94214815  0.58778757  1
  Te  Te125  1  0.75932618  0.90200149  0.96161789  1
  Te  Te126  1  0.28583149  0.24811826  0.09747264  1
  Te  Te127  1  0.27064374  0.21453289  0.44376573  1
  Te  Te128  1  0.24297663  0.26768147  0.76024948  1
  Te  Te129  1  0.23029526  0.60213989  0.09451086  1
  Te  Te130  1  0.23061379  0.57102116  0.39808699  1
  Te  Te131  1  0.24140368  0.54066245  0.73522764  1
  Te  Te132  1  0.24568925  0.93116305  0.07534832  1
  Te  Te133  1  0.23786073  0.91528319  0.41129822  1
  Te  Te134  1  0.25950679  0.91975997  0.75158951  1
  Te  Te135  1  0.58619360  0.25919208  0.07971831  1
  Te  Te136  1  0.58312995  0.22099505  0.37543838  1
  Te  Te137  1  0.56704172  0.23282838  0.74233223  1
  Te  Te138  1  0.58879192  0.59652187  0.09788929  1
  Te  Te139  1  0.57842033  0.58182796  0.42149793  1
  Te  Te140  1  0.59738742  0.56916175  0.75869516  1
  Te  Te141  1  0.57039278  0.92799132  0.12747480  1
  Te  Te142  1  0.58254815  0.94414722  0.38552564  1
  Te  Te143  1  0.58285391  0.89935430  0.76443651  1
  Te  Te144  1  0.95054252  0.24196002  0.07301910  1
  Te  Te145  1  0.91720034  0.26493560  0.42817847  1
  Te  Te146  1  0.93182070  0.24418694  0.74674319  1
  Te  Te147  1  0.99434218  0.56226830  0.11572344  1
  Te  Te148  1  0.94070867  0.55337877  0.42240490  1
  Te  Te149  1  0.90104345  0.58804639  0.75265378  1
  Te  Te150  1  0.89775231  0.91148091  0.09086089  1
  Te  Te151  1  0.90034903  0.91220642  0.43400360  1
  Te  Te152  1  0.89727113  0.89494530  0.76554721  1
  Te  Te153  1  0.29460357  0.08297958  0.27696884  1
  Te  Te154  1  0.23528297  0.13452580  0.58413270  1
  Te  Te155  1  0.25662605  0.09292714  0.91102164  1
  Te  Te156  1  0.26993824  0.41975638  0.23869024  1
  Te  Te157  1  0.23068456  0.38366771  0.56333375  1
  Te  Te158  1  0.23087943  0.43770733  0.95650538  1
  Te  Te159  1  0.22640226  0.75633407  0.23465503  1
  Te  Te160  1  0.24242941  0.73204749  0.55999026  1
  Te  Te161  1  0.23816804  0.75509288  0.90864912  1
  Te  Te162  1  0.55382782  0.11871760  0.26915869  1
  Te  Te163  1  0.58779697  0.09490408  0.57234409  1
  Te  Te164  1  0.60346016  0.06902284  0.94502709  1
  Te  Te165  1  0.58631260  0.43840124  0.23952607  1
  Te  Te166  1  0.59862155  0.41345616  0.58197758  1
  Te  Te167  1  0.61584388  0.42549375  0.92901213  1
  Te  Te168  1  0.59061083  0.75469878  0.27274088  1
  Te  Te169  1  0.56397028  0.76860077  0.57391941  1
  Te  Te170  1  0.56207594  0.74179511  0.92922518  1
  Te  Te171  1  0.90666818  0.07773715  0.24670694  1
  Te  Te172  1  0.93809059  0.08912252  0.57182841  1
  Te  Te173  1  0.92764916  0.08192130  0.91215666  1
  Te  Te174  1  0.90326905  0.36552553  0.20416833  1
  Te  Te175  1  0.89360086  0.38084024  0.54946223  1
  Te  Te176  1  0.91198832  0.42809959  0.93836494  1
  Te  Te177  1  0.93547413  0.73142104  0.28512493  1
  Te  Te178  1  0.90946215  0.74533897  0.59223302  1
  Te  Te179  1  0.84495883  0.69470248  0.96327257  1
