# generated using pymatgen
data_In2Te3
_symmetry_space_group_name_H-M   'P 1'
_cell_length_a   18.96041421
_cell_length_b   18.94934461
_cell_length_c   18.94898151
_cell_angle_alpha   90.16581731
_cell_angle_beta   89.98813813
_cell_angle_gamma   89.86376600
_symmetry_Int_Tables_number   1
_chemical_formula_structural   In2Te3
_chemical_formula_sum   'In72 Te108'
_cell_volume   6808.08281923
_cell_formula_units_Z   36
loop_
 _symmetry_equiv_pos_site_id
 _symmetry_equiv_pos_as_xyz
  1  'x, y, z'
loop_
 _atom_site_type_symbol
 _atom_site_label
 _atom_site_symmetry_multiplicity
 _atom_site_fract_x
 _atom_site_fract_y
 _atom_site_fract_z
 _atom_site_occupancy
  In  In0  1  0.31138594  0.63373424  0.01393376  1
  In  In1  1  0.32253064  -0.01296831  0.69093945  1
  In  In2  1  -0.00280438  0.36536298  0.34238335  1
  In  In3  1  0.52152508  0.32735791  0.84256879  1
  In  In4  1  0.82974036  0.67074350  0.16169476  1
  In  In5  1  0.81879839  0.65726039  0.49647786  1
  In  In6  1  0.49534294  0.66774654  0.81670985  1
  In  In7  1  0.82308013  0.15610763  -0.00541603  1
  In  In8  1  0.52950103  0.81958993  0.66530937  1
  In  In9  1  0.48854911  0.00891887  0.85226327  1
  In  In10  1  0.64931232  0.32685233  0.01593958  1
  In  In11  1  -0.01295262  0.19055728  0.17427785  1
  In  In12  1  0.16466907  -0.02519344  0.48468098  1
  In  In13  1  0.66089345  0.32799698  0.65006449  1
  In  In14  1  0.34919681  -0.01587695  -0.01835468  1
  In  In15  1  0.33758602  0.16693613  0.17948664  1
  In  In16  1  0.32871701  0.18233126  0.84656427  1
  In  In17  1  0.83424109  0.51669557  -0.01089642  1
  In  In18  1  0.18293694  0.22947573  -0.00628984  1
  In  In19  1  0.68869389  0.81786344  0.82601457  1
  In  In20  1  -0.01210498  0.01886046  -0.00546621  1
  In  In21  1  0.34817377  0.36895585  0.00269207  1
  In  In22  1  0.64058151  0.66655862  0.34390873  1
  In  In23  1  0.49683480  0.51332518  0.66165126  1
  In  In24  1  0.00319165  0.17192055  0.52744889  1
  In  In25  1  0.67470346  0.65513896  0.00436662  1
  In  In26  1  0.65024296  -0.02463644  0.34818485  1
  In  In27  1  0.19461069  0.47979319  0.33147177  1
  In  In28  1  -0.01852299  0.68736745  0.70244398  1
  In  In29  1  0.83755145  0.82976263  0.30745188  1
  In  In30  1  -0.03109582  -0.02935638  0.70005251  1
  In  In31  1  0.83374524  0.33502325  0.20144700  1
  In  In32  1  0.18654328  0.16527860  0.68535410  1
  In  In33  1  0.17327217  0.81750081  -0.02500520  1
  In  In34  1  0.68454678  0.15303012  0.82951553  1
  In  In35  1  0.84667420  0.52092067  0.66082656  1
  In  In36  1  0.34151895  0.50854190  0.82540118  1
  In  In37  1  0.51185488  0.01654309  0.17847310  1
  In  In38  1  0.86612944  0.34085871  0.83033057  1
  In  In39  1  0.65205230  0.16063691  0.50200215  1
  In  In40  1  0.33993385  0.50498458  0.51578546  1
  In  In41  1  0.52778171  -0.00825880  0.51276378  1
  In  In42  1  0.01744890  0.33793499  0.67051234  1
  In  In43  1  0.17804747  0.69312879  0.52810009  1
  In  In44  1  0.67200922  -0.00701427  -0.01307023  1
  In  In45  1  0.65667801  0.50514608  0.16994998  1
  In  In46  1  0.67107417  0.50129035  0.83753922  1
  In  In47  1  0.16842362  0.63411426  0.18019760  1
  In  In48  1  -0.01505899  0.82877727  0.13484706  1
  In  In49  1  0.16711360  -0.00818259  0.82163346  1
  In  In50  1  0.82410077  0.36838789  0.44481448  1
  In  In51  1  0.81451218  0.15720610  0.65940134  1
  In  In52  1  0.66353649  0.81378256  0.18076036  1
  In  In53  1  0.16837756  0.19120837  0.30590599  1
  In  In54  1  0.49484304  0.51622386  0.32977422  1
  In  In55  1  0.00034279  0.51481165  0.50123324  1
  In  In56  1  -0.01233025  0.01960594  0.34832892  1
  In  In57  1  0.47438725  0.84044403  -0.00789331  1
  In  In58  1  0.33562594  0.17339416  0.49348883  1
  In  In59  1  0.82591907  0.16191538  0.33042565  1
  In  In60  1  0.32526141  0.84785346  0.17218795  1
  In  In61  1  0.17539198  0.48517980  0.64980475  1
  In  In62  1  0.36226897  0.68100753  0.35577575  1
  In  In63  1  0.48846513  0.32445890  0.49583065  1
  In  In64  1  0.48134863  0.33552991  0.17203109  1
  In  In65  1  -0.00786331  0.69617494  -0.04069796  1
  In  In66  1  0.16687047  0.83296306  0.35844884  1
  In  In67  1  0.16227997  0.65177880  0.81903774  1
  In  In68  1  0.12807491  0.00186513  0.15877201  1
  In  In69  1  0.79395807  -0.04723468  0.52921811  1
  In  In70  1  0.02138964  0.82395559  0.49655935  1
  In  In71  1  0.33645655  -0.01018271  0.35267884  1
  Te  Te72  1  0.08476238  0.11894100  0.07364834  1
  Te  Te73  1  0.09777638  0.10088368  0.41679613  1
  Te  Te74  1  0.07420891  0.07853271  0.74006363  1
  Te  Te75  1  0.08682076  0.34098948  -0.01778509  1
  Te  Te76  1  0.09987538  0.41808839  0.43938681  1
  Te  Te77  1  0.07490238  0.44603495  0.75244690  1
  Te  Te78  1  0.10906406  0.75209245  0.09573450  1
  Te  Te79  1  0.08162521  0.71829663  0.40700402  1
  Te  Te80  1  0.08794673  0.76804249  0.76445158  1
  Te  Te81  1  0.41550995  0.08048268  0.07900404  1
  Te  Te82  1  0.43329386  0.07844542  0.42473686  1
  Te  Te83  1  0.41138414  0.09497880  0.75305259  1
  Te  Te84  1  0.43314202  0.44743058  0.09227408  1
  Te  Te85  1  0.40766435  0.42112749  0.41051873  1
  Te  Te86  1  0.43168345  0.40926410  0.75143971  1
  Te  Te87  1  0.39355075  0.74858135  0.08110887  1
  Te  Te88  1  0.43837256  0.78654156  0.42074430  1
  Te  Te89  1  0.41542718  0.73920356  0.71685074  1
  Te  Te90  1  0.72349739  0.09399989  0.08062626  1
  Te  Te91  1  0.75762310  0.06431587  0.42525571  1
  Te  Te92  1  0.75538962  0.05454290  0.74549922  1
  Te  Te93  1  0.75158324  0.42618520  0.08033915  1
  Te  Te94  1  0.72360431  0.44051811  0.37117689  1
  Te  Te95  1  0.75100212  0.40870817  0.74570721  1
  Te  Te96  1  0.75626142  0.76537540  0.07058815  1
  Te  Te97  1  0.74740383  0.75830127  0.40371244  1
  Te  Te98  1  0.77296705  0.75509903  0.71921838  1
  Te  Te99  1  0.08052182  0.29217630  0.23403540  1
  Te  Te100  1  0.11451776  0.25586032  0.58388319  1
  Te  Te101  1  0.10029421  0.24634395  0.86623029  1
  Te  Te102  1  0.08338639  0.54149580  0.25587041  1
  Te  Te103  1  0.07837972  0.60123957  0.60059686  1
  Te  Te104  1  0.09262834  0.59289302  0.93529132  1
  Te  Te105  1  0.07207380  0.91394732  0.26837584  1
  Te  Te106  1  0.07474301  0.92411760  0.59508127  1
  Te  Te107  1  0.07590734  0.91817485  0.91807109  1
  Te  Te108  1  0.41126072  0.25305603  0.27332832  1
  Te  Te109  1  0.41741473  0.24083774  0.59393751  1
  Te  Te110  1  0.42604650  0.25537828  0.93647816  1
  Te  Te111  1  0.39277939  0.58566596  0.24951647  1
  Te  Te112  1  0.43102799  0.60958487  0.56899740  1
  Te  Te113  1  0.42834241  0.58511943  0.92292464  1
  Te  Te114  1  0.42923125  0.91465417  0.25736939  1
  Te  Te115  1  0.42850576  0.92290103  0.60563316  1
  Te  Te116  1  0.39245597  0.88945791  0.87368298  1
  Te  Te117  1  0.73299868  0.24672025  0.25728705  1
  Te  Te118  1  0.76366555  0.26042469  0.55842733  1
  Te  Te119  1  0.74540760  0.27182822  0.90604431  1
  Te  Te120  1  0.74679974  0.59112194  0.25861142  1
  Te  Te121  1  0.73812357  0.56101785  0.57345383  1
  Te  Te122  1  0.76548219  0.60851589  0.89025571  1
  Te  Te123  1  0.74527469  0.92801920  0.23865203  1
  Te  Te124  1  0.71096678  0.84702499  0.60513089  1
  Te  Te125  1  0.76991612  0.90671123  0.91529574  1
  Te  Te126  1  0.26005911  0.28506294  0.11930625  1
  Te  Te127  1  0.26618668  0.25951330  0.39282458  1
  Te  Te128  1  0.23650187  0.27448730  0.77404489  1
  Te  Te129  1  0.21709244  0.54023990  0.07662122  1
  Te  Te130  1  0.24828685  0.59799538  0.42903652  1
  Te  Te131  1  0.26226444  0.58689096  0.72351144  1
  Te  Te132  1  0.23615917  0.92917512  0.07459728  1
  Te  Te133  1  0.28234628  0.88167427  0.44566612  1
  Te  Te134  1  0.22159686  0.88091597  0.73288502  1
  Te  Te135  1  0.57316858  0.24181415  0.10561570  1
  Te  Te136  1  0.59184921  0.25803042  0.41354305  1
  Te  Te137  1  0.58723553  0.23376148  0.74211007  1
  Te  Te138  1  0.57477979  0.61057283  0.10370455  1
  Te  Te139  1  0.54510148  0.60544785  0.44014271  1
  Te  Te140  1  0.60229048  0.59323483  0.73847010  1
  Te  Te141  1  0.57605500  0.90696728  0.08433979  1
  Te  Te142  1  0.56626078  0.87505523  0.42278865  1
  Te  Te143  1  0.58047289  0.91466389  0.77774653  1
  Te  Te144  1  0.89563530  0.26235481  0.08040573  1
  Te  Te145  1  0.93017017  0.24263506  0.41235147  1
  Te  Te146  1  0.92218657  0.23682696  0.73484918  1
  Te  Te147  1  0.92856247  0.60405093  0.06926997  1
  Te  Te148  1  0.90724741  0.57733091  0.40862493  1
  Te  Te149  1  0.94182167  0.55915281  0.76614297  1
  Te  Te150  1  0.90487384  0.93902353  0.08611297  1
  Te  Te151  1  0.91357608  0.90852609  0.42007181  1
  Te  Te152  1  0.89066003  0.85442158  0.75675512  1
  Te  Te153  1  0.24209080  0.06112745  0.25174050  1
  Te  Te154  1  0.24845960  0.06761854  0.57803902  1
  Te  Te155  1  0.24271873  0.07997170  0.91995894  1
  Te  Te156  1  0.25851889  0.37694916  0.24720195  1
  Te  Te157  1  0.27927136  0.39752576  0.59523130  1
  Te  Te158  1  0.25095410  0.43039992  0.91142128  1
  Te  Te159  1  0.24771488  0.74984883  0.25747223  1
  Te  Te160  1  0.25087954  0.78786954  0.60976606  1
  Te  Te161  1  0.26937235  0.72879890  0.90312285  1
  Te  Te162  1  0.58417599  0.08842687  0.28251136  1
  Te  Te163  1  0.61014993  0.06935486  0.60763868  1
  Te  Te164  1  0.58042298  0.10131174  0.92819222  1
  Te  Te165  1  0.60064644  0.41573384  0.27789948  1
  Te  Te166  1  0.57997139  0.42483952  0.56851101  1
  Te  Te167  1  0.57693102  0.43560742  0.93448238  1
  Te  Te168  1  0.56049314  0.72060237  0.22951243  1
  Te  Te169  1  0.61274729  0.74131168  0.57052618  1
  Te  Te170  1  0.57972724  0.75065976  0.92387691  1
  Te  Te171  1  0.90836714  0.07548327  0.23226084  1
  Te  Te172  1  0.91374469  0.06222237  0.58159137  1
  Te  Te173  1  0.90727124  0.08948420  0.89503927  1
  Te  Te174  1  0.91949846  0.44512487  0.24559568  1
  Te  Te175  1  0.91432194  0.40777305  0.57631044  1
  Te  Te176  1  0.93288371  0.41658596  0.93737936  1
  Te  Te177  1  0.94038094  0.73683580  0.24662667  1
  Te  Te178  1  0.92087371  0.74359410  0.57395544  1
  Te  Te179  1  0.89902783  0.79272140  0.90148658  1
