# generated using pymatgen
data_In2Te3
_symmetry_space_group_name_H-M   'P 1'
_cell_length_a   18.99917844
_cell_length_b   19.01358213
_cell_length_c   19.02168586
_cell_angle_alpha   90.04985800
_cell_angle_beta   90.01905118
_cell_angle_gamma   89.88344638
_symmetry_Int_Tables_number   1
_chemical_formula_structural   In2Te3
_chemical_formula_sum   'In72 Te108'
_cell_volume   6871.42301260
_cell_formula_units_Z   36
loop_
 _symmetry_equiv_pos_site_id
 _symmetry_equiv_pos_as_xyz
  1  'x, y, z'
loop_
 _atom_site_type_symbol
 _atom_site_label
 _atom_site_symmetry_multiplicity
 _atom_site_fract_x
 _atom_site_fract_y
 _atom_site_fract_z
 _atom_site_occupancy
  In  In0  1  0.32049775  0.85520647  0.15557345  1
  In  In1  1  0.31904151  0.51536100  0.51093450  1
  In  In2  1  -0.02237641  0.32100735  0.00307335  1
  In  In3  1  0.14855700  0.32751038  0.16451104  1
  In  In4  1  0.32320285  0.19917027  0.47634077  1
  In  In5  1  0.16674640  0.15311489  0.01148911  1
  In  In6  1  0.69148975  0.67489919  0.02297421  1
  In  In7  1  -0.00206461  0.83377639  0.85247283  1
  In  In8  1  0.48376836  0.34283786  0.14897369  1
  In  In9  1  0.50024387  0.51945576  0.31906984  1
  In  In10  1  0.54150489  0.12913245  0.66776226  1
  In  In11  1  0.90704452  0.81584346  0.08145466  1
  In  In12  1  -0.00899783  0.66415262  0.65909391  1
  In  In13  1  0.50977025  0.67326868  0.49418689  1
  In  In14  1  0.48766087  -0.02415626  0.82730577  1
  In  In15  1  0.16032348  0.50664462  0.67450378  1
  In  In16  1  0.68816215  0.82042918  0.83651335  1
  In  In17  1  0.32302713  0.49577038  0.84200669  1
  In  In18  1  -0.00665277  0.50023717  0.46547207  1
  In  In19  1  0.16782441  0.65995687  0.84006822  1
  In  In20  1  0.00296550  0.51454708  0.17122102  1
  In  In21  1  0.69413701  0.83979259  0.49937442  1
  In  In22  1  0.85538263  0.65827392  0.47703503  1
  In  In23  1  0.65787821  0.48223155  0.81910357  1
  In  In24  1  0.80866553  0.48016382  -0.00289638  1
  In  In25  1  0.31885242  0.36015851  0.31241287  1
  In  In26  1  0.49712724  0.32738960  0.49562204  1
  In  In27  1  0.14697476  -0.00288672  0.85543676  1
  In  In28  1  0.50053225  0.30866732  0.83773602  1
  In  In29  1  0.33801546  0.81764474  0.86559850  1
  In  In30  1  0.83225928  0.14719557  0.34530188  1
  In  In31  1  0.85125144  0.14658657  0.01275568  1
  In  In32  1  0.85648970  0.81702999  0.31100090  1
  In  In33  1  0.69638764  0.51097634  0.50009929  1
  In  In34  1  0.01451355  0.84334361  0.50207420  1
  In  In35  1  0.18283192  0.68893332  0.48620570  1
  In  In36  1  0.13993762  0.84548963  0.33569064  1
  In  In37  1  0.67545162  0.51584392  0.16361268  1
  In  In38  1  0.46166161  0.16241621  0.00624437  1
  In  In39  1  0.33646655  0.65321085  0.30128137  1
  In  In40  1  0.33853476  0.84507611  0.51125653  1
  In  In41  1  0.50160226  0.65147909  0.82598651  1
  In  In42  1  0.84503794  0.34282447  0.50528981  1
  In  In43  1  0.15061215  0.17506810  0.67879306  1
  In  In44  1  0.65581137  -0.01957200  -0.01129096  1
  In  In45  1  0.49361936  0.19025752  0.33334915  1
  In  In46  1  0.84537551  0.66454418  0.81653153  1
  In  In47  1  0.48849318  0.83194736  0.01002598  1
  In  In48  1  0.29039265  0.64991226  0.04224373  1
  In  In49  1  0.53305523  0.79978899  0.32178909  1
  In  In50  1  0.66316539  0.18495387  0.84549782  1
  In  In51  1  0.34517191  0.01527076  0.31855224  1
  In  In52  1  -0.01442514  0.15544289  0.81561238  1
  In  In53  1  0.01543514  0.64416892  0.00670276  1
  In  In54  1  0.67138575  0.32357018  0.35029756  1
  In  In55  1  0.15795618  0.00336012  0.51121605  1
  In  In56  1  0.82920419  -0.01339513  0.82657873  1
  In  In57  1  0.49636643  0.49229763  -0.02940297  1
  In  In58  1  0.01003575  0.16043874  0.51223804  1
  In  In59  1  -0.00320188  0.01483746  0.32987759  1
  In  In60  1  0.50123165  0.01850054  0.16721196  1
  In  In61  1  0.31784380  0.00354768  0.68831637  1
  In  In62  1  0.16324715  0.34518721  0.83670433  1
  In  In63  1  0.52072849  0.84576816  0.65895141  1
  In  In64  1  0.16858519  0.01603997  0.17401324  1
  In  In65  1  0.33718747  0.34911744  0.68653496  1
  In  In66  1  0.50654593  0.51627122  0.64099086  1
  In  In67  1  0.66113983  0.15918747  0.16933114  1
  In  In68  1  -0.00412004  0.35502177  0.30984195  1
  In  In69  1  0.83733452  0.15331545  0.64086223  1
  In  In70  1  0.82833289  0.32058620  0.82552420  1
  In  In71  1  0.69294560  -0.03137650  0.34955078  1
  Te  Te72  1  0.06461461  0.07583280  0.08589129  1
  Te  Te73  1  0.09983598  0.09450097  0.40620314  1
  Te  Te74  1  0.07212602  0.06042703  0.73618253  1
  Te  Te75  1  0.06789543  0.41879794  0.07237742  1
  Te  Te76  1  0.09453005  0.41860338  0.39795971  1
  Te  Te77  1  0.07213547  0.41906799  0.74953741  1
  Te  Te78  1  0.06923134  0.73088462  0.11545620  1
  Te  Te79  1  0.06323652  0.73675924  0.40604225  1
  Te  Te80  1  0.07715103  0.74538704  0.75636064  1
  Te  Te81  1  0.38774276  0.08233766  0.10308636  1
  Te  Te82  1  0.41993092  0.09371452  0.42445852  1
  Te  Te83  1  0.42329102  0.09197403  0.75525121  1
  Te  Te84  1  0.40351990  0.43183595  0.06560771  1
  Te  Te85  1  0.41444603  0.43090329  0.42217080  1
  Te  Te86  1  0.44222646  0.43629595  0.75463748  1
  Te  Te87  1  0.40272308  0.74272158  0.09498653  1
  Te  Te88  1  0.40704670  0.74900192  0.41218992  1
  Te  Te89  1  0.43050302  0.76483119  0.75519723  1
  Te  Te90  1  0.74127173  0.06570106  0.08195036  1
  Te  Te91  1  0.75922038  0.06235285  0.44455025  1
  Te  Te92  1  0.75445956  0.09965376  0.76112831  1
  Te  Te93  1  0.74263353  0.40300974  0.10119080  1
  Te  Te94  1  0.76974077  0.42561815  0.39956491  1
  Te  Te95  1  0.74883255  0.40503435  0.73657246  1
  Te  Te96  1  0.76186916  0.77700266  0.10342631  1
  Te  Te97  1  0.75569451  0.74369775  0.40052781  1
  Te  Te98  1  0.77780816  0.76677414  0.73378406  1
  Te  Te99  1  0.04474425  0.24247769  0.22771593  1
  Te  Te100  1  0.08165711  0.26350739  0.58666155  1
  Te  Te101  1  0.06915515  0.24041994  0.90808717  1
  Te  Te102  1  0.08888058  0.61812499  0.23526352  1
  Te  Te103  1  0.09064088  0.59172867  0.56736392  1
  Te  Te104  1  0.10535988  0.55917082  0.92625220  1
  Te  Te105  1  0.05479712  0.91040281  0.22891003  1
  Te  Te106  1  0.11663899  0.89200399  0.59656217  1
  Te  Te107  1  0.08485510  0.90236791  0.94981071  1
  Te  Te108  1  0.39788356  0.25289827  0.23783447  1
  Te  Te109  1  0.41156402  0.25255673  0.59413772  1
  Te  Te110  1  0.39325350  0.25889740  0.92094320  1
  Te  Te111  1  0.41573482  0.56960629  0.21132221  1
  Te  Te112  1  0.40474537  0.61401346  0.58708719  1
  Te  Te113  1  0.39559570  0.60667205  0.92794708  1
  Te  Te114  1  0.43151367  0.90590887  0.25553115  1
  Te  Te115  1  0.42090885  0.94085159  0.59381497  1
  Te  Te116  1  0.40029119  0.93414430  0.94261330  1
  Te  Te117  1  0.75434146  0.24265208  0.25345539  1
  Te  Te118  1  0.75342252  0.25057849  0.57110763  1
  Te  Te119  1  0.76142449  0.24782431  0.94031006  1
  Te  Te120  1  0.72361310  0.62791559  0.24207073  1
  Te  Te121  1  0.79504697  0.57702024  0.58680242  1
  Te  Te122  1  0.73367126  0.58680299  0.90344527  1
  Te  Te123  1  0.75198052  0.89413389  0.23766434  1
  Te  Te124  1  0.73630697  0.95669393  0.57787210  1
  Te  Te125  1  0.77096067  0.89861700  0.93619049  1
  Te  Te126  1  0.24383041  0.25644536  0.07847013  1
  Te  Te127  1  0.23060047  0.28398997  0.40245473  1
  Te  Te128  1  0.25476726  0.24860601  0.76222534  1
  Te  Te129  1  0.20407599  0.58029866  0.14093733  1
  Te  Te130  1  0.24376008  0.58088392  0.39740432  1
  Te  Te131  1  0.26477052  0.59264112  0.74302844  1
  Te  Te132  1  0.21717384  0.91824683  0.07352943  1
  Te  Te133  1  0.25258078  0.92527431  0.41065512  1
  Te  Te134  1  0.24998534  0.90534094  0.77797736  1
  Te  Te135  1  0.57148659  0.23984551  0.07826140  1
  Te  Te136  1  0.59645508  0.22797004  0.43952486  1
  Te  Te137  1  0.59417790  0.25610298  0.72958575  1
  Te  Te138  1  0.58155197  0.58022221  0.06391220  1
  Te  Te139  1  0.60008369  0.58799872  0.40903435  1
  Te  Te140  1  0.60176683  0.59520718  0.72835799  1
  Te  Te141  1  0.58189534  0.90902626  0.09993201  1
  Te  Te142  1  0.57595410  0.90139911  0.42338859  1
  Te  Te143  1  0.60857808  0.92417942  0.75454977  1
  Te  Te144  1  0.91619096  0.23879032  0.10863756  1
  Te  Te145  1  0.92339974  0.24819900  0.41389774  1
  Te  Te146  1  0.92028504  0.25455767  0.72457057  1
  Te  Te147  1  0.89725705  0.57406931  0.07420948  1
  Te  Te148  1  0.91134468  0.57471358  0.36903997  1
  Te  Te149  1  0.94123344  0.56985699  0.75989738  1
  Te  Te150  1  0.95007064  0.95399998  0.12046740  1
  Te  Te151  1  0.91722956  0.91485183  0.41053989  1
  Te  Te152  1  0.91050855  0.89289811  0.74844400  1
  Te  Te153  1  0.24430116  0.10396648  0.26306723  1
  Te  Te154  1  0.25373907  0.09889930  0.58125017  1
  Te  Te155  1  0.24538784  0.09202672  0.90353962  1
  Te  Te156  1  0.23639616  0.43865143  0.21813100  1
  Te  Te157  1  0.24289617  0.40980619  0.58614786  1
  Te  Te158  1  0.23586355  0.42734290  0.93575534  1
  Te  Te159  1  0.24873581  0.77114840  0.25932736  1
  Te  Te160  1  0.24470259  0.76806337  0.59415223  1
  Te  Te161  1  0.22939874  0.74943020  0.94653059  1
  Te  Te162  1  0.59055667  0.07640517  0.27725644  1
  Te  Te163  1  0.61658300  0.05403396  0.56916736  1
  Te  Te164  1  0.57302090  0.08213423  0.91276388  1
  Te  Te165  1  0.57338032  0.39855321  0.26120801  1
  Te  Te166  1  0.59448810  0.41894018  0.56767654  1
  Te  Te167  1  0.59656836  0.39026506  0.92234316  1
  Te  Te168  1  0.59617349  0.71004417  0.22840927  1
  Te  Te169  1  0.60643855  0.74535361  0.58439881  1
  Te  Te170  1  0.57994585  0.74876023  0.92198541  1
  Te  Te171  1  0.89065231  0.06287973  0.23734425  1
  Te  Te172  1  0.93390110  0.05920845  0.58304964  1
  Te  Te173  1  0.92782684  0.05911711  0.91650498  1
  Te  Te174  1  0.89737373  0.43973189  0.24091800  1
  Te  Te175  1  0.90975625  0.45427827  0.57923887  1
  Te  Te176  1  0.91204579  0.41799930  0.90622736  1
  Te  Te177  1  0.94686262  0.74662248  0.21097562  1
  Te  Te178  1  0.91092610  0.76198793  0.57526989  1
  Te  Te179  1  0.91050773  0.73728948  0.93369036  1
