# generated using pymatgen
data_In2Te3
_symmetry_space_group_name_H-M   'P 1'
_cell_length_a   18.93490842
_cell_length_b   18.95584919
_cell_length_c   18.97397597
_cell_angle_alpha   89.82635721
_cell_angle_beta   89.93565735
_cell_angle_gamma   90.09437648
_symmetry_Int_Tables_number   1
_chemical_formula_structural   In2Te3
_chemical_formula_sum   'In72 Te108'
_cell_volume   6810.23251837
_cell_formula_units_Z   36
loop_
 _symmetry_equiv_pos_site_id
 _symmetry_equiv_pos_as_xyz
  1  'x, y, z'
loop_
 _atom_site_type_symbol
 _atom_site_label
 _atom_site_symmetry_multiplicity
 _atom_site_fract_x
 _atom_site_fract_y
 _atom_site_fract_z
 _atom_site_occupancy
  In  In0  1  0.81208222  -0.00287968  0.84053130  1
  In  In1  1  0.83135303  0.50538874  0.33451640  1
  In  In2  1  0.33851069  0.15230717  0.45835889  1
  In  In3  1  0.04609745  0.66843388  0.72838562  1
  In  In4  1  0.63952778  -0.02614318  0.68602993  1
  In  In5  1  0.01626623  0.82846506  0.15184526  1
  In  In6  1  0.14045155  -0.03796359  0.83690661  1
  In  In7  1  0.49813797  0.32704716  0.85349022  1
  In  In8  1  0.16872226  0.36270291  0.83599911  1
  In  In9  1  0.81004242  0.34095493  0.48658324  1
  In  In10  1  0.48147243  0.15709546  0.68269329  1
  In  In11  1  0.50640603  0.76880194  -0.02536595  1
  In  In12  1  0.14682526  0.17753290  0.65121122  1
  In  In13  1  0.84586684  0.19290231  0.01423304  1
  In  In14  1  0.67945481  0.17327708  0.48889387  1
  In  In15  1  0.52385894  0.64656388  0.16787238  1
  In  In16  1  0.32695641  -0.02008400  0.65790623  1
  In  In17  1  0.30775427  0.13945268  0.81551462  1
  In  In18  1  0.32640021  0.79649957  0.86121221  1
  In  In19  1  0.14813089  0.49413737  0.67364544  1
  In  In20  1  0.83768694  0.84719490  0.33056496  1
  In  In21  1  -0.00821252  0.00225001  0.66702375  1
  In  In22  1  -0.02054724  0.01324322  0.32797363  1
  In  In23  1  0.19681266  0.83337881  0.34095444  1
  In  In24  1  0.67043220  0.65536289  0.68217059  1
  In  In25  1  0.00580712  0.36937282  0.00400105  1
  In  In26  1  0.16922179  0.19089643  0.30786531  1
  In  In27  1  0.67062084  0.35734375  -0.00489863  1
  In  In28  1  0.64556157  0.15935485  0.82027638  1
  In  In29  1  0.18453194  -0.01572070  0.16301401  1
  In  In30  1  0.01237472  -0.02235448  0.00425731  1
  In  In31  1  0.00529811  0.83289938  0.50729525  1
  In  In32  1  0.65498268  0.83867735  0.50519686  1
  In  In33  1  0.00197179  0.17689518  0.51472551  1
  In  In34  1  0.18728374  0.64780497  0.50149575  1
  In  In35  1  0.17007492  0.15372616  0.00129976  1
  In  In36  1  0.50722417  0.15212282  0.01172355  1
  In  In37  1  0.50699458  0.65153843  0.50403783  1
  In  In38  1  0.33141812  0.56108627  0.88081418  1
  In  In39  1  0.00598396  0.48697555  0.47637112  1
  In  In40  1  0.31484572  0.51226473  0.48037680  1
  In  In41  1  0.83168551  0.84735759  -0.00236334  1
  In  In42  1  0.65742554  0.19864929  0.16410751  1
  In  In43  1  0.00431537  0.33693048  0.31810784  1
  In  In44  1  0.67108377  0.47016051  0.18547937  1
  In  In45  1  0.34291335  0.17041773  0.17221071  1
  In  In46  1  0.35237149  0.34168574  0.00732541  1
  In  In47  1  0.02037688  0.64397615  -0.02056602  1
  In  In48  1  0.51033644  0.32437910  0.49524375  1
  In  In49  1  0.50553945  0.00852373  0.47827494  1
  In  In50  1  0.82037144  0.64224967  0.86386162  1
  In  In51  1  0.15397104  -0.01245112  0.49491427  1
  In  In52  1  0.82210787  0.50110916  0.67682924  1
  In  In53  1  0.67560323  0.83995863  0.18653084  1
  In  In54  1  0.81053864  0.17017252  0.31814167  1
  In  In55  1  0.49350633  0.49035353  0.66641325  1
  In  In56  1  0.34855751  0.84948203  0.13634801  1
  In  In57  1  0.49282865  -0.00103115  0.17484961  1
  In  In58  1  -0.02230443  0.18431620  0.83556494  1
  In  In59  1  0.34385499  0.65444304  0.32044334  1
  In  In60  1  0.31570659  0.35685304  0.30736782  1
  In  In61  1  0.67132511  0.00083634  0.00620654  1
  In  In62  1  0.83656970  0.64217503  0.50584206  1
  In  In63  1  0.65406043  0.66154522  0.34031498  1
  In  In64  1  0.33126423  0.82056326  0.51383335  1
  In  In65  1  0.31747379  0.52685659  0.14123832  1
  In  In66  1  0.83530008  0.34293055  0.83695615  1
  In  In67  1  0.34436665  0.35519314  0.65715899  1
  In  In68  1  0.03234152  0.53273733  0.17100797  1
  In  In69  1  0.85483423  0.68419480  0.14799627  1
  In  In70  1  0.34783410  0.68925499  0.70385620  1
  In  In71  1  0.83240396  0.84339079  0.67005702  1
  Te  Te72  1  0.08205387  0.07527808  0.09676804  1
  Te  Te73  1  0.08970822  0.09599464  0.41104908  1
  Te  Te74  1  0.08604180  0.08938322  0.76050685  1
  Te  Te75  1  0.10981135  0.43706653  0.08574886  1
  Te  Te76  1  0.10256746  0.40769612  0.40200645  1
  Te  Te77  1  0.05824229  0.41029966  0.75394455  1
  Te  Te78  1  0.09350874  0.71090298  0.09748211  1
  Te  Te79  1  0.10121336  0.75084032  0.42479628  1
  Te  Te80  1  0.09748546  0.78520191  0.80017741  1
  Te  Te81  1  0.39914240  0.06847496  0.07401195  1
  Te  Te82  1  0.44980005  0.10340027  0.37785873  1
  Te  Te83  1  0.41642555  0.04652163  0.76276072  1
  Te  Te84  1  0.42198409  0.45720156  0.06276077  1
  Te  Te85  1  0.40991499  0.41279397  0.41954579  1
  Te  Te86  1  0.40532121  0.42298506  0.77678663  1
  Te  Te87  1  0.41838289  0.72232810  0.08995830  1
  Te  Te88  1  0.41953921  0.74279379  0.41864674  1
  Te  Te89  1  0.44284616  0.79314944  0.75686205  1
  Te  Te90  1  0.74927003  0.09900022  0.08778356  1
  Te  Te91  1  0.73836935  0.07175093  0.40092637  1
  Te  Te92  1  0.74390798  0.08063096  0.73701055  1
  Te  Te93  1  0.76779306  0.39497386  0.10080931  1
  Te  Te94  1  0.72191041  0.42596645  0.39905850  1
  Te  Te95  1  0.73628652  0.43151091  0.77276801  1
  Te  Te96  1  0.74066789  0.75564261  0.07892406  1
  Te  Te97  1  0.75786842  0.74726022  0.42547184  1
  Te  Te98  1  0.76279872  0.74504073  0.76064540  1
  Te  Te99  1  0.07457858  0.25418565  0.21645386  1
  Te  Te100  1  0.06782365  0.28340739  0.59086472  1
  Te  Te101  1  0.08916489  0.25119889  0.91536214  1
  Te  Te102  1  0.12308591  0.61414481  0.25167679  1
  Te  Te103  1  0.06968170  0.59083543  0.58260051  1
  Te  Te104  1  0.10667468  0.61736829  0.86036029  1
  Te  Te105  1  0.08487348  0.91392751  0.26722904  1
  Te  Te106  1  0.09384372  0.90625403  0.60686846  1
  Te  Te107  1  0.08383504  0.86439705  0.93635573  1
  Te  Te108  1  0.41615806  0.27764697  0.23804675  1
  Te  Te109  1  0.40132418  0.23588174  0.57924228  1
  Te  Te110  1  0.39816691  0.22156457  0.90917111  1
  Te  Te111  1  0.43111225  0.55578318  0.24844056  1
  Te  Te112  1  0.39510438  0.58831879  0.58659930  1
  Te  Te113  1  0.45800973  0.63092479  0.91740771  1
  Te  Te114  1  0.40211508  0.91486978  0.25499866  1
  Te  Te115  1  0.43392210  0.91237165  0.57689956  1
  Te  Te116  1  0.41832129  0.88171782  0.93866889  1
  Te  Te117  1  0.76787721  0.27966980  0.22517595  1
  Te  Te118  1  0.73864848  0.26298231  0.58793051  1
  Te  Te119  1  0.73257723  0.23471049  0.91836734  1
  Te  Te120  1  0.75673054  0.60605688  0.24311574  1
  Te  Te121  1  0.72674205  0.56527005  0.57354432  1
  Te  Te122  1  0.71360730  0.58348253  0.94800258  1
  Te  Te123  1  0.75121000  0.94205423  0.26055144  1
  Te  Te124  1  0.74617026  0.93082079  0.58328440  1
  Te  Te125  1  0.71996266  0.89612811  0.90622700  1
  Te  Te126  1  0.25248458  0.25230746  0.08057045  1
  Te  Te127  1  0.24731375  0.26231090  0.41560173  1
  Te  Te128  1  0.24922003  0.26026405  0.74361111  1
  Te  Te129  1  0.21960270  0.61749014  0.07307966  1
  Te  Te130  1  0.21899448  0.57088413  0.36685583  1
  Te  Te131  1  0.26113831  0.56895054  0.74271306  1
  Te  Te132  1  0.22817558  0.88950953  0.06109899  1
  Te  Te133  1  0.27568638  0.93249430  0.42416272  1
  Te  Te134  1  0.25674836  0.89792524  0.76382661  1
  Te  Te135  1  0.56261976  0.27633162  0.07317390  1
  Te  Te136  1  0.59546305  0.25474771  0.39430410  1
  Te  Te137  1  0.57360324  0.26391066  0.73744065  1
  Te  Te138  1  0.61578786  0.56432980  0.08466831  1
  Te  Te139  1  0.56980891  0.56255332  0.40717421  1
  Te  Te140  1  0.55779747  0.59058102  0.75502564  1
  Te  Te141  1  0.58145676  0.90972261  0.08796318  1
  Te  Te142  1  0.58966506  0.91626773  0.40068453  1
  Te  Te143  1  0.58059210  0.86711239  0.76378193  1
  Te  Te144  1  0.95287289  0.25887115  0.08854278  1
  Te  Te145  1  0.91287028  0.25425925  0.41127729  1
  Te  Te146  1  0.89081095  0.24790498  0.73892398  1
  Te  Te147  1  0.91880971  0.57457876  0.06962187  1
  Te  Te148  1  0.93494958  0.59684226  0.39996183  1
  Te  Te149  1  0.91563684  0.59281702  0.75486007  1
  Te  Te150  1  0.90816890  0.92423663  0.10300559  1
  Te  Te151  1  0.91279188  0.92891352  0.43622708  1
  Te  Te152  1  0.92021610  0.91604144  0.77055625  1
  Te  Te153  1  0.25673277  0.07797359  0.25808743  1
  Te  Te154  1  0.24700141  0.08602035  0.58062663  1
  Te  Te155  1  0.24008637  0.04999566  0.91794338  1
  Te  Te156  1  0.23105106  0.41990846  0.20206174  1
  Te  Te157  1  0.23666765  0.41955767  0.57346077  1
  Te  Te158  1  0.25511433  0.43575436  0.93343944  1
  Te  Te159  1  0.26920941  0.75601849  0.23685704  1
  Te  Te160  1  0.24004513  0.74515069  0.60654732  1
  Te  Te161  1  0.25515241  0.68294657  0.93692173  1
  Te  Te162  1  0.57200536  0.10471784  0.24050883  1
  Te  Te163  1  0.57826067  0.08661132  0.58986236  1
  Te  Te164  1  0.57087739  0.06136366  0.90838019  1
  Te  Te165  1  0.61949788  0.37631687  0.28863339  1
  Te  Te166  1  0.58584653  0.41045669  0.58642856  1
  Te  Te167  1  0.58700860  0.43371956  0.90076357  1
  Te  Te168  1  0.56996376  0.75870076  0.25996181  1
  Te  Te169  1  0.57909914  0.74580823  0.59697187  1
  Te  Te170  1  0.60644351  0.68461582  0.89965856  1
  Te  Te171  1  0.91644056  0.10626489  0.23718359  1
  Te  Te172  1  0.90960642  0.08438437  0.58000502  1
  Te  Te173  1  0.91525108  0.07430945  0.92901647  1
  Te  Te174  1  0.92821629  0.44085552  0.23889923  1
  Te  Te175  1  0.90458237  0.42555417  0.57044709  1
  Te  Te176  1  0.91612977  0.43902721  0.91263203  1
  Te  Te177  1  0.93291526  0.75461829  0.25717736  1
  Te  Te178  1  0.91476884  0.74342872  0.59011577  1
  Te  Te179  1  0.91464205  0.74434678  0.92629260  1
