# generated using pymatgen
data_In2Te3
_symmetry_space_group_name_H-M   'P 1'
_cell_length_a   19.04871480
_cell_length_b   19.08408477
_cell_length_c   19.09766103
_cell_angle_alpha   90.12499225
_cell_angle_beta   89.83648365
_cell_angle_gamma   89.75204838
_symmetry_Int_Tables_number   1
_chemical_formula_structural   In2Te3
_chemical_formula_sum   'In72 Te108'
_cell_volume   6942.41093269
_cell_formula_units_Z   36
loop_
 _symmetry_equiv_pos_site_id
 _symmetry_equiv_pos_as_xyz
  1  'x, y, z'
loop_
 _atom_site_type_symbol
 _atom_site_label
 _atom_site_symmetry_multiplicity
 _atom_site_fract_x
 _atom_site_fract_y
 _atom_site_fract_z
 _atom_site_occupancy
  In  In0  1  0.01528005  0.83367689  0.83023746  1
  In  In1  1  0.34421904  0.69254321  0.34033402  1
  In  In2  1  0.84072097  0.34728813  0.14430056  1
  In  In3  1  0.82644889  0.49229827  -0.02793478  1
  In  In4  1  0.35624704  0.00845779  0.68980543  1
  In  In5  1  0.14321408  0.00284252  0.49429406  1
  In  In6  1  0.00041815  0.81674521  0.47022069  1
  In  In7  1  0.16005774  0.32913005  0.83184452  1
  In  In8  1  -0.02831074  0.33843824  0.64255923  1
  In  In9  1  0.66430195  0.03894113  0.32530884  1
  In  In10  1  0.34249699  0.33809283  0.66156094  1
  In  In11  1  0.80939756  0.16492461  -0.01392288  1
  In  In12  1  0.31743880  0.49491126  0.14714718  1
  In  In13  1  0.82693245  0.65629810  0.49701898  1
  In  In14  1  0.64975056  0.16090214  0.14810418  1
  In  In15  1  0.17762733  0.00654999  0.17661852  1
  In  In16  1  0.38209231  0.48568960  0.48631665  1
  In  In17  1  0.47745868  0.84478754  -0.00422093  1
  In  In18  1  0.84363993  0.81281235  -0.01531495  1
  In  In19  1  0.48906047  0.49145321  0.70353169  1
  In  In20  1  0.82459062  0.31923496  0.80681818  1
  In  In21  1  -0.00952517  -0.01556659  0.66145718  1
  In  In22  1  0.55000581  0.31865194  0.48964597  1
  In  In23  1  0.52345224  0.48742991  0.32886052  1
  In  In24  1  0.20337986  0.51995677  0.70516493  1
  In  In25  1  0.00880254  0.18979309  0.16885094  1
  In  In26  1  0.31121460  0.83709951  0.82697011  1
  In  In27  1  0.32488088  0.02860817  0.02368952  1
  In  In28  1  0.75778615  0.06186118  0.55606472  1
  In  In29  1  -0.01318095  0.48999074  0.81002732  1
  In  In30  1  0.79273139  0.45425132  0.34544409  1
  In  In31  1  0.51913090  0.00873295  0.82782590  1
  In  In32  1  0.68721162  0.48627096  0.19438410  1
  In  In33  1  0.17991842  0.47027765  -0.01281147  1
  In  In34  1  0.81920921  0.84092530  0.64744839  1
  In  In35  1  0.17903755  0.66134222  0.84268222  1
  In  In36  1  0.85308747  -0.02774123  0.17548090  1
  In  In37  1  -0.00354712  -0.01535864  0.34284705  1
  In  In38  1  0.81665188  0.83107954  0.35246318  1
  In  In39  1  0.35653600  0.81982456  0.16325732  1
  In  In40  1  0.67281302  0.83714082  0.81197314  1
  In  In41  1  -0.00965914  0.49719157  0.50629516  1
  In  In42  1  -0.02433781  0.15256039  0.48835747  1
  In  In43  1  0.33015921  0.18008780  0.50584658  1
  In  In44  1  0.47152216  0.33282836  0.14574908  1
  In  In45  1  0.53230518  0.06810339  0.48990321  1
  In  In46  1  -0.01009394  0.62827675  0.26968716  1
  In  In47  1  0.65102812  -0.03396030  0.02848849  1
  In  In48  1  0.64265167  0.48565870  0.85172330  1
  In  In49  1  0.34083173  0.67826079  0.68935631  1
  In  In50  1  0.31956094  0.16381055  0.83827969  1
  In  In51  1  0.17299803  0.35024101  0.48757725  1
  In  In52  1  0.33613479  0.01718040  0.35407641  1
  In  In53  1  0.64045809  0.32902965  0.70518729  1
  In  In54  1  0.17259400  0.52354678  0.31522948  1
  In  In55  1  0.13009476  0.15051221  0.66248270  1
  In  In56  1  0.17882257  0.34196471  0.16873461  1
  In  In57  1  0.00940468  0.65992142  0.68759322  1
  In  In58  1  -0.03108092  0.00552613  -0.01608528  1
  In  In59  1  0.42070091  0.82530600  0.56467340  1
  In  In60  1  0.65817186  0.67894743  0.00553796  1
  In  In61  1  0.48497531  0.16076567  -0.00575523  1
  In  In62  1  0.84080143  0.69156726  0.81332934  1
  In  In63  1  0.18811101  0.67751132  0.51367516  1
  In  In64  1  0.66280078  0.65905993  0.36848152  1
  In  In65  1  0.78633318  0.02073267  0.80202805  1
  In  In66  1  0.15695763  0.18893160  0.01274908  1
  In  In67  1  0.18820500  0.83402063  0.31040331  1
  In  In68  1  0.50403368  0.83605464  0.36845285  1
  In  In69  1  0.84708466  0.20937550  0.32324331  1
  In  In70  1  0.50596728  0.67675067  0.17829817  1
  In  In71  1  0.84556788  0.66724832  0.15476860  1
  Te  Te72  1  0.07022171  0.07677884  0.08744177  1
  Te  Te73  1  0.08260186  0.09686503  0.39458526  1
  Te  Te74  1  0.07878096  0.05226553  0.75558437  1
  Te  Te75  1  0.08373567  0.40422907  0.07616646  1
  Te  Te76  1  0.08350874  0.43675111  0.40224468  1
  Te  Te77  1  0.08725985  0.41617600  0.72081816  1
  Te  Te78  1  0.04680406  0.68875896  0.14886572  1
  Te  Te79  1  0.10948574  0.73898218  0.39977915  1
  Te  Te80  1  0.11048624  0.75409729  0.74217161  1
  Te  Te81  1  0.43719608  0.07560254  0.10689540  1
  Te  Te82  1  0.42955925  0.12775433  0.39891681  1
  Te  Te83  1  0.43726751  0.11693534  0.75437003  1
  Te  Te84  1  0.43262003  0.45109155  0.06853975  1
  Te  Te85  1  0.43973728  0.38010470  0.39869057  1
  Te  Te86  1  0.42823678  0.37613100  0.77561656  1
  Te  Te87  1  0.41792079  0.72104225  0.06471961  1
  Te  Te88  1  0.45364455  0.71326547  0.44564927  1
  Te  Te89  1  0.42430088  0.77927697  0.75369959  1
  Te  Te90  1  0.76346081  0.06218864  0.09035713  1
  Te  Te91  1  0.76411562  0.11099356  0.41234193  1
  Te  Te92  1  0.70922637  0.13569422  0.74362678  1
  Te  Te93  1  0.73361154  0.41880885  0.06481382  1
  Te  Te94  1  0.69684721  0.36293331  0.41608373  1
  Te  Te95  1  0.74279574  0.43176575  0.74931067  1
  Te  Te96  1  0.74812219  0.76438431  0.09226340  1
  Te  Te97  1  0.72822285  0.76565103  0.45410716  1
  Te  Te98  1  0.73330397  0.73624671  0.71554123  1
  Te  Te99  1  0.08770972  0.26976014  0.25824730  1
  Te  Te100  1  0.08053392  0.25046970  0.55903327  1
  Te  Te101  1  0.07461309  0.23736879  0.90355304  1
  Te  Te102  1  0.09492531  0.54929099  0.18858109  1
  Te  Te103  1  0.09505885  0.58349409  0.58778056  1
  Te  Te104  1  0.08449777  0.55868571  0.89980971  1
  Te  Te105  1  0.07851089  0.90986341  0.24087378  1
  Te  Te106  1  0.07774125  0.89500138  0.57543204  1
  Te  Te107  1  0.07571108  0.92425070  0.92631762  1
  Te  Te108  1  0.38177259  0.22533878  0.18912188  1
  Te  Te109  1  0.43699984  0.25600518  0.57929270  1
  Te  Te110  1  0.37433769  0.24920399  0.94665571  1
  Te  Te111  1  0.42494291  0.58477575  0.26593885  1
  Te  Te112  1  0.41532153  0.57525253  0.60105454  1
  Te  Te113  1  0.51376570  0.53774751  0.91703539  1
  Te  Te114  1  0.40942467  0.90687617  0.27470258  1
  Te  Te115  1  0.43659866  0.97404446  0.56795086  1
  Te  Te116  1  0.40830411  0.95126354  0.91498787  1
  Te  Te117  1  0.74955890  0.25149142  0.21887296  1
  Te  Te118  1  0.72700068  0.23950381  0.62039549  1
  Te  Te119  1  0.73294232  0.26997790  0.91538371  1
  Te  Te120  1  0.76423038  0.59123706  0.27619525  1
  Te  Te121  1  0.72034499  0.56916574  0.53848555  1
  Te  Te122  1  0.75222469  0.61065121  0.90721684  1
  Te  Te123  1  0.73982578  0.92138908  0.25955189  1
  Te  Te124  1  0.70989837  0.92955758  0.60296704  1
  Te  Te125  1  0.75481113  0.91636636  0.91894747  1
  Te  Te126  1  0.27267422  0.25327551  0.08709941  1
  Te  Te127  1  0.25505681  0.25870512  0.40995628  1
  Te  Te128  1  0.24161724  0.24077797  0.72556233  1
  Te  Te129  1  0.24927860  0.58111484  0.05300611  1
  Te  Te130  1  0.26932301  0.58312032  0.42407752  1
  Te  Te131  1  0.30164898  0.58092475  0.79977025  1
  Te  Te132  1  0.25764136  0.91106493  0.09077848  1
  Te  Te133  1  0.24599161  0.91609423  0.42200594  1
  Te  Te134  1  0.24358859  0.94087515  0.74887274  1
  Te  Te135  1  0.57853786  0.25859911  0.06081576  1
  Te  Te136  1  0.63289579  0.22817949  0.40758975  1
  Te  Te137  1  0.61473631  0.23402124  0.81761770  1
  Te  Te138  1  0.60460430  0.58478311  0.11010795  1
  Te  Te139  1  0.60104849  0.54584639  0.44308813  1
  Te  Te140  1  0.56755823  0.59382306  0.77598147  1
  Te  Te141  1  0.55894992  0.88893647  0.10854598  1
  Te  Te142  1  0.59270431  0.94670439  0.42238868  1
  Te  Te143  1  0.59219326  0.92821209  0.72750432  1
  Te  Te144  1  0.91527860  0.24288516  0.06386653  1
  Te  Te145  1  0.91189393  0.27333239  0.43640620  1
  Te  Te146  1  0.92604641  0.23950824  0.73700956  1
  Te  Te147  1  0.90653485  0.56806232  0.06768340  1
  Te  Te148  1  0.94007207  0.60432225  0.41379992  1
  Te  Te149  1  0.89292457  0.57462061  0.72791898  1
  Te  Te150  1  0.93346281  0.88952370  0.07868881  1
  Te  Te151  1  0.89824519  0.92502712  0.43987467  1
  Te  Te152  1  0.89596626  0.90618645  0.75931314  1
  Te  Te153  1  0.25890871  0.09565797  0.25642150  1
  Te  Te154  1  0.24118898  0.07845231  0.58032984  1
  Te  Te155  1  0.22585464  0.08420898  0.92474952  1
  Te  Te156  1  0.27052907  0.41964075  0.26652424  1
  Te  Te157  1  0.26125282  0.43475376  0.57899502  1
  Te  Te158  1  0.27131918  0.38493960  0.90770883  1
  Te  Te159  1  0.25337223  0.72640141  0.22582188  1
  Te  Te160  1  0.27662969  0.77119547  0.58669235  1
  Te  Te161  1  0.23277580  0.76680924  0.92700683  1
  Te  Te162  1  0.55934512  0.08588717  0.23406210  1
  Te  Te163  1  0.62274175  0.12545054  0.59641073  1
  Te  Te164  1  0.60001742  0.07218372  0.93720066  1
  Te  Te165  1  0.58451298  0.38539575  0.23773820  1
  Te  Te166  1  0.57576988  0.41802698  0.60267750  1
  Te  Te167  1  0.53712687  0.38913207  0.89476851  1
  Te  Te168  1  0.59182806  0.75451711  0.27426762  1
  Te  Te169  1  0.54441042  0.75174066  0.56213407  1
  Te  Te170  1  0.58224481  0.76965240  0.91201480  1
  Te  Te171  1  0.91764534  0.08461085  0.25392696  1
  Te  Te172  1  0.90019259  0.09038977  0.60289348  1
  Te  Te173  1  0.89352776  0.09114154  0.88434078  1
  Te  Te174  1  0.90314236  0.41799533  0.25596553  1
  Te  Te175  1  0.88077589  0.42343453  0.56743465  1
  Te  Te176  1  0.91946597  0.39553951  0.90341997  1
  Te  Te177  1  0.91013060  0.76179959  0.25904895  1
  Te  Te178  1  0.92682073  0.74471951  0.58797515  1
  Te  Te179  1  0.94753177  0.72738942  0.91450017  1
