# generated using pymatgen
data_In2Te3
_symmetry_space_group_name_H-M   'P 1'
_cell_length_a   18.76987379
_cell_length_b   18.77242078
_cell_length_c   18.76075262
_cell_angle_alpha   89.94229893
_cell_angle_beta   89.94330622
_cell_angle_gamma   89.90617307
_symmetry_Int_Tables_number   1
_chemical_formula_structural   In2Te3
_chemical_formula_sum   'In72 Te108'
_cell_volume   6610.44772320
_cell_formula_units_Z   36
loop_
 _symmetry_equiv_pos_site_id
 _symmetry_equiv_pos_as_xyz
  1  'x, y, z'
loop_
 _atom_site_type_symbol
 _atom_site_label
 _atom_site_symmetry_multiplicity
 _atom_site_fract_x
 _atom_site_fract_y
 _atom_site_fract_z
 _atom_site_occupancy
  In  In0  1  0.16988549  0.48986606  0.31792909  1
  In  In1  1  0.34025089  0.17462561  0.83284205  1
  In  In2  1  0.82399242  0.67624697  0.16561685  1
  In  In3  1  0.00169142  0.50507608  0.16059872  1
  In  In4  1  0.48828161  0.01016435  0.83492147  1
  In  In5  1  0.49421437  0.16812910  0.31581101  1
  In  In6  1  0.83719779  0.66871211  0.50496645  1
  In  In7  1  0.65295577  0.33396071  0.00669862  1
  In  In8  1  0.66354453  0.81973701  0.84990275  1
  In  In9  1  0.18951749  0.34512340  0.82728715  1
  In  In10  1  0.46369505  0.49863776  0.69296754  1
  In  In11  1  0.20661776  0.16740068  0.35106102  1
  In  In12  1  0.16296180  0.84821045  0.33618932  1
  In  In13  1  0.20734464  0.32067268  0.15268804  1
  In  In14  1  0.48701900  0.81423229  0.66488859  1
  In  In15  1  0.36103020  0.68312412  0.34969455  1
  In  In16  1  -0.00575109  0.35511725  -0.01950412  1
  In  In17  1  0.81828993  0.33478626  0.49888241  1
  In  In18  1  0.50004793  -0.01927428  0.51205090  1
  In  In19  1  0.47855823  0.51835055  -0.02680967  1
  In  In20  1  0.00432569  0.83121274  0.81661191  1
  In  In21  1  0.64221538  0.82281825  0.51376140  1
  In  In22  1  0.48408375  0.34842108  0.15651252  1
  In  In23  1  0.82745339  0.82951060  0.31519240  1
  In  In24  1  0.16607310  0.65413688  0.14771733  1
  In  In25  1  0.81568111  0.17527295  -0.00472734  1
  In  In26  1  0.49329421  0.50364886  0.34431764  1
  In  In27  1  0.20401533  0.51336298  0.68389663  1
  In  In28  1  0.01083510  0.35764650  0.33027039  1
  In  In29  1  0.65225010  -0.01756098  -0.01873252  1
  In  In30  1  0.03526054  0.32958413  0.66849242  1
  In  In31  1  0.64410824  0.51191142  0.49968657  1
  In  In32  1  0.49911592  0.67324287  0.16506657  1
  In  In33  1  0.69802609  0.50002210  0.16736705  1
  In  In34  1  0.82772196  0.14670666  0.67718131  1
  In  In35  1  0.84205561  0.50516456  0.67666579  1
  In  In36  1  0.36994414  0.19791367  0.52635886  1
  In  In37  1  0.34617818  0.82609623  0.15599590  1
  In  In38  1  0.18672335  0.51341524  -0.01566523  1
  In  In39  1  0.17577745  0.67961795  0.51108685  1
  In  In40  1  0.65650446  0.15988576  0.15569016  1
  In  In41  1  0.00112922  0.66326449  -0.01489957  1
  In  In42  1  0.67006976  0.00608240  0.66642974  1
  In  In43  1  0.18626921  0.81453821  0.67815659  1
  In  In44  1  0.01005524  0.51948526  0.49473727  1
  In  In45  1  0.15866208  0.01006335  0.18877108  1
  In  In46  1  -0.00801350  -0.00693110  0.33306694  1
  In  In47  1  0.00098272  0.82916167  0.50893366  1
  In  In48  1  0.66476146  0.51500282  0.82034380  1
  In  In49  1  0.60368078  0.31507424  0.68149566  1
  In  In50  1  0.17294327  0.82511945  -0.01711046  1
  In  In51  1  0.17192593  0.15769434  0.68112202  1
  In  In52  1  -0.01323033  0.16860623  0.52945748  1
  In  In53  1  0.83192154  0.83299237  0.68098615  1
  In  In54  1  0.66976119  0.33663099  0.35904097  1
  In  In55  1  -0.02127313  -0.03129685  0.00847040  1
  In  In56  1  0.34238926  0.49280191  0.51239698  1
  In  In57  1  0.00560869  0.15381889  0.83061139  1
  In  In58  1  0.83042423  0.67992085  0.83073026  1
  In  In59  1  0.49890719  0.00378848  0.16326220  1
  In  In60  1  0.19210204  0.16579146  0.00433933  1
  In  In61  1  0.32553473  0.82771381  0.83139559  1
  In  In62  1  0.32220031  -0.00562905  0.32956119  1
  In  In63  1  0.66554595  0.67876932  0.01030445  1
  In  In64  1  0.65543762  0.15530999  0.49153959  1
  In  In65  1  0.83002580  0.34364456  0.84612226  1
  In  In66  1  0.65608572  0.81983608  0.17917369  1
  In  In67  1  0.00499140  0.15305220  0.19238578  1
  In  In68  1  0.33444898  0.00706472  -0.01387843  1
  In  In69  1  0.83814008  0.33238757  0.17007294  1
  In  In70  1  0.83746025  0.13881174  0.34130411  1
  In  In71  1  0.17832692  -0.00309400  0.49711995  1
  Te  Te72  1  0.08099861  0.08352002  0.07246007  1
  Te  Te73  1  0.08467590  0.08706660  0.41131983  1
  Te  Te74  1  0.06441700  0.06707671  0.72708866  1
  Te  Te75  1  0.09428984  0.41038658  0.08365895  1
  Te  Te76  1  0.10518961  0.41390441  0.43521635  1
  Te  Te77  1  0.08640952  0.43610593  0.76106921  1
  Te  Te78  1  0.07611251  0.75722306  0.08026312  1
  Te  Te79  1  0.07857825  0.74398978  0.40984323  1
  Te  Te80  1  0.09830744  0.72920825  0.76335753  1
  Te  Te81  1  0.41784161  0.09125886  0.07470612  1
  Te  Te82  1  0.41013823  0.08383242  0.41950190  1
  Te  Te83  1  0.40206127  0.07956457  0.73633996  1
  Te  Te84  1  0.39858542  0.42853086  0.06327278  1
  Te  Te85  1  0.40777371  0.40346212  0.41102953  1
  Te  Te86  1  0.40636537  0.39158148  0.77979040  1
  Te  Te87  1  0.41685805  0.73898452  0.06062794  1
  Te  Te88  1  0.39757108  0.78823653  0.44544716  1
  Te  Te89  1  0.40959792  0.72048784  0.75895151  1
  Te  Te90  1  0.74537204  0.06712320  0.07616750  1
  Te  Te91  1  0.74788931  0.06015992  0.42659112  1
  Te  Te92  1  0.73397451  0.08655531  0.77322723  1
  Te  Te93  1  0.77067328  0.41475174  0.06095203  1
  Te  Te94  1  0.75747256  0.44717434  0.41520335  1
  Te  Te95  1  0.73710372  0.40471256  0.73279205  1
  Te  Te96  1  0.76033034  0.77959021  0.07214547  1
  Te  Te97  1  0.74356972  0.75163641  0.41928772  1
  Te  Te98  1  0.72549627  0.73808474  0.73581046  1
  Te  Te99  1  0.10077037  0.25541944  0.25738906  1
  Te  Te100  1  0.11009640  0.24654571  0.56549842  1
  Te  Te101  1  0.09010991  0.25365802  0.91310560  1
  Te  Te102  1  0.07627458  0.59519653  0.25773871  1
  Te  Te103  1  0.09205438  0.58849163  0.60091317  1
  Te  Te104  1  0.09946673  0.59520577  0.89668276  1
  Te  Te105  1  0.06286201  0.89902620  0.23164968  1
  Te  Te106  1  0.09328932  0.91499955  0.59217846  1
  Te  Te107  1  0.08648589  0.92569096  0.90909151  1
  Te  Te108  1  0.40270614  0.26058329  0.24566344  1
  Te  Te109  1  0.46112082  0.27658150  0.62106980  1
  Te  Te110  1  0.43701505  0.27906063  0.88444759  1
  Te  Te111  1  0.40549822  0.58020232  0.24524061  1
  Te  Te112  1  0.42526892  0.59436487  0.58193581  1
  Te  Te113  1  0.40462112  0.60166048  0.87209117  1
  Te  Te114  1  0.42544306  0.90679826  0.25828392  1
  Te  Te115  1  0.39770120  0.91013990  0.59348514  1
  Te  Te116  1  0.42399290  0.90240629  0.92321111  1
  Te  Te117  1  0.74756891  0.24300481  0.25615313  1
  Te  Te118  1  0.73440688  0.24571919  0.58899636  1
  Te  Te119  1  0.72203795  0.24815724  0.89793311  1
  Te  Te120  1  0.73318190  0.60653544  0.26128238  1
  Te  Te121  1  0.74270047  0.58493571  0.59226938  1
  Te  Te122  1  0.75211111  0.58546476  0.92303271  1
  Te  Te123  1  0.73289395  0.92448519  0.25120370  1
  Te  Te124  1  0.75029496  0.91201629  0.57820491  1
  Te  Te125  1  0.76089923  0.91571267  0.90480149  1
  Te  Te126  1  0.29669713  0.25664194  0.05263294  1
  Te  Te127  1  0.28407662  0.26927785  0.42531449  1
  Te  Te128  1  0.27033371  0.26690441  0.72503318  1
  Te  Te129  1  0.27557733  0.58134015  0.08208103  1
  Te  Te130  1  0.25195348  0.58630543  0.41249880  1
  Te  Te131  1  0.28800989  0.60343329  0.76641868  1
  Te  Te132  1  0.24350146  0.92430239  0.08878322  1
  Te  Te133  1  0.27456213  0.88574942  0.43594363  1
  Te  Te134  1  0.25268667  0.92666455  0.74959594  1
  Te  Te135  1  0.55484933  0.23763231  0.07330909  1
  Te  Te136  1  0.56085274  0.25605690  0.42429780  1
  Te  Te137  1  0.52429172  0.22156888  0.76667082  1
  Te  Te138  1  0.58466254  0.56384810  0.08280170  1
  Te  Te139  1  0.56817996  0.60948873  0.41566316  1
  Te  Te140  1  0.57279503  0.59128113  0.73484024  1
  Te  Te141  1  0.56867704  0.89834697  0.07854763  1
  Te  Te142  1  0.57741857  0.90814236  0.41037336  1
  Te  Te143  1  0.57900375  0.90877945  0.74567542  1
  Te  Te144  1  0.92897507  0.24522067  0.08331052  1
  Te  Te145  1  0.91977865  0.25186382  0.40645410  1
  Te  Te146  1  0.92050272  0.25948725  0.74610526  1
  Te  Te147  1  0.90540007  0.58159482  0.07288567  1
  Te  Te148  1  0.91516399  0.58802184  0.40735761  1
  Te  Te149  1  0.92656555  0.59681945  0.75367969  1
  Te  Te150  1  0.91365031  0.92220525  0.13105564  1
  Te  Te151  1  0.90530453  0.91349276  0.42686913  1
  Te  Te152  1  0.91446784  0.93149061  0.75317264  1
  Te  Te153  1  0.27293106  0.10105622  0.22936450  1
  Te  Te154  1  0.26533688  0.09253585  0.57602822  1
  Te  Te155  1  0.23516500  0.07438305  0.89122620  1
  Te  Te156  1  0.27394255  0.41441596  0.24499687  1
  Te  Te157  1  0.25622917  0.40595005  0.59732987  1
  Te  Te158  1  0.28225590  0.41781034  0.91752475  1
  Te  Te159  1  0.24843756  0.75063714  0.25043276  1
  Te  Te160  1  0.28373623  0.73853480  0.59244594  1
  Te  Te161  1  0.25364757  0.72316108  0.91384218  1
  Te  Te162  1  0.59802383  0.06861111  0.26361014  1
  Te  Te163  1  0.56471259  0.09108447  0.59679915  1
  Te  Te164  1  0.57438644  0.09341360  0.92167387  1
  Te  Te165  1  0.59669370  0.41051757  0.24518417  1
  Te  Te166  1  0.55536556  0.41749870  0.57862984  1
  Te  Te167  1  0.57794246  0.42204248  0.90630987  1
  Te  Te168  1  0.57756417  0.73464209  0.27410652  1
  Te  Te169  1  0.55341374  0.71575390  0.57229675  1
  Te  Te170  1  0.56410971  0.73527357  0.91947179  1
  Te  Te171  1  0.89206881  0.05113790  0.22042239  1
  Te  Te172  1  0.90169775  0.06169467  0.58077944  1
  Te  Te173  1  0.90969104  0.07829820  0.92175789  1
  Te  Te174  1  0.90235275  0.43824282  0.25819744  1
  Te  Te175  1  0.92610030  0.40821687  0.57960160  1
  Te  Te176  1  0.92051844  0.44938143  0.89554367  1
  Te  Te177  1  0.92816097  0.74724593  0.24431248  1
  Te  Te178  1  0.92819071  0.73805364  0.60633613  1
  Te  Te179  1  0.91059883  0.77043486  0.92385751  1
