# generated using pymatgen
data_In2Te3
_symmetry_space_group_name_H-M   'P 1'
_cell_length_a   18.95191475
_cell_length_b   18.94001281
_cell_length_c   18.96635576
_cell_angle_alpha   90.25134522
_cell_angle_beta   90.03893015
_cell_angle_gamma   90.20455399
_symmetry_Int_Tables_number   1
_chemical_formula_structural   In2Te3
_chemical_formula_sum   'In72 Te108'
_cell_volume   6807.85353769
_cell_formula_units_Z   36
loop_
 _symmetry_equiv_pos_site_id
 _symmetry_equiv_pos_as_xyz
  1  'x, y, z'
loop_
 _atom_site_type_symbol
 _atom_site_label
 _atom_site_symmetry_multiplicity
 _atom_site_fract_x
 _atom_site_fract_y
 _atom_site_fract_z
 _atom_site_occupancy
  In  In0  1  0.64397354  0.70396035  -0.03369492  1
  In  In1  1  0.00111178  0.81078775  0.83005705  1
  In  In2  1  -0.01905626  -0.09092563  0.08388704  1
  In  In3  1  0.02805783  -0.01162129  0.67487704  1
  In  In4  1  0.64781675  0.51915816  0.14876912  1
  In  In5  1  0.35405832  0.82176285  0.50641362  1
  In  In6  1  0.68852013  0.68113423  0.33821114  1
  In  In7  1  0.13855709  0.51740679  0.65631992  1
  In  In8  1  0.63753657  0.49648543  0.83042742  1
  In  In9  1  0.01279996  0.17972413  0.48581501  1
  In  In10  1  0.20034523  -0.03136326  0.84035628  1
  In  In11  1  0.85122178  0.16884584  0.66966524  1
  In  In12  1  0.64763201  0.14767731  0.82196126  1
  In  In13  1  -0.02606914  0.55940975  0.50739128  1
  In  In14  1  0.82583204  0.17151661  0.00016968  1
  In  In15  1  0.34192809  0.65521213  -0.02384338  1
  In  In16  1  0.67347117  0.68590773  0.69134209  1
  In  In17  1  0.48138426  0.64151964  0.17978679  1
  In  In18  1  0.67972568  0.34548217  0.33057854  1
  In  In19  1  0.00499876  0.48390558  0.17343775  1
  In  In20  1  0.00243884  0.18128800  0.82249166  1
  In  In21  1  0.15222322  0.65943205  0.82315640  1
  In  In22  1  0.17240801  0.32837362  0.47747014  1
  In  In23  1  0.83082091  0.51466588  -0.00290578  1
  In  In24  1  0.14432659  0.13632137  0.02023651  1
  In  In25  1  0.30634834  0.81828636  0.17355666  1
  In  In26  1  0.34133558  0.01372152  0.32824045  1
  In  In27  1  0.51194828  -0.00851187  0.14815452  1
  In  In28  1  0.46074190  0.34291138  0.17337839  1
  In  In29  1  0.87867121  0.88648665  0.32413856  1
  In  In30  1  0.67909587  0.54175324  0.50482492  1
  In  In31  1  0.15218961  -0.04549226  0.20315792  1
  In  In32  1  0.49603716  0.20136435  0.32651385  1
  In  In33  1  0.50761646  0.81730071  0.67851978  1
  In  In34  1  0.66887471  0.35260470  0.63829680  1
  In  In35  1  0.85591659  -0.01418704  0.83916933  1
  In  In36  1  0.68635872  -0.01950339  -0.00364395  1
  In  In37  1  0.46215214  -0.09391877  0.83146533  1
  In  In38  1  0.51159710  0.81808250  0.33558810  1
  In  In39  1  0.86493705  0.35949906  0.50108248  1
  In  In40  1  0.31487373  0.35195391  0.01621244  1
  In  In41  1  0.46262358  0.47940368  0.35374540  1
  In  In42  1  0.33459779  0.64971601  0.65320615  1
  In  In43  1  0.83582672  0.68448841  0.18737748  1
  In  In44  1  0.18328916  0.52256386  0.35989643  1
  In  In45  1  0.49001733  0.66589113  0.50435624  1
  In  In46  1  0.32408518  0.34875446  0.64887789  1
  In  In47  1  0.16467540  0.18001965  0.64740347  1
  In  In48  1  0.16333290  -0.00610023  0.49439203  1
  In  In49  1  0.02880962  0.08978265  0.26111411  1
  In  In50  1  0.17268392  0.51317569  -0.02481478  1
  In  In51  1  0.66336036  0.16529108  0.47828967  1
  In  In52  1  0.46917111  0.19240092  0.66913101  1
  In  In53  1  0.17929045  0.33729756  0.18491247  1
  In  In54  1  0.81214650  0.32683352  0.16091300  1
  In  In55  1  0.14661291  0.68157208  0.16872035  1
  In  In56  1  0.65877428  0.14477282  0.15591173  1
  In  In57  1  0.63701328  0.32841597  -0.03810452  1
  In  In58  1  0.16514673  0.82435648  -0.00435874  1
  In  In59  1  0.46870270  0.34712403  0.81472708  1
  In  In60  1  0.32362953  0.00925531  0.67327291  1
  In  In61  1  0.66237287  -0.03031058  0.62900131  1
  In  In62  1  0.70947662  0.81296370  0.46967995  1
  In  In63  1  -0.00911205  0.32327921  -0.00847516  1
  In  In64  1  0.01414231  0.33600072  0.33073128  1
  In  In65  1  0.71276975  0.00874394  0.31777578  1
  In  In66  1  0.48377574  0.16590584  0.02265971  1
  In  In67  1  0.51304289  0.01338504  0.48940757  1
  In  In68  1  0.85695957  0.64991729  0.80377842  1
  In  In69  1  0.84137524  0.37303352  0.83125416  1
  In  In70  1  0.31491745  0.16786927  0.82278696  1
  In  In71  1  0.00471756  0.80293144  0.50777913  1
  Te  Te72  1  0.05083642  0.04675452  0.10515712  1
  Te  Te73  1  0.10235442  0.09533431  0.39902806  1
  Te  Te74  1  0.10981023  0.08543636  0.75895866  1
  Te  Te75  1  0.09451330  0.41047697  0.07537102  1
  Te  Te76  1  0.07048297  0.43589868  0.42786678  1
  Te  Te77  1  0.06409781  0.45829040  0.76951179  1
  Te  Te78  1  0.05555415  0.77588501  0.08951122  1
  Te  Te79  1  0.09910765  0.77123796  0.39389474  1
  Te  Te80  1  0.07633132  0.73910220  0.72438573  1
  Te  Te81  1  0.40386929  0.08013310  0.10856578  1
  Te  Te82  1  0.41724977  0.10671614  0.42201748  1
  Te  Te83  1  0.42555096  0.08033164  0.76335479  1
  Te  Te84  1  0.40958068  0.44272968  0.08180326  1
  Te  Te85  1  0.38086267  0.37774047  0.42187395  1
  Te  Te86  1  0.42417110  0.43984837  0.71191242  1
  Te  Te87  1  0.40509757  0.73916114  0.09108352  1
  Te  Te88  1  0.40561404  0.72971651  0.39487158  1
  Te  Te89  1  0.42128493  0.71999355  0.75671267  1
  Te  Te90  1  0.77346431  0.06768172  0.09534936  1
  Te  Te91  1  0.76641668  0.07059793  0.43918622  1
  Te  Te92  1  0.76118004  0.07636254  0.75156069  1
  Te  Te93  1  0.73457014  0.41529821  0.06375729  1
  Te  Te94  1  0.75893910  0.43531100  0.42486938  1
  Te  Te95  1  0.74497806  0.44061964  0.73723033  1
  Te  Te96  1  0.75131583  0.73257009  0.06915185  1
  Te  Te97  1  0.81874683  0.70883683  0.42196941  1
  Te  Te98  1  0.76483994  0.76282602  0.77632389  1
  Te  Te99  1  0.07951355  0.23667259  0.23923838  1
  Te  Te100  1  0.07099666  0.27889400  0.58454955  1
  Te  Te101  1  0.10016549  0.24592568  0.92066562  1
  Te  Te102  1  0.07808580  0.58287596  0.26100785  1
  Te  Te103  1  0.07903324  0.63305123  0.58355880  1
  Te  Te104  1  0.07102042  0.61456432  0.94001617  1
  Te  Te105  1  0.05839916  0.87453909  0.29182413  1
  Te  Te106  1  0.11190390  0.89406060  0.59367830  1
  Te  Te107  1  0.07594157  0.91771877  0.91043741  1
  Te  Te108  1  0.37810905  0.24631287  0.24817466  1
  Te  Te109  1  0.41274394  0.26925880  0.55900113  1
  Te  Te110  1  0.41062054  0.24580058  0.91547165  1
  Te  Te111  1  0.38376391  0.56145992  0.25814254  1
  Te  Te112  1  0.42331212  0.55661651  0.57799707  1
  Te  Te113  1  0.44230590  0.61978491  0.87261556  1
  Te  Te114  1  0.41979094  0.90362648  0.24848517  1
  Te  Te115  1  0.43577370  0.92619501  0.58779790  1
  Te  Te116  1  0.42699043  0.90259443  0.97075419  1
  Te  Te117  1  0.74336586  0.22964068  0.25510125  1
  Te  Te118  1  0.76708971  0.25309160  0.57379209  1
  Te  Te119  1  0.75866936  0.25504671  0.89483695  1
  Te  Te120  1  0.74893250  0.57118167  0.24676924  1
  Te  Te121  1  0.76973833  0.61643974  0.59862931  1
  Te  Te122  1  0.73598922  0.58866173  0.90589942  1
  Te  Te123  1  0.74750035  0.88350333  0.24496982  1
  Te  Te124  1  0.77498795  0.89799290  0.57249726  1
  Te  Te125  1  0.77357808  0.89289142  0.91583650  1
  Te  Te126  1  0.24163245  0.23942661  0.08507686  1
  Te  Te127  1  0.26691788  0.28581316  0.37260670  1
  Te  Te128  1  0.23611000  0.27166318  0.74719602  1
  Te  Te129  1  0.24095614  0.60087315  0.08015772  1
  Te  Te130  1  0.26083190  0.59944730  0.45669846  1
  Te  Te131  1  0.24905005  0.56953134  0.75031161  1
  Te  Te132  1  0.24267792  0.92066944  0.08306777  1
  Te  Te133  1  0.26980506  0.91574838  0.41978020  1
  Te  Te134  1  0.27525919  0.88952039  0.74289422  1
  Te  Te135  1  0.58416422  0.26113481  0.09217937  1
  Te  Te136  1  0.58135188  0.27988543  0.42678827  1
  Te  Te137  1  0.58884651  0.26645146  0.74738048  1
  Te  Te138  1  0.56705548  0.60199255  0.05584342  1
  Te  Te139  1  0.57606820  0.58811132  0.39688122  1
  Te  Te140  1  0.56640435  0.60235289  0.75304452  1
  Te  Te141  1  0.61799823  0.90404129  0.10246746  1
  Te  Te142  1  0.60019866  0.91420907  0.41456161  1
  Te  Te143  1  0.59760249  0.91949968  0.75298535  1
  Te  Te144  1  0.92167169  0.24143837  0.09790212  1
  Te  Te145  1  0.90903855  0.25088431  0.40209375  1
  Te  Te146  1  0.92496205  0.28243236  0.74087952  1
  Te  Te147  1  0.91590782  0.58281452  0.10121469  1
  Te  Te148  1  0.90390303  0.58906223  0.38427032  1
  Te  Te149  1  0.95277724  0.55077396  0.73449088  1
  Te  Te150  1  0.84283207  0.86065045  0.11846647  1
  Te  Te151  1  0.94092258  0.92401904  0.45372456  1
  Te  Te152  1  0.92057288  0.90024289  0.73214422  1
  Te  Te153  1  0.23172893  0.06979103  0.24851682  1
  Te  Te154  1  0.25974997  0.09588178  0.56739303  1
  Te  Te155  1  0.25639524  0.07707822  0.92957162  1
  Te  Te156  1  0.25372479  0.44886206  0.25004234  1
  Te  Te157  1  0.23273463  0.43592267  0.56674741  1
  Te  Te158  1  0.26836588  0.43007272  0.90213753  1
  Te  Te159  1  0.22295578  0.75082742  0.27685216  1
  Te  Te160  1  0.24982395  0.72363118  0.55179751  1
  Te  Te161  1  0.25406853  0.75154879  0.89943062  1
  Te  Te162  1  0.57916729  0.08108943  0.27070606  1
  Te  Te163  1  0.58644048  0.10291950  0.59817039  1
  Te  Te164  1  0.58502419  0.08275219  0.94014771  1
  Te  Te165  1  0.57564813  0.42272092  0.24980127  1
  Te  Te166  1  0.58404085  0.44632461  0.56641160  1
  Te  Te167  1  0.53518091  0.43238921  0.92287697  1
  Te  Te168  1  0.58841752  0.73652346  0.23514921  1
  Te  Te169  1  0.59431729  0.75819711  0.56600383  1
  Te  Te170  1  0.54005061  0.80783851  0.92433497  1
  Te  Te171  1  0.89496793  0.03420449  0.28392209  1
  Te  Te172  1  0.94790638  0.08673879  0.58806352  1
  Te  Te173  1  0.92876529  0.09168528  0.92040568  1
  Te  Te174  1  0.90141717  0.40802117  0.25369340  1
  Te  Te175  1  0.91376000  0.45835681  0.60169669  1
  Te  Te176  1  0.94217507  0.44717626  0.91732032  1
  Te  Te177  1  0.94311346  0.76457484  0.25878199  1
  Te  Te178  1  0.89327749  0.71700908  0.56516528  1
  Te  Te179  1  0.93580346  0.70806098  0.91634436  1
