# generated using pymatgen
data_In2Te3
_symmetry_space_group_name_H-M   'P 1'
_cell_length_a   18.73800156
_cell_length_b   18.74398509
_cell_length_c   18.73724256
_cell_angle_alpha   90.05360869
_cell_angle_beta   90.04870369
_cell_angle_gamma   90.09572081
_symmetry_Int_Tables_number   1
_chemical_formula_structural   In2Te3
_chemical_formula_sum   'In72 Te108'
_cell_volume   6580.97022824
_cell_formula_units_Z   36
loop_
 _symmetry_equiv_pos_site_id
 _symmetry_equiv_pos_as_xyz
  1  'x, y, z'
loop_
 _atom_site_type_symbol
 _atom_site_label
 _atom_site_symmetry_multiplicity
 _atom_site_fract_x
 _atom_site_fract_y
 _atom_site_fract_z
 _atom_site_occupancy
  In  In0  1  0.67843134  0.15941484  0.83273810  1
  In  In1  1  0.65542537  0.16590702  0.18044516  1
  In  In2  1  0.48743711  0.66063666  0.14070456  1
  In  In3  1  -0.01045441  -0.00352985  0.65290617  1
  In  In4  1  0.01060690  0.82724491  0.49000014  1
  In  In5  1  0.01803268  0.82923553  0.83685915  1
  In  In6  1  0.01489740  0.16242016  0.16509482  1
  In  In7  1  0.32382057  0.34160473  0.66753211  1
  In  In8  1  0.16598368  0.16468144  0.01211690  1
  In  In9  1  0.48774337  0.33659442  0.83683317  1
  In  In10  1  0.50182291  0.16245847  0.65528708  1
  In  In11  1  0.05112279  0.85246805  0.19902177  1
  In  In12  1  0.85024692  0.82262890  0.64507770  1
  In  In13  1  0.49797713  0.64915887  0.49137323  1
  In  In14  1  0.49418856  0.48863682  -0.00324950  1
  In  In15  1  0.00689247  0.50380994  0.15948809  1
  In  In16  1  0.17570559  0.34436567  0.82476694  1
  In  In17  1  0.64280108  0.83821275  0.47334455  1
  In  In18  1  0.32992689  0.34275883  0.00132778  1
  In  In19  1  0.84857301  0.64136558  0.51613442  1
  In  In20  1  0.15907777  0.81411027  0.67411296  1
  In  In21  1  0.31757657  0.66688198  0.01249731  1
  In  In22  1  0.32560091  0.50013417  0.17514977  1
  In  In23  1  0.46540167  0.82955867  0.00461463  1
  In  In24  1  0.14531465  0.49409252  0.65686981  1
  In  In25  1  0.49260191  0.00829916  0.18663124  1
  In  In26  1  0.66526165  0.32477005  0.01248839  1
  In  In27  1  0.83637297  0.33132351  0.16033727  1
  In  In28  1  0.32285142  0.82854471  0.87826437  1
  In  In29  1  0.01483929  0.67038993  0.35037799  1
  In  In30  1  0.66075980  0.47010852  0.19100359  1
  In  In31  1  0.80485266  0.02014131  0.81743379  1
  In  In32  1  0.31582034  -0.01893672  0.03351414  1
  In  In33  1  0.83423568  0.01744151  0.51005127  1
  In  In34  1  0.32389174  0.47909086  0.83170018  1
  In  In35  1  0.83926811  0.17564983  0.35638731  1
  In  In36  1  0.33079123  0.13756634  0.46303982  1
  In  In37  1  0.32926335  0.65513765  0.65359163  1
  In  In38  1  0.01016218  0.01242709  -0.00670059  1
  In  In39  1  0.16701414  0.15804735  0.32890002  1
  In  In40  1  0.65785528  0.82923690  0.81259427  1
  In  In41  1  0.15931899  -0.01130825  0.83624470  1
  In  In42  1  0.48285804  0.85637280  0.32445442  1
  In  In43  1  0.65388968  0.66171529  0.33894046  1
  In  In44  1  0.85120296  0.33532063  0.81995414  1
  In  In45  1  0.51481874  0.66389850  0.80962822  1
  In  In46  1  0.16982121  0.50003093  0.33642086  1
  In  In47  1  0.84266221  0.83519839  0.00367510  1
  In  In48  1  0.86082541  0.65113381  0.16680286  1
  In  In49  1  0.69431402  0.84950234  0.18550703  1
  In  In50  1  0.82940471  0.00655938  0.18419229  1
  In  In51  1  0.82065186  0.85665009  0.32809515  1
  In  In52  1  0.15538857  0.30655224  0.51222443  1
  In  In53  1  0.35150273  0.18015633  0.19890877  1
  In  In54  1  0.66217564  0.02470946  0.65852041  1
  In  In55  1  0.80654887  0.45807380  0.36805403  1
  In  In56  1  -0.01896602  0.17551764  0.80552857  1
  In  In57  1  0.69158872  0.64786531  -0.03064369  1
  In  In58  1  0.00813914  0.31797067  0.34482646  1
  In  In59  1  0.68769210  0.63551968  0.65324877  1
  In  In60  1  0.00348970  0.34777641  0.00186083  1
  In  In61  1  0.65097892  0.01976651  0.01421766  1
  In  In62  1  0.29480188  0.68466482  0.32031771  1
  In  In63  1  0.30867884  0.86004928  0.48278799  1
  In  In64  1  0.50594048  0.48849983  0.34740256  1
  In  In65  1  0.31418641  0.02223996  0.64853988  1
  In  In66  1  0.49630436  0.84693514  0.66041346  1
  In  In67  1  0.32651793  0.19811017  0.82433483  1
  In  In68  1  0.68796808  0.33312259  0.63961145  1
  In  In69  1  0.02756540  0.64831073  -0.00302284  1
  In  In70  1  0.86547289  0.62514190  0.80499385  1
  In  In71  1  0.50157527  0.32466552  0.48603281  1
  Te  Te72  1  0.10776270  0.05741306  0.10432347  1
  Te  Te73  1  0.09902015  0.06049660  0.41916619  1
  Te  Te74  1  0.08502836  0.08103893  0.74093144  1
  Te  Te75  1  0.10127060  0.41168735  0.09234496  1
  Te  Te76  1  0.08187208  0.41800324  0.43245765  1
  Te  Te77  1  0.06260152  0.41424092  0.75517095  1
  Te  Te78  1  0.07890005  0.75076565  0.09521038  1
  Te  Te79  1  0.11724386  0.75686804  0.41248698  1
  Te  Te80  1  0.07903462  0.71923049  0.75751268  1
  Te  Te81  1  0.41073969  0.08819416  0.08434467  1
  Te  Te82  1  0.44175746  0.06905023  0.39332418  1
  Te  Te83  1  0.40708035  0.08920878  0.75107108  1
  Te  Te84  1  0.42662103  0.40670278  0.10321532  1
  Te  Te85  1  0.40126183  0.41493764  0.42114289  1
  Te  Te86  1  0.42984630  0.43192550  0.73253326  1
  Te  Te87  1  0.38188329  0.76975916  0.11759224  1
  Te  Te88  1  0.41367009  0.75741817  0.42331897  1
  Te  Te89  1  0.40810590  0.75757372  0.75095722  1
  Te  Te90  1  0.76074994  0.09928153  0.08469378  1
  Te  Te91  1  0.73589268  0.09352317  0.42813461  1
  Te  Te92  1  0.76848336  0.12293754  0.71180697  1
  Te  Te93  1  0.75775589  0.43078151  0.07617527  1
  Te  Te94  1  0.71148197  0.37209491  0.44846719  1
  Te  Te95  1  0.75210898  0.41889849  0.74471611  1
  Te  Te96  1  0.75040377  0.73999153  0.08778717  1
  Te  Te97  1  0.76190248  0.74426572  0.42393732  1
  Te  Te98  1  0.76436534  0.73752948  0.75072841  1
  Te  Te99  1  0.10154212  0.26544238  0.23825709  1
  Te  Te100  1  0.04296481  0.24963050  0.59105722  1
  Te  Te101  1  0.08525346  0.24099368  0.90720450  1
  Te  Te102  1  0.09442503  0.59757962  0.24212425  1
  Te  Te103  1  0.05133009  0.57489403  0.57281707  1
  Te  Te104  1  0.11483183  0.59914735  0.89063584  1
  Te  Te105  1  0.10080435  0.94392632  0.30472104  1
  Te  Te106  1  0.09738123  0.91790533  0.58000953  1
  Te  Te107  1  0.10132830  0.89835574  0.94501356  1
  Te  Te108  1  0.45177925  0.26125455  0.27769416  1
  Te  Te109  1  0.39633233  0.24030562  0.57624079  1
  Te  Te110  1  0.42333039  0.24069511  0.93588769  1
  Te  Te111  1  0.42256612  0.59629239  0.26359810  1
  Te  Te112  1  0.42297162  0.56434928  0.58582923  1
  Te  Te113  1  0.41623563  0.58919983  0.91236173  1
  Te  Te114  1  0.37744934  0.94385036  0.26118618  1
  Te  Te115  1  0.41326848  0.93621844  0.56823728  1
  Te  Te116  1  0.41740838  0.94144828  0.91539843  1
  Te  Te117  1  0.74967769  0.25769126  0.26032689  1
  Te  Te118  1  0.76920583  0.26019498  0.53720919  1
  Te  Te119  1  0.76304737  0.25225283  0.91945928  1
  Te  Te120  1  0.75677182  0.57965665  0.25621599  1
  Te  Te121  1  0.77710148  0.52985248  0.58892877  1
  Te  Te122  1  0.76000134  0.55059539  0.88194335  1
  Te  Te123  1  0.71883299  0.96341725  0.28302289  1
  Te  Te124  1  0.73852956  0.90765967  0.58278632  1
  Te  Te125  1  0.74225052  0.91848159  0.92276153  1
  Te  Te126  1  0.25462220  0.25265616  0.09895866  1
  Te  Te127  1  0.25603227  0.25797276  0.40453383  1
  Te  Te128  1  0.22217483  0.24016393  0.72185804  1
  Te  Te129  1  0.23115166  0.58337581  0.09778402  1
  Te  Te130  1  0.25111616  0.59077555  0.42382924  1
  Te  Te131  1  0.23972156  0.57831434  0.75078221  1
  Te  Te132  1  0.23919361  0.87525608  0.10356463  1
  Te  Te133  1  0.22036499  0.95742070  0.40876288  1
  Te  Te134  1  0.25687432  0.90878650  0.74854831  1
  Te  Te135  1  0.56931384  0.24219193  0.08724737  1
  Te  Te136  1  0.58402030  0.25499802  0.38298257  1
  Te  Te137  1  0.58354152  0.25450374  0.74807079  1
  Te  Te138  1  0.59922883  0.57382385  0.08391140  1
  Te  Te139  1  0.61096656  0.55812090  0.44064518  1
  Te  Te140  1  0.59669136  0.56170639  0.74412070  1
  Te  Te141  1  0.57516836  0.90998792  0.09232223  1
  Te  Te142  1  0.55622094  0.94748516  0.42109448  1
  Te  Te143  1  0.57279575  0.94216364  0.75384002  1
  Te  Te144  1  0.92061866  0.23915102  0.07285347  1
  Te  Te145  1  0.91175934  0.27115198  0.45037153  1
  Te  Te146  1  0.93045700  0.27401344  0.70212515  1
  Te  Te147  1  0.91277351  0.56395083  0.05295121  1
  Te  Te148  1  0.91669161  0.56685018  0.39995189  1
  Te  Te149  1  0.94962169  0.53820352  0.71269039  1
  Te  Te150  1  0.92488736  0.92111246  0.09958505  1
  Te  Te151  1  0.92107115  0.92919353  0.41783216  1
  Te  Te152  1  0.91190321  0.91708246  0.76531041  1
  Te  Te153  1  0.26404673  0.07023787  0.25169107  1
  Te  Te154  1  0.22426012  0.10162763  0.56251070  1
  Te  Te155  1  0.25304379  0.08383589  0.91343709  1
  Te  Te156  1  0.26143172  0.40472430  0.26769365  1
  Te  Te157  1  0.24678608  0.42412232  0.56667358  1
  Te  Te158  1  0.22541349  0.43501339  0.93997448  1
  Te  Te159  1  0.22957183  0.78477864  0.23320055  1
  Te  Te160  1  0.24190960  0.74363877  0.56614538  1
  Te  Te161  1  0.22032109  0.72454169  0.91122009  1
  Te  Te162  1  0.54947318  0.11436898  0.28315261  1
  Te  Te163  1  0.59735648  0.10851105  0.55537191  1
  Te  Te164  1  0.57353969  0.09092947  0.91137794  1
  Te  Te165  1  0.56605280  0.37418678  0.26189147  1
  Te  Te166  1  0.57702100  0.41287048  0.58070179  1
  Te  Te167  1  0.59544137  0.41756502  0.90919821  1
  Te  Te168  1  0.57856491  0.75700959  0.24700907  1
  Te  Te169  1  0.58877328  0.74618463  0.59049828  1
  Te  Te170  1  0.57806580  0.75130585  0.92901840  1
  Te  Te171  1  0.93034214  0.08692855  0.26732272  1
  Te  Te172  1  0.93846619  0.10906607  0.56876465  1
  Te  Te173  1  0.90770461  0.08914829  0.91220718  1
  Te  Te174  1  0.92000810  0.41767374  0.25518796  1
  Te  Te175  1  0.92732534  0.47332891  0.57412762  1
  Te  Te176  1  0.93811660  0.43011606  0.89864686  1
  Te  Te177  1  0.92037918  0.76320729  0.25407003  1
  Te  Te178  1  0.95523570  0.72537294  0.59412339  1
  Te  Te179  1  0.91158848  0.73603921  0.91104154  1
