# generated using pymatgen
data_In2Te3
_symmetry_space_group_name_H-M   'P 1'
_cell_length_a   18.97809747
_cell_length_b   18.97295658
_cell_length_c   18.98233990
_cell_angle_alpha   90.16774461
_cell_angle_beta   90.16044362
_cell_angle_gamma   89.94964392
_symmetry_Int_Tables_number   1
_chemical_formula_structural   In2Te3
_chemical_formula_sum   'In72 Te108'
_cell_volume   6834.92420255
_cell_formula_units_Z   36
loop_
 _symmetry_equiv_pos_site_id
 _symmetry_equiv_pos_as_xyz
  1  'x, y, z'
loop_
 _atom_site_type_symbol
 _atom_site_label
 _atom_site_symmetry_multiplicity
 _atom_site_fract_x
 _atom_site_fract_y
 _atom_site_fract_z
 _atom_site_occupancy
  In  In0  1  0.50434760  -0.00089287  0.84346909  1
  In  In1  1  0.50302693  0.48691808  0.35115318  1
  In  In2  1  -0.01114072  0.48532078  0.17913086  1
  In  In3  1  0.34850089  0.71574127  0.03984911  1
  In  In4  1  0.52452640  0.29857604  0.85441887  1
  In  In5  1  0.32375348  0.83500533  0.50125683  1
  In  In6  1  0.32144846  0.49454892  0.46297008  1
  In  In7  1  0.15800818  0.68407585  0.15494790  1
  In  In8  1  0.01655846  0.32294932  0.01095362  1
  In  In9  1  0.85598712  0.18324970  -0.00639704  1
  In  In10  1  0.82295356  0.35481633  0.84979455  1
  In  In11  1  -0.00368518  0.68082540  0.66716392  1
  In  In12  1  0.66672150  0.32599040  0.67031558  1
  In  In13  1  0.00712169  0.16014504  0.15406824  1
  In  In14  1  0.31633197  0.11853164  0.85397350  1
  In  In15  1  0.48263301  0.16293835  0.31199516  1
  In  In16  1  0.14579853  0.32624999  0.82472594  1
  In  In17  1  0.49772894  0.68190085  0.84907913  1
  In  In18  1  0.35165321  0.50562263  0.14598504  1
  In  In19  1  0.82822422  0.17693496  0.34940359  1
  In  In20  1  0.00477229  0.83321760  0.50522786  1
  In  In21  1  -0.00617374  0.82678562  0.16501760  1
  In  In22  1  0.15062850  0.81714501  0.35525060  1
  In  In23  1  0.48850905  0.83876307  0.31786066  1
  In  In24  1  0.31096823  0.67949521  0.64711664  1
  In  In25  1  0.84464880  0.47713382  0.01254835  1
  In  In26  1  0.84257354  0.54288507  0.34568813  1
  In  In27  1  0.66995415  0.65753590  0.66364948  1
  In  In28  1  0.47308933  0.30542134  0.16426577  1
  In  In29  1  0.68079021  0.51358306  0.49836075  1
  In  In30  1  0.34989266  0.01046663  0.02891420  1
  In  In31  1  0.66633739  0.81914255  0.84480398  1
  In  In32  1  0.67167008  0.83696026  0.49691716  1
  In  In33  1  0.17221175  0.65932333  0.82565654  1
  In  In34  1  0.83468770  0.66137286  0.83945064  1
  In  In35  1  0.52334688  0.65753057  0.47701602  1
  In  In36  1  0.53276182  0.52275159  0.02142140  1
  In  In37  1  0.14572238  0.47575014  0.33935737  1
  In  In38  1  0.84244015  0.02526033  0.50210771  1
  In  In39  1  0.86273325  0.83071723  -0.02146365  1
  In  In40  1  0.01622190  0.65113452  0.00984607  1
  In  In41  1  0.32123442  0.64958802  0.31251970  1
  In  In42  1  0.01130385  -0.03750548  0.69170330  1
  In  In43  1  0.33937657  0.84433100  0.82655556  1
  In  In44  1  0.49770304  0.33645904  0.50943538  1
  In  In45  1  0.66138335  -0.00872697  0.67388118  1
  In  In46  1  0.33333936  0.35030418  0.66964322  1
  In  In47  1  0.66193484  0.35382434  0.33246247  1
  In  In48  1  0.47358763  0.01034012  0.50010591  1
  In  In49  1  0.82858074  -0.02314088  0.16730285  1
  In  In50  1  0.68659580  0.66854279  0.01340338  1
  In  In51  1  0.65153631  0.14644019  0.18495518  1
  In  In52  1  0.19354852  0.16355127  0.67488116  1
  In  In53  1  0.48997968  0.53372842  0.68187606  1
  In  In54  1  -0.00307516  0.15397332  0.81972074  1
  In  In55  1  0.34298961  0.47747476  0.85007978  1
  In  In56  1  0.16587234  0.00414393  0.15974019  1
  In  In57  1  0.67225433  0.17264532  0.51303542  1
  In  In58  1  0.66835028  0.33273087  0.01889026  1
  In  In59  1  0.83427305  0.81934524  0.33115546  1
  In  In60  1  0.83679956  0.50263605  0.65742312  1
  In  In61  1  0.30994557  0.30911645  0.00066631  1
  In  In62  1  0.31906218  -0.01544342  0.67763295  1
  In  In63  1  0.17857390  0.33296672  0.17548937  1
  In  In64  1  0.02295922  0.03530646  0.35229093  1
  In  In65  1  0.16264119  0.52771538  0.63000088  1
  In  In66  1  0.33552687  0.00393444  0.31234781  1
  In  In67  1  -0.00535703  0.35206967  0.65965967  1
  In  In68  1  0.66078323  0.83723381  0.16208407  1
  In  In69  1  0.65607571  0.00214938  0.01187853  1
  In  In70  1  0.82123908  0.15391579  0.67164864  1
  In  In71  1  0.03241330  0.17689058  0.49300260  1
  Te  Te72  1  0.06810470  0.06262801  0.06463233  1
  Te  Te73  1  0.13428437  0.11837085  0.40171015  1
  Te  Te74  1  0.10696660  0.07284804  0.75673225  1
  Te  Te75  1  0.09520916  0.42639727  0.08785447  1
  Te  Te76  1  0.08581377  0.38256098  0.43578585  1
  Te  Te77  1  0.09558190  0.43808238  0.73472531  1
  Te  Te78  1  0.08970348  0.77742090  0.05784254  1
  Te  Te79  1  0.03290205  0.73277209  0.39454153  1
  Te  Te80  1  0.10639000  0.75626949  0.73562894  1
  Te  Te81  1  0.43783945  0.12601631  0.05162180  1
  Te  Te82  1  0.38986979  0.10420603  0.41770843  1
  Te  Te83  1  0.41558132  0.07994857  0.74939597  1
  Te  Te84  1  0.42196434  0.40487725  0.05577238  1
  Te  Te85  1  0.40207602  0.38213258  0.40040764  1
  Te  Te86  1  0.44806924  0.40669998  0.76267131  1
  Te  Te87  1  0.43829761  0.77222982  0.13845190  1
  Te  Te88  1  0.40881662  0.73501272  0.41201245  1
  Te  Te89  1  0.41475986  0.74213729  0.73740867  1
  Te  Te90  1  0.76553508  0.09242998  0.08961636  1
  Te  Te91  1  0.73070261  0.07661566  0.41206844  1
  Te  Te92  1  0.74291066  0.07496299  0.76386510  1
  Te  Te93  1  0.75295070  0.41318482  0.10564484  1
  Te  Te94  1  0.76311505  0.41547705  0.42282865  1
  Te  Te95  1  0.73846360  0.43219661  0.75043866  1
  Te  Te96  1  0.77531739  0.76732271  0.08474435  1
  Te  Te97  1  0.76472245  0.74216973  0.43456130  1
  Te  Te98  1  0.75808119  0.75142942  0.74504817  1
  Te  Te99  1  0.06943935  0.25827848  0.24896471  1
  Te  Te100  1  0.10237649  0.25972816  0.60185468  1
  Te  Te101  1  0.09010970  0.22564073  0.92148915  1
  Te  Te102  1  0.08982956  0.58307611  0.24110813  1
  Te  Te103  1  0.04563872  0.58642201  0.55805713  1
  Te  Te104  1  0.09471059  0.57291151  0.91402402  1
  Te  Te105  1  0.07615937  0.91771278  0.26049244  1
  Te  Te106  1  0.08163409  0.94155275  0.56466122  1
  Te  Te107  1  0.00054183  0.93104263  0.84201036  1
  Te  Te108  1  0.37152431  0.23121555  0.24033341  1
  Te  Te109  1  0.41149017  0.25376446  0.59241777  1
  Te  Te110  1  0.41653768  0.21829382  0.92897283  1
  Te  Te111  1  0.43774222  0.57978768  0.24653815  1
  Te  Te112  1  0.41295416  0.57739770  0.55869544  1
  Te  Te113  1  0.42154677  0.58091823  0.93173789  1
  Te  Te114  1  0.39234513  0.89883910  0.21948196  1
  Te  Te115  1  0.42012885  0.90427991  0.59326302  1
  Te  Te116  1  0.42402175  0.90967915  0.93272119  1
  Te  Te117  1  0.74004142  0.25155379  0.25024326  1
  Te  Te118  1  0.77081280  0.26544482  0.57912135  1
  Te  Te119  1  0.74195224  0.24716823  0.91549286  1
  Te  Te120  1  0.72451158  0.57022229  0.26270079  1
  Te  Te121  1  0.77620579  0.61033211  0.56672723  1
  Te  Te122  1  0.75522592  0.56726114  0.92509645  1
  Te  Te123  1  0.73678069  0.91845815  0.26979635  1
  Te  Te124  1  0.76291342  0.92452834  0.58317312  1
  Te  Te125  1  0.74925416  0.91635349  0.92436070  1
  Te  Te126  1  0.22165904  0.22685733  0.08114764  1
  Te  Te127  1  0.17257195  0.28836441  0.36497655  1
  Te  Te128  1  0.27334848  0.25775968  0.77651176  1
  Te  Te129  1  0.25749914  0.59928763  0.07373506  1
  Te  Te130  1  0.22133195  0.59368288  0.41119892  1
  Te  Te131  1  0.27278130  0.56117724  0.74315452  1
  Te  Te132  1  0.24769752  0.91303641  0.07624483  1
  Te  Te133  1  0.24625466  0.92437778  0.40790441  1
  Te  Te134  1  0.22964843  0.87976016  0.73337245  1
  Te  Te135  1  0.57325756  0.22631314  0.08008414  1
  Te  Te136  1  0.58176198  0.24454239  0.41002827  1
  Te  Te137  1  0.58270757  0.22993606  0.73877963  1
  Te  Te138  1  0.62032474  0.58947898  0.12051813  1
  Te  Te139  1  0.62066194  0.59256493  0.37608056  1
  Te  Te140  1  0.59444783  0.58999573  0.77666858  1
  Te  Te141  1  0.56393877  0.92755456  0.09647580  1
  Te  Te142  1  0.56613230  0.91905979  0.42264895  1
  Te  Te143  1  0.57372247  0.89640621  0.75351201  1
  Te  Te144  1  0.90974372  0.27194190  0.10295263  1
  Te  Te145  1  0.93003887  0.25420184  0.41933292  1
  Te  Te146  1  0.90666030  0.26562777  0.75739439  1
  Te  Te147  1  0.90956972  0.58614251  0.09501386  1
  Te  Te148  1  0.95660623  0.59770706  0.42416558  1
  Te  Te149  1  0.92612372  0.57515334  0.75553296  1
  Te  Te150  1  0.93520798  0.93130504  0.06938448  1
  Te  Te151  1  0.91754791  0.93435184  0.40727439  1
  Te  Te152  1  0.88771543  0.91136957  0.75225193  1
  Te  Te153  1  0.25742153  0.09935954  0.22893727  1
  Te  Te154  1  0.26106087  0.07676235  0.57956681  1
  Te  Te155  1  0.23913232  0.01903379  0.92731357  1
  Te  Te156  1  0.26514462  0.43630181  0.24624676  1
  Te  Te157  1  0.24413717  0.41399578  0.56571427  1
  Te  Te158  1  0.22956856  0.41325575  0.92401818  1
  Te  Te159  1  0.24538651  0.76416233  0.24913837  1
  Te  Te160  1  0.22237789  0.73898511  0.54840333  1
  Te  Te161  1  0.26672673  0.74448871  0.91492132  1
  Te  Te162  1  0.55256617  0.05505508  0.24129395  1
  Te  Te163  1  0.57614401  0.08431987  0.58751937  1
  Te  Te164  1  0.59170573  0.09222272  0.91599557  1
  Te  Te165  1  0.56169388  0.40898788  0.23351096  1
  Te  Te166  1  0.57917800  0.44189902  0.58600321  1
  Te  Te167  1  0.58873128  0.41949466  0.92239395  1
  Te  Te168  1  0.59445483  0.75403044  0.26365939  1
  Te  Te169  1  0.57787035  0.74755798  0.58453867  1
  Te  Te170  1  0.57856540  0.75723354  0.95197764  1
  Te  Te171  1  0.90993323  0.07957505  0.25139270  1
  Te  Te172  1  0.93808116  0.09921051  0.59261020  1
  Te  Te173  1  0.90678144  0.07589289  0.90569983  1
  Te  Te174  1  0.91090632  0.42573211  0.28657221  1
  Te  Te175  1  0.92468122  0.43475016  0.56127673  1
  Te  Te176  1  0.94445097  0.41735748  0.91458674  1
  Te  Te177  1  0.90834450  0.73348819  0.23697851  1
  Te  Te178  1  0.90843306  0.77865961  0.60059975  1
  Te  Te179  1  0.95072035  0.73693767  0.89945408  1
