# generated using pymatgen
data_In2Te3
_symmetry_space_group_name_H-M   'P 1'
_cell_length_a   18.87643859
_cell_length_b   18.88395273
_cell_length_c   18.87664846
_cell_angle_alpha   89.98796841
_cell_angle_beta   89.97792140
_cell_angle_gamma   90.09692526
_symmetry_Int_Tables_number   1
_chemical_formula_structural   In2Te3
_chemical_formula_sum   'In72 Te108'
_cell_volume   6728.79332172
_cell_formula_units_Z   36
loop_
 _symmetry_equiv_pos_site_id
 _symmetry_equiv_pos_as_xyz
  1  'x, y, z'
loop_
 _atom_site_type_symbol
 _atom_site_label
 _atom_site_symmetry_multiplicity
 _atom_site_fract_x
 _atom_site_fract_y
 _atom_site_fract_z
 _atom_site_occupancy
  In  In0  1  0.51921013  0.85828646  -0.00666555  1
  In  In1  1  0.64693891  0.03638306  0.32452607  1
  In  In2  1  0.50884500  0.33815416  0.82983129  1
  In  In3  1  -0.01239500  0.16987217  0.83974540  1
  In  In4  1  -0.03119269  0.63270134  0.37029316  1
  In  In5  1  -0.00682394  0.18126420  0.49314181  1
  In  In6  1  0.33787899  0.83976193  0.49441094  1
  In  In7  1  0.69379522  0.48007730  0.18220584  1
  In  In8  1  0.48816725  0.17861489  0.01180182  1
  In  In9  1  0.69338180  0.65436871  0.31324712  1
  In  In10  1  0.84059439  0.83388759  0.32635147  1
  In  In11  1  0.68030977  0.84657228  0.48800081  1
  In  In12  1  0.70559275  0.63447361  0.67569231  1
  In  In13  1  0.50863022  0.67229155  0.51814851  1
  In  In14  1  0.15536335  0.15772172  0.67029817  1
  In  In15  1  0.16695459  0.01424196  0.89024661  1
  In  In16  1  0.12454011  0.51601910  -0.02838758  1
  In  In17  1  0.81504906  0.02152906  0.47880038  1
  In  In18  1  -0.01019190  0.83188212  0.50215655  1
  In  In19  1  0.48876899  0.84645622  0.32809911  1
  In  In20  1  0.50705031  0.31738676  0.49033225  1
  In  In21  1  0.51880689  0.49884589  0.66442604  1
  In  In22  1  0.85131273  0.48295302  0.66996395  1
  In  In23  1  0.67459326  0.80169716  0.81646334  1
  In  In24  1  0.84978654  0.50436336  -0.00896483  1
  In  In25  1  0.13525435  0.48259248  0.66734674  1
  In  In26  1  0.67623839  0.83698481  0.14015670  1
  In  In27  1  -0.02887030  0.47137808  0.18913763  1
  In  In28  1  0.83760282  0.18879189  0.65823736  1
  In  In29  1  0.49345174  0.84393855  0.67299003  1
  In  In30  1  0.14373964  0.35117590  0.49660411  1
  In  In31  1  0.32042987  0.19216849  0.15944723  1
  In  In32  1  0.16689149  0.48535639  0.34049262  1
  In  In33  1  0.32481534  0.15406530  0.83268797  1
  In  In34  1  -0.00075992  0.65638226  0.65723273  1
  In  In35  1  0.33402722  0.48078434  0.82670099  1
  In  In36  1  0.17668057  -0.00912099  0.49851137  1
  In  In37  1  -0.01685083  0.81033111  0.82913041  1
  In  In38  1  0.50002958  0.66356802  0.15227258  1
  In  In39  1  0.34519640  0.64215477  0.00916210  1
  In  In40  1  0.67755448  0.17439138  0.85421146  1
  In  In41  1  0.15829124  0.68017385  0.17736895  1
  In  In42  1  0.15036751  0.84678641  0.32095292  1
  In  In43  1  0.30982731  -0.01705509  0.00557296  1
  In  In44  1  0.33898263  0.46901646  0.16961995  1
  In  In45  1  0.33556020  0.85929602  0.17789577  1
  In  In46  1  0.17166326  0.33506881  0.85183560  1
  In  In47  1  0.68170754  0.01428366  0.01974368  1
  In  In48  1  0.16929275  0.63783876  0.50693913  1
  In  In49  1  0.33314790  0.81989137  0.83949379  1
  In  In50  1  0.18853763  0.83125705  0.00698222  1
  In  In51  1  0.49663990  0.16372518  0.64851574  1
  In  In52  1  0.65729993  -0.00463153  0.65458966  1
  In  In53  1  0.83282054  -0.01395570  0.83284858  1
  In  In54  1  0.48752401  0.48315964  0.02205335  1
  In  In55  1  0.66467799  0.32097314  0.00670513  1
  In  In56  1  0.32309910  0.00413787  0.67469420  1
  In  In57  1  0.69657840  0.66769567  -0.00655347  1
  In  In58  1  0.82484008  0.17620742  0.00826446  1
  In  In59  1  0.85131959  0.81801945  -0.00083720  1
  In  In60  1  0.47189584  0.06273586  0.46186800  1
  In  In61  1  0.32865944  0.64031598  0.67643929  1
  In  In62  1  0.51117805  0.50114979  0.32873976  1
  In  In63  1  0.83092859  0.34986437  0.49215290  1
  In  In64  1  0.85840270  0.02107557  0.20880184  1
  In  In65  1  0.69048260  0.34628719  0.65522481  1
  In  In66  1  0.68092505  0.32950363  0.32703781  1
  In  In67  1  0.33670841  0.32557434  0.33165948  1
  In  In68  1  -0.01624977  0.34151902  0.01801378  1
  In  In69  1  0.14069058  0.83122311  0.65739492  1
  In  In70  1  0.14708238  0.19787529  0.32324614  1
  In  In71  1  0.00017449  0.84870712  0.16872053  1
  Te  Te72  1  0.11460531  0.04224842  0.02545478  1
  Te  Te73  1  0.09126428  0.09068180  0.42102472  1
  Te  Te74  1  0.08373890  0.07219167  0.77131735  1
  Te  Te75  1  0.08247450  0.43194249  0.09178789  1
  Te  Te76  1  0.05490240  0.40087334  0.38865677  1
  Te  Te77  1  0.06655460  0.41528557  0.78235475  1
  Te  Te78  1  0.07325221  0.75199310  0.07610615  1
  Te  Te79  1  0.09685676  0.75292037  0.42789529  1
  Te  Te80  1  0.09313033  0.72995923  0.75571324  1
  Te  Te81  1  0.40006482  0.07815260  0.08421020  1
  Te  Te82  1  0.37743117  0.10675242  0.35768347  1
  Te  Te83  1  0.43142281  0.07562788  0.75457214  1
  Te  Te84  1  0.42195535  0.37361887  0.09446999  1
  Te  Te85  1  0.41785742  0.42084829  0.41783275  1
  Te  Te86  1  0.41771836  0.40192018  0.72675426  1
  Te  Te87  1  0.41345090  0.76961841  0.07384211  1
  Te  Te88  1  0.41950708  0.74078553  0.41339769  1
  Te  Te89  1  0.42390708  0.73413242  0.75262446  1
  Te  Te90  1  0.75801638  0.09624711  0.12115693  1
  Te  Te91  1  0.76813288  0.10789699  0.36983861  1
  Te  Te92  1  0.74813605  0.08678368  0.74933964  1
  Te  Te93  1  0.77526529  0.39564595  0.08333319  1
  Te  Te94  1  0.74189240  0.43952997  0.40987668  1
  Te  Te95  1  0.74034824  0.43591601  0.75943632  1
  Te  Te96  1  0.77842218  0.73270558  0.10504936  1
  Te  Te97  1  0.76429425  0.74078924  0.41958115  1
  Te  Te98  1  0.78279332  0.74482583  0.73632553  1
  Te  Te99  1  0.06552535  0.23612350  0.20390056  1
  Te  Te100  1  0.06813851  0.25908746  0.60074127  1
  Te  Te101  1  0.07564388  0.25000316  0.93488342  1
  Te  Te102  1  0.07247206  0.58701661  0.26520354  1
  Te  Te103  1  0.05534940  0.55450836  0.55690994  1
  Te  Te104  1  0.03374350  0.60872820  0.90361115  1
  Te  Te105  1  0.06120470  0.94672265  0.26076660  1
  Te  Te106  1  0.06382522  0.93891203  0.58660206  1
  Te  Te107  1  0.07648238  0.89173549  0.92066671  1
  Te  Te108  1  0.43138804  0.22344020  0.26897471  1
  Te  Te109  1  0.40479120  0.24388261  0.56835939  1
  Te  Te110  1  0.40758295  0.26017453  0.91108388  1
  Te  Te111  1  0.41206391  0.58238034  0.24461338  1
  Te  Te112  1  0.41250968  0.56877170  0.57361626  1
  Te  Te113  1  0.43020562  0.56839392  0.90815383  1
  Te  Te114  1  0.42818794  0.95162760  0.24591501  1
  Te  Te115  1  0.42371241  0.93783391  0.57442776  1
  Te  Te116  1  0.41483724  0.92872921  0.90751602  1
  Te  Te117  1  0.78027687  0.29956106  0.21993053  1
  Te  Te118  1  0.73969289  0.24142471  0.55694696  1
  Te  Te119  1  0.77489020  0.27702734  0.90631552  1
  Te  Te120  1  0.79306648  0.57369498  0.24032307  1
  Te  Te121  1  0.77956739  0.56749158  0.56488739  1
  Te  Te122  1  0.74972405  0.56729200  0.90097691  1
  Te  Te123  1  0.73463447  0.91789060  0.25651808  1
  Te  Te124  1  0.76929046  0.91926463  0.58727894  1
  Te  Te125  1  0.74183294  0.90103711  0.92733556  1
  Te  Te126  1  0.21206313  0.24089195  0.07310391  1
  Te  Te127  1  0.24121843  0.25593457  0.42778612  1
  Te  Te128  1  0.24748798  0.25329848  0.74610402  1
  Te  Te129  1  0.24572593  0.57850224  0.10448212  1
  Te  Te130  1  0.25793459  0.58075209  0.40666666  1
  Te  Te131  1  0.22809809  0.56796533  0.76106612  1
  Te  Te132  1  0.21614327  0.93536951  0.11829836  1
  Te  Te133  1  0.26424286  0.92515061  0.39392336  1
  Te  Te134  1  0.23939848  0.90568459  0.75395227  1
  Te  Te135  1  0.59718777  0.22775920  0.10225726  1
  Te  Te136  1  0.58484879  0.23434070  0.39299242  1
  Te  Te137  1  0.59473321  0.24577481  0.74240523  1
  Te  Te138  1  0.60354604  0.57454121  0.08717532  1
  Te  Te139  1  0.59376792  0.59658726  0.41398654  1
  Te  Te140  1  0.58466137  0.59811288  0.74936351  1
  Te  Te141  1  0.57444103  0.94462068  0.10551609  1
  Te  Te142  1  0.57384442  0.93231253  0.42230198  1
  Te  Te143  1  0.58805669  0.91873769  0.76646382  1
  Te  Te144  1  0.94415761  0.21476537  0.09531738  1
  Te  Te145  1  0.90949670  0.26011601  0.39826616  1
  Te  Te146  1  0.91229379  0.26653896  0.75688100  1
  Te  Te147  1  0.91889979  0.57628963  0.10023223  1
  Te  Te148  1  0.86675710  0.54569404  0.43332283  1
  Te  Te149  1  0.93743857  0.56776361  0.76024005  1
  Te  Te150  1  0.90052866  0.93250140  0.09032565  1
  Te  Te151  1  0.91981525  0.93205130  0.41032700  1
  Te  Te152  1  0.92367280  0.91409192  0.74427253  1
  Te  Te153  1  0.24399445  0.10490391  0.25465328  1
  Te  Te154  1  0.25763726  0.09620505  0.57459796  1
  Te  Te155  1  0.23828032  0.13780539  0.96163277  1
  Te  Te156  1  0.23203818  0.38861808  0.24131535  1
  Te  Te157  1  0.23879189  0.42609437  0.58043098  1
  Te  Te158  1  0.24903329  0.43014058  0.94342681  1
  Te  Te159  1  0.26107437  0.75537975  0.25999169  1
  Te  Te160  1  0.25690046  0.75302979  0.59057213  1
  Te  Te161  1  0.25012543  0.72084774  0.91982956  1
  Te  Te162  1  0.57740512  0.14106990  0.24619085  1
  Te  Te163  1  0.59396394  0.09087593  0.55729917  1
  Te  Te164  1  0.58181727  0.08485694  0.92847958  1
  Te  Te165  1  0.57428951  0.40233606  0.23502824  1
  Te  Te166  1  0.59758655  0.42081444  0.56128738  1
  Te  Te167  1  0.58976958  0.42417112  0.92347578  1
  Te  Te168  1  0.58587559  0.75263127  0.24286603  1
  Te  Te169  1  0.60045818  0.76725672  0.59348947  1
  Te  Te170  1  0.58049079  0.74057074  0.92164590  1
  Te  Te171  1  0.95530027  0.12939595  0.23828913  1
  Te  Te172  1  0.91439114  0.08467646  0.58080710  1
  Te  Te173  1  0.90921843  0.07380195  0.92944070  1
  Te  Te174  1  0.90282791  0.37511879  0.27907234  1
  Te  Te175  1  0.93144885  0.38210049  0.59597049  1
  Te  Te176  1  0.94712451  0.43043170  0.90236326  1
  Te  Te177  1  0.94173502  0.74126267  0.26510646  1
  Te  Te178  1  0.90524949  0.74256758  0.58240479  1
  Te  Te179  1  0.91122349  0.70843819  0.91607067  1
