# generated using pymatgen
data_In2Te3
_symmetry_space_group_name_H-M   'P 1'
_cell_length_a   18.81293563
_cell_length_b   18.82254563
_cell_length_c   18.81240449
_cell_angle_alpha   90.04547575
_cell_angle_beta   90.09132445
_cell_angle_gamma   89.93514308
_symmetry_Int_Tables_number   1
_chemical_formula_structural   In2Te3
_chemical_formula_sum   'In72 Te108'
_cell_volume   6661.59567888
_cell_formula_units_Z   36
loop_
 _symmetry_equiv_pos_site_id
 _symmetry_equiv_pos_as_xyz
  1  'x, y, z'
loop_
 _atom_site_type_symbol
 _atom_site_label
 _atom_site_symmetry_multiplicity
 _atom_site_fract_x
 _atom_site_fract_y
 _atom_site_fract_z
 _atom_site_occupancy
  In  In0  1  0.15115825  0.68509925  0.15903960  1
  In  In1  1  0.50361532  0.67012585  0.13503531  1
  In  In2  1  0.01126883  0.16672673  0.15161516  1
  In  In3  1  0.85559612  0.84005769  0.67655642  1
  In  In4  1  0.17365731  0.33046252  0.18401800  1
  In  In5  1  0.67477284  0.81998707  0.15013933  1
  In  In6  1  0.67773886  0.67833757  0.66567903  1
  In  In7  1  -0.00941605  0.33947521  0.35115293  1
  In  In8  1  0.83289241  0.81024476  0.31643073  1
  In  In9  1  0.34980928  0.02543294  0.70246350  1
  In  In10  1  0.65073270  0.18044886  0.83023604  1
  In  In11  1  0.16342724  0.33464668  0.82741338  1
  In  In12  1  0.67479654  0.85127902  0.82410108  1
  In  In13  1  0.35608269  -0.02465735  0.29322296  1
  In  In14  1  0.17913577  0.15239601  0.01582036  1
  In  In15  1  0.50842049  0.83908521  0.68159045  1
  In  In16  1  0.49010021  0.84312842  0.01836940  1
  In  In17  1  0.64215879  -0.01398358  0.31516462  1
  In  In18  1  0.34115770  0.34029268  0.70418149  1
  In  In19  1  0.33056923  0.34841685  0.36027147  1
  In  In20  1  0.14997885  0.52679967  -0.02066987  1
  In  In21  1  0.47869027  0.65917699  0.85920302  1
  In  In22  1  0.83600981  0.18601040  0.65740659  1
  In  In23  1  0.79669625  0.00535113  0.51118140  1
  In  In24  1  0.48508856  0.48311474  0.33425445  1
  In  In25  1  0.80907330  0.52618665  0.33194383  1
  In  In26  1  0.66293271  0.18160634  0.49742450  1
  In  In27  1  0.84955722  -0.02913421  0.10590309  1
  In  In28  1  0.17864454  0.66114074  0.50608361  1
  In  In29  1  0.33899439  0.14612681  0.15991886  1
  In  In30  1  0.01023608  -0.01081117  0.67668494  1
  In  In31  1  0.18345232  -0.02467735  0.16666342  1
  In  In32  1  0.50490036  -0.00357236  0.48533029  1
  In  In33  1  0.84271640  0.49618658  -0.02869381  1
  In  In34  1  0.15194531  0.81231069  -0.02195916  1
  In  In35  1  0.51498467  0.32175061  0.15938290  1
  In  In36  1  -0.01397718  0.50158469  0.51403280  1
  In  In37  1  0.01758479  0.18232230  0.51405969  1
  In  In38  1  0.67102371  0.33139458  0.33960415  1
  In  In39  1  0.83735148  -0.00946563  0.85530844  1
  In  In40  1  0.48192634  0.65228281  0.49991848  1
  In  In41  1  0.64463989  0.32822149  -0.02097501  1
  In  In42  1  0.33807350  0.18869946  0.52115985  1
  In  In43  1  0.16074941  -0.00530324  0.52327646  1
  In  In44  1  0.17598754  0.83980323  0.32874055  1
  In  In45  1  0.80227685  0.33481471  0.16574416  1
  In  In46  1  0.33232827  0.48721189  0.14994310  1
  In  In47  1  0.84120778  0.66219556  0.49606140  1
  In  In48  1  0.64398397  0.49157500  0.49995276  1
  In  In49  1  0.84740806  0.67221804  0.15372756  1
  In  In50  1  0.66687286  0.68955361  0.29833916  1
  In  In51  1  0.85206273  0.50368174  0.70457319  1
  In  In52  1  0.31700457  0.66790882  0.33930965  1
  In  In53  1  -0.01103469  0.16384330  0.82586353  1
  In  In54  1  0.17670393  -0.00418368  0.84819020  1
  In  In55  1  0.36238031  0.31714697  -0.04211110  1
  In  In56  1  -0.01377651  0.35314667  -0.01469068  1
  In  In57  1  0.31957611  0.81625200  0.52079868  1
  In  In58  1  0.00318704  -0.00485281  0.33331933  1
  In  In59  1  0.16331813  0.52695960  0.71289743  1
  In  In60  1  0.48678796  0.50220090  0.66255772  1
  In  In61  1  0.01007594  0.51806573  0.17861757  1
  In  In62  1  0.66920253  0.49611312  0.83793443  1
  In  In63  1  0.66657001  0.66552641  0.01123039  1
  In  In64  1  0.80318661  0.16264623  -0.01807831  1
  In  In65  1  0.66698322  0.01260742  0.66003853  1
  In  In66  1  0.16749146  0.34367206  0.52622586  1
  In  In67  1  0.00516690  0.83841298  0.50119805  1
  In  In68  1  0.84706584  0.18898976  0.32227575  1
  In  In69  1  0.50208197  0.16450774  0.33263287  1
  In  In70  1  0.33639207  0.00390892  -0.01260263  1
  In  In71  1  0.33355898  0.81392642  0.84153555  1
  Te  Te72  1  0.08390972  0.05321820  0.07917273  1
  Te  Te73  1  0.09016367  0.08420498  0.42055403  1
  Te  Te74  1  0.09757542  0.08758917  0.75081146  1
  Te  Te75  1  0.09078944  0.41437638  0.08625873  1
  Te  Te76  1  0.08895942  0.42796656  0.42475851  1
  Te  Te77  1  0.06639645  0.42363327  0.75996342  1
  Te  Te78  1  0.04747681  0.74964942  0.06963654  1
  Te  Te79  1  0.08997560  0.74787820  0.41357123  1
  Te  Te80  1  0.07080164  0.71854712  0.78992252  1
  Te  Te81  1  0.43376461  0.07682774  0.07312410  1
  Te  Te82  1  0.40062425  0.08457746  0.41437928  1
  Te  Te83  1  0.44545359  0.12197854  0.76633732  1
  Te  Te84  1  0.43077950  0.40766919  0.06467360  1
  Te  Te85  1  0.42230630  0.41980412  0.45110084  1
  Te  Te86  1  0.42705718  0.43590135  0.78658725  1
  Te  Te87  1  0.40044039  0.73088135  0.04841230  1
  Te  Te88  1  0.41323361  0.76071417  0.41467745  1
  Te  Te89  1  0.41556974  0.73454384  0.73930206  1
  Te  Te90  1  0.75076756  0.07746569  0.08999723  1
  Te  Te91  1  0.74002948  0.09190937  0.39852331  1
  Te  Te92  1  0.76653462  0.08207574  0.75334385  1
  Te  Te93  1  0.73985974  0.42220066  0.05970381  1
  Te  Te94  1  0.76065935  0.41845889  0.42672055  1
  Te  Te95  1  0.73389409  0.41523690  0.73188030  1
  Te  Te96  1  0.77945004  0.76315031  0.05244064  1
  Te  Te97  1  0.74104335  0.74965635  0.42074407  1
  Te  Te98  1  0.77009720  0.74840179  0.76469907  1
  Te  Te99  1  0.07785457  0.24447853  0.26538401  1
  Te  Te100  1  0.09328418  0.25335426  0.61651265  1
  Te  Te101  1  0.08159749  0.24084121  0.93537686  1
  Te  Te102  1  0.10994958  0.58648824  0.26119223  1
  Te  Te103  1  0.07851359  0.58920472  0.59705807  1
  Te  Te104  1  0.05124406  0.59120515  0.88472079  1
  Te  Te105  1  0.06914960  0.89901782  0.23657375  1
  Te  Te106  1  0.10086839  0.88475845  0.61114898  1
  Te  Te107  1  0.07012751  0.92130738  0.91725087  1
  Te  Te108  1  0.40374347  0.26286185  0.25213230  1
  Te  Te109  1  0.42915372  0.26786183  0.60525574  1
  Te  Te110  1  0.45828586  0.21326540  0.90091202  1
  Te  Te111  1  0.41660668  0.58536728  0.24300660  1
  Te  Te112  1  0.38545431  0.58187499  0.58630377  1
  Te  Te113  1  0.38232065  0.55441690  0.90249542  1
  Te  Te114  1  0.44794855  0.89525473  0.21520805  1
  Te  Te115  1  0.41262921  0.92614469  0.59331252  1
  Te  Te116  1  0.42783124  0.91915137  0.89930589  1
  Te  Te117  1  0.72328987  0.22800943  0.24027125  1
  Te  Te118  1  0.72687394  0.26691568  0.59935206  1
  Te  Te119  1  0.75855558  0.27241920  0.88952827  1
  Te  Te120  1  0.73564283  0.58371663  0.21212545  1
  Te  Te121  1  0.75270318  0.57365552  0.58291981  1
  Te  Te122  1  0.75651184  0.60199596  0.90417283  1
  Te  Te123  1  0.76573064  0.92035561  0.23713768  1
  Te  Te124  1  0.73625770  0.89307018  0.59365251  1
  Te  Te125  1  0.73186113  0.92896798  0.93813170  1
  Te  Te126  1  0.26543577  0.26334454  0.07951565  1
  Te  Te127  1  0.23546908  0.24942313  0.42476724  1
  Te  Te128  1  0.25638752  0.23599302  0.76792614  1
  Te  Te129  1  0.24669130  0.59232286  0.07878454  1
  Te  Te130  1  0.27621597  0.56862126  0.44121016  1
  Te  Te131  1  0.27379667  0.58680122  0.79976162  1
  Te  Te132  1  0.25684762  0.89658408  0.06056965  1
  Te  Te133  1  0.25775830  0.92660448  0.42331771  1
  Te  Te134  1  0.25801691  0.91224087  0.75052687  1
  Te  Te135  1  0.59210112  0.22740349  0.07486796  1
  Te  Te136  1  0.56074945  0.27052919  0.42484820  1
  Te  Te137  1  0.54196225  0.24262084  0.74792999  1
  Te  Te138  1  0.56841726  0.56524085  0.05418512  1
  Te  Te139  1  0.58850843  0.59316406  0.39666899  1
  Te  Te140  1  0.58045512  0.59829799  0.75095138  1
  Te  Te141  1  0.60040544  0.92305970  0.07461062  1
  Te  Te142  1  0.59486120  0.89867775  0.42288964  1
  Te  Te143  1  0.57444749  0.95003384  0.76389184  1
  Te  Te144  1  0.90719191  0.25670041  0.08243368  1
  Te  Te145  1  0.90179728  0.25802683  0.44643169  1
  Te  Te146  1  0.92606769  0.26688593  0.74167433  1
  Te  Te147  1  0.93212640  0.58042707  0.06390217  1
  Te  Te148  1  0.93075723  0.58836873  0.39743303  1
  Te  Te149  1  0.93609215  0.61516047  0.76055569  1
  Te  Te150  1  0.93891084  0.86640068  0.05980009  1
  Te  Te151  1  0.90163242  0.92152163  0.42341079  1
  Te  Te152  1  0.94290139  0.90445007  0.78471859  1
  Te  Te153  1  0.24314018  0.08198744  0.25720562  1
  Te  Te154  1  0.25252651  0.08946851  0.60115888  1
  Te  Te155  1  0.26804825  0.10939117  0.89980882  1
  Te  Te156  1  0.24615442  0.43625064  0.26601944  1
  Te  Te157  1  0.24771621  0.43061244  0.62090310  1
  Te  Te158  1  0.24226196  0.41302060  0.93121461  1
  Te  Te159  1  0.26485171  0.76365241  0.23243547  1
  Te  Te160  1  0.23947918  0.74027975  0.61654883  1
  Te  Te161  1  0.22841270  0.71581658  0.88839186  1
  Te  Te162  1  0.55397045  0.06971395  0.23199840  1
  Te  Te163  1  0.56733197  0.09661178  0.58148480  1
  Te  Te164  1  0.57222477  0.11093169  0.93379085  1
  Te  Te165  1  0.59312752  0.42255431  0.24453559  1
  Te  Te166  1  0.59318952  0.40960972  0.61259840  1
  Te  Te167  1  0.55731993  0.41079355  0.88917868  1
  Te  Te168  1  0.55127089  0.77866262  0.24403001  1
  Te  Te169  1  0.57504636  0.74850098  0.57722199  1
  Te  Te170  1  0.58617484  0.75658765  0.91018299  1
  Te  Te171  1  0.91647258  0.08024557  0.23910439  1
  Te  Te172  1  0.92013215  0.06891888  0.58216663  1
  Te  Te173  1  0.92639094  0.08300970  0.93821138  1
  Te  Te174  1  0.90593984  0.41676721  0.24535335  1
  Te  Te175  1  0.91062092  0.41291426  0.60289184  1
  Te  Te176  1  0.92392987  0.42207781  0.86899524  1
  Te  Te177  1  0.93749696  0.72739728  0.25762110  1
  Te  Te178  1  0.93222881  0.73863745  0.59128872  1
  Te  Te179  1  0.95393624  0.72004577  0.87983514  1
