# generated using pymatgen
data_In2Te3
_symmetry_space_group_name_H-M   'P 1'
_cell_length_a   18.78914257
_cell_length_b   18.78172126
_cell_length_c   18.79147786
_cell_angle_alpha   90.08979486
_cell_angle_beta   89.98479165
_cell_angle_gamma   89.99720927
_symmetry_Int_Tables_number   1
_chemical_formula_structural   In2Te3
_chemical_formula_sum   'In72 Te108'
_cell_volume   6631.36205596
_cell_formula_units_Z   36
loop_
 _symmetry_equiv_pos_site_id
 _symmetry_equiv_pos_as_xyz
  1  'x, y, z'
loop_
 _atom_site_type_symbol
 _atom_site_label
 _atom_site_symmetry_multiplicity
 _atom_site_fract_x
 _atom_site_fract_y
 _atom_site_fract_z
 _atom_site_occupancy
  In  In0  1  0.33935625  0.68847085  -0.00024267  1
  In  In1  1  0.13115710  0.30662519  0.20727739  1
  In  In2  1  0.65977781  0.00949654  0.33482992  1
  In  In3  1  0.14929315  0.67985751  0.78594865  1
  In  In4  1  0.51067977  0.83687469  -0.00546902  1
  In  In5  1  -0.00225329  0.31715994  0.00131734  1
  In  In6  1  0.84594648  0.67744804  0.51059495  1
  In  In7  1  0.82906593  0.16308618  0.66853980  1
  In  In8  1  0.32907477  0.34380840  -0.00446805  1
  In  In9  1  0.49586384  -0.00858617  0.49875185  1
  In  In10  1  -0.00980164  0.49476926  0.17004999  1
  In  In11  1  0.33536840  0.67093640  0.33671712  1
  In  In12  1  0.32019034  0.51693188  0.83256987  1
  In  In13  1  0.48992312  0.49779660  0.34269827  1
  In  In14  1  0.66609704  0.16739486  0.83607882  1
  In  In15  1  0.15859344  0.17405493  0.64045921  1
  In  In16  1  0.14763054  0.84186943  0.00298832  1
  In  In17  1  0.15341641  0.16140300  -0.00516610  1
  In  In18  1  0.52315719  0.33625520  0.83725690  1
  In  In19  1  0.32561617  0.15333455  0.80582960  1
  In  In20  1  0.01628808  0.32102464  0.65590618  1
  In  In21  1  0.67943181  0.50604917  0.16685753  1
  In  In22  1  -0.01331677  0.15954870  0.84808784  1
  In  In23  1  0.17685051  0.50563307  -0.00647367  1
  In  In24  1  0.33149633  0.83807517  0.16592969  1
  In  In25  1  0.84163115  0.16940821  0.33558095  1
  In  In26  1  0.32909668  0.00646425  0.33348093  1
  In  In27  1  0.49235785  0.83700653  0.67062268  1
  In  In28  1  0.48154779  0.65293735  0.48823362  1
  In  In29  1  0.67620540  0.50987389  0.81952913  1
  In  In30  1  0.17421721  -0.02530877  0.83152424  1
  In  In31  1  0.30995450  0.32613901  0.37590125  1
  In  In32  1  -0.00323204  0.66409390  0.32712704  1
  In  In33  1  0.83939175  0.01398791  0.16286690  1
  In  In34  1  0.84359259  0.49978318  0.33042023  1
  In  In35  1  0.67334119  0.31237066  0.67811460  1
  In  In36  1  -0.01519687  0.69179689  -0.00849281  1
  In  In37  1  0.48773927  0.50933165  0.65357806  1
  In  In38  1  0.69406532  0.33439068  0.32019297  1
  In  In39  1  0.83779854  0.16971987  0.00949197  1
  In  In40  1  0.16203275  0.83861005  0.33218240  1
  In  In41  1  -0.01882236  0.83596855  0.50790438  1
  In  In42  1  0.48373976  0.32485678  0.49528206  1
  In  In43  1  0.00720264  0.49794657  0.81278456  1
  In  In44  1  0.67650636  -0.02683819  0.67654901  1
  In  In45  1  0.67768612  0.31391828  0.02024138  1
  In  In46  1  0.00288027  0.18478342  0.49646591  1
  In  In47  1  0.51459834  0.15799521  -0.00191876  1
  In  In48  1  0.63678908  0.50949847  0.47629149  1
  In  In49  1  0.00493012  -0.01090192  0.66576882  1
  In  In50  1  0.17020294  0.66742890  0.54500076  1
  In  In51  1  0.85471057  0.84795982  0.34434824  1
  In  In52  1  0.82792674  0.49599260  0.00035526  1
  In  In53  1  -0.00981367  0.84367993  0.15207787  1
  In  In54  1  0.65540292  0.80015733  0.17631105  1
  In  In55  1  0.34646376  0.82799149  0.82155464  1
  In  In56  1  0.67522946  0.83956975  0.49482178  1
  In  In57  1  0.67175821  0.16329384  0.50724118  1
  In  In58  1  0.67527220  0.68057304  -0.00984444  1
  In  In59  1  0.33556707  0.48877858  0.16885655  1
  In  In60  1  0.48970436  0.14637484  0.32659677  1
  In  In61  1  0.86726577  0.50394991  0.66773332  1
  In  In62  1  0.35204758  0.17768475  0.16652561  1
  In  In63  1  0.49225205  0.01024688  0.83779206  1
  In  In64  1  0.68471114  0.67388778  0.67001491  1
  In  In65  1  0.14395109  0.48739695  0.36768066  1
  In  In66  1  0.15416281  0.00966673  0.50618452  1
  In  In67  1  0.51530564  -0.01410743  0.15691950  1
  In  In68  1  0.31414250  0.35464323  0.63379890  1
  In  In69  1  0.48375147  0.50994991  0.00740920  1
  In  In70  1  0.14870050  0.01153469  0.16697176  1
  In  In71  1  0.84455380  0.82797201  0.68021743  1
  Te  Te72  1  0.05821758  0.08274124  0.07429783  1
  Te  Te73  1  0.09628056  0.10586649  0.40279942  1
  Te  Te74  1  0.08999792  0.08824667  0.75056320  1
  Te  Te75  1  0.09357256  0.41422102  0.08294335  1
  Te  Te76  1  0.05523504  0.38202392  0.42251571  1
  Te  Te77  1  0.10497872  0.43084089  0.71814065  1
  Te  Te78  1  0.08707831  0.73812099  0.09667499  1
  Te  Te79  1  0.08298017  0.74459645  0.42583951  1
  Te  Te80  1  0.03428642  0.76055008  0.74477986  1
  Te  Te81  1  0.41573478  0.07100354  0.07713090  1
  Te  Te82  1  0.40086706  0.09584165  0.43704574  1
  Te  Te83  1  0.40797285  0.05982476  0.72754084  1
  Te  Te84  1  0.43293928  0.39593255  0.09521799  1
  Te  Te85  1  0.39325812  0.43715028  0.44428457  1
  Te  Te86  1  0.41804123  0.41397731  0.75777765  1
  Te  Te87  1  0.43740062  0.75077046  0.09830422  1
  Te  Te88  1  0.40447602  0.76452460  0.42842499  1
  Te  Te89  1  0.41512001  0.72870021  0.73668283  1
  Te  Te90  1  0.73817705  0.08803015  0.08391687  1
  Te  Te91  1  0.76339857  0.07230422  0.42677676  1
  Te  Te92  1  0.75956073  0.06856776  0.76408888  1
  Te  Te93  1  0.77169618  0.40007489  0.10445434  1
  Te  Te94  1  0.75273132  0.42120714  0.42948932  1
  Te  Te95  1  0.76579752  0.41225140  0.74630630  1
  Te  Te96  1  0.76225109  0.75672134  0.08363553  1
  Te  Te97  1  0.75851129  0.74533129  0.40720966  1
  Te  Te98  1  0.74659863  0.76195144  0.77531844  1
  Te  Te99  1  0.05845923  0.19857844  0.27678262  1
  Te  Te100  1  0.12969827  0.28606544  0.52468255  1
  Te  Te101  1  0.09258714  0.26035472  0.89581109  1
  Te  Te102  1  0.09370572  0.57401777  0.25103613  1
  Te  Te103  1  0.09236756  0.55345762  0.60503137  1
  Te  Te104  1  0.08221937  0.59382158  0.91373790  1
  Te  Te105  1  0.06162688  0.92690104  0.26058482  1
  Te  Te106  1  0.09737740  0.89274801  0.59088193  1
  Te  Te107  1  0.06297545  0.91860840  0.91047463  1
  Te  Te108  1  0.41518489  0.26756350  0.27268721  1
  Te  Te109  1  0.40530766  0.24676524  0.59147218  1
  Te  Te110  1  0.41426944  0.24581339  0.91190294  1
  Te  Te111  1  0.42392504  0.59041129  0.24007641  1
  Te  Te112  1  0.38762530  0.59622037  0.58895102  1
  Te  Te113  1  0.42406408  0.60352552  0.90393771  1
  Te  Te114  1  0.42613755  0.91433727  0.25868448  1
  Te  Te115  1  0.40461159  0.89683356  0.56755811  1
  Te  Te116  1  0.40340739  0.92223029  0.92677309  1
  Te  Te117  1  0.75439769  0.23319638  0.23312201  1
  Te  Te118  1  0.76929565  0.26273755  0.56931143  1
  Te  Te119  1  0.75984910  0.26334773  0.90446050  1
  Te  Te120  1  0.76364343  0.59378619  0.25010612  1
  Te  Te121  1  0.74642155  0.57052162  0.57568320  1
  Te  Te122  1  0.77087279  0.59670485  0.90134114  1
  Te  Te123  1  0.74992487  0.91648790  0.25330675  1
  Te  Te124  1  0.77783244  0.91814609  0.57506449  1
  Te  Te125  1  0.78500843  0.88179400  0.86948564  1
  Te  Te126  1  0.24257748  0.25590482  0.08736810  1
  Te  Te127  1  0.22781719  0.21466677  0.42697821  1
  Te  Te128  1  0.24254339  0.25958709  0.73630275  1
  Te  Te129  1  0.25703512  0.59295754  0.08830094  1
  Te  Te130  1  0.23736567  0.59366677  0.42648238  1
  Te  Te131  1  0.25331354  0.59258886  0.72451981  1
  Te  Te132  1  0.24631541  0.93040028  0.08010878  1
  Te  Te133  1  0.25160583  0.91444455  0.42692734  1
  Te  Te134  1  0.24849006  0.89461570  0.72647281  1
  Te  Te135  1  0.56805657  0.25362080  0.09701603  1
  Te  Te136  1  0.58726932  0.24683420  0.41049395  1
  Te  Te137  1  0.56355956  0.22500087  0.73877290  1
  Te  Te138  1  0.58493426  0.59307277  0.08378554  1
  Te  Te139  1  0.59340802  0.61646318  0.37515820  1
  Te  Te140  1  0.57555574  0.59549115  0.74524772  1
  Te  Te141  1  0.61795734  0.91096698  0.07338944  1
  Te  Te142  1  0.57331783  0.90262870  0.40055957  1
  Te  Te143  1  0.58328414  0.90296831  0.77381620  1
  Te  Te144  1  0.92111748  0.24819366  0.10483430  1
  Te  Te145  1  0.92255402  0.27651171  0.40696955  1
  Te  Te146  1  0.91637212  0.25689990  0.75190734  1
  Te  Te147  1  0.91022266  0.59281255  0.08504509  1
  Te  Te148  1  0.93194138  0.57682836  0.43346770  1
  Te  Te149  1  0.91536767  0.60578973  0.76476762  1
  Te  Te150  1  0.89672923  0.91697866  0.06170284  1
  Te  Te151  1  0.93834162  0.94447427  0.41818304  1
  Te  Te152  1  0.91862477  0.92435632  0.77008207  1
  Te  Te153  1  0.24750242  0.09975932  0.24652560  1
  Te  Te154  1  0.25565524  0.07358480  0.59286418  1
  Te  Te155  1  0.25316143  0.07601786  0.91646210  1
  Te  Te156  1  0.24113229  0.41070644  0.25976821  1
  Te  Te157  1  0.20797204  0.44825214  0.58690848  1
  Te  Te158  1  0.23432751  0.40603619  0.89349538  1
  Te  Te159  1  0.23831626  0.74368771  0.24114442  1
  Te  Te160  1  0.23429239  0.77752466  0.62004275  1
  Te  Te161  1  0.23354923  0.74918883  0.90678180  1
  Te  Te162  1  0.59463970  0.09642927  0.22824408  1
  Te  Te163  1  0.58847582  0.06964538  0.59315969  1
  Te  Te164  1  0.60801952  0.06058749  0.92749824  1
  Te  Te165  1  0.58582704  0.41847054  0.25318647  1
  Te  Te166  1  0.58719068  0.40793264  0.58962647  1
  Te  Te167  1  0.60119237  0.43149641  0.93036556  1
  Te  Te168  1  0.56968963  0.73639014  0.27536931  1
  Te  Te169  1  0.58703457  0.74160701  0.57246114  1
  Te  Te170  1  0.57742885  0.74587396  0.89957032  1
  Te  Te171  1  0.93791494  0.09610464  0.24318920  1
  Te  Te172  1  0.92197145  0.08288529  0.57757242  1
  Te  Te173  1  0.90720470  0.06592570  0.92768502  1
  Te  Te174  1  0.93068194  0.39751535  0.26430512  1
  Te  Te175  1  0.93566904  0.41393591  0.57236920  1
  Te  Te176  1  0.92228316  0.41531544  0.91128970  1
  Te  Te177  1  0.90662002  0.74855517  0.23996134  1
  Te  Te178  1  0.95132870  0.72385956  0.61617452  1
  Te  Te179  1  0.88972772  0.79586315  0.93838428  1
