# generated using pymatgen
data_In2Te3
_symmetry_space_group_name_H-M   'P 1'
_cell_length_a   18.82700626
_cell_length_b   18.83184791
_cell_length_c   18.84615090
_cell_angle_alpha   89.99185816
_cell_angle_beta   89.82402712
_cell_angle_gamma   89.95417471
_symmetry_Int_Tables_number   1
_chemical_formula_structural   In2Te3
_chemical_formula_sum   'In72 Te108'
_cell_volume   6681.81854859
_cell_formula_units_Z   36
loop_
 _symmetry_equiv_pos_site_id
 _symmetry_equiv_pos_as_xyz
  1  'x, y, z'
loop_
 _atom_site_type_symbol
 _atom_site_label
 _atom_site_symmetry_multiplicity
 _atom_site_fract_x
 _atom_site_fract_y
 _atom_site_fract_z
 _atom_site_occupancy
  In  In0  1  0.70445821  0.80837074  0.46840287  1
  In  In1  1  0.83037425  -0.00559032  0.83306262  1
  In  In2  1  0.00572822  0.15926650  0.82526199  1
  In  In3  1  0.14163944  0.80238000  0.01487731  1
  In  In4  1  0.69381340  -0.00715489  0.00255344  1
  In  In5  1  0.32642167  -0.00517578  0.65782381  1
  In  In6  1  -0.01360656  0.17129674  0.16884924  1
  In  In7  1  0.13524818  0.16154003  -0.00266566  1
  In  In8  1  0.19115091  0.15787701  0.33595517  1
  In  In9  1  0.17335860  -0.00474389  0.82134963  1
  In  In10  1  0.00142288  0.35471321  0.67587990  1
  In  In11  1  0.34833530  0.35547504  -0.02804964  1
  In  In12  1  0.32355798  -0.00937359  0.34776982  1
  In  In13  1  0.17073462  0.17847985  0.66347751  1
  In  In14  1  0.50109651  0.68698776  0.80390033  1
  In  In15  1  0.33890165  0.51501875  0.51373613  1
  In  In16  1  0.13977880  0.53634624  0.02337615  1
  In  In17  1  0.31703408  0.17348236  0.16574931  1
  In  In18  1  0.13372463  0.52260686  0.36174088  1
  In  In19  1  0.48316109  0.36226866  0.18394482  1
  In  In20  1  0.66678665  0.33851284  0.35443105  1
  In  In21  1  0.85257593  0.66343180  0.83509670  1
  In  In22  1  0.85374117  0.79219976  0.64244646  1
  In  In23  1  0.48595533  0.34565904  0.81739321  1
  In  In24  1  0.66073677  0.84541935  0.83095270  1
  In  In25  1  0.86667529  0.34841685  0.19483477  1
  In  In26  1  0.64636512  0.36120535  0.62026290  1
  In  In27  1  0.64878445  0.13892594  0.81965316  1
  In  In28  1  0.65021914  0.65637125  0.65502374  1
  In  In29  1  0.35543324  0.79181342  0.46254423  1
  In  In30  1  0.49955865  0.86050436  -0.00564359  1
  In  In31  1  0.16471563  0.34026390  0.17273165  1
  In  In32  1  0.32867773  0.82884502  0.17469691  1
  In  In33  1  -0.01367029  0.16493176  0.50227582  1
  In  In34  1  0.13040509  -0.04411048  0.51749468  1
  In  In35  1  0.34891469  -0.02942901  -0.00812589  1
  In  In36  1  0.66501299  0.17451944  0.49168457  1
  In  In37  1  0.67938017  -0.02246616  0.31082137  1
  In  In38  1  0.49091147  0.16825144  0.65157537  1
  In  In39  1  0.15712473  0.66392877  0.81977434  1
  In  In40  1  0.70587302  0.77618948  0.21477317  1
  In  In41  1  0.01338756  0.33689089  -0.01538903  1
  In  In42  1  0.85295722  0.55957970  0.31001947  1
  In  In43  1  0.86101610  -0.03092373  0.50254149  1
  In  In44  1  0.50849230  0.00969179  0.49077150  1
  In  In45  1  0.67297422  0.51171098  0.82323007  1
  In  In46  1  0.49453221  0.51566869  0.34127250  1
  In  In47  1  0.32761626  0.49448185  0.82074774  1
  In  In48  1  0.50428140  0.50368197  0.00747696  1
  In  In49  1  0.15700786  0.68235423  0.50183299  1
  In  In50  1  0.15725040  0.50240756  0.65715968  1
  In  In51  1  0.14250787  0.79591853  0.31685160  1
  In  In52  1  0.84173966  0.52892613  0.66488797  1
  In  In53  1  0.71392841  0.36430359  0.01573857  1
  In  In54  1  0.82427549  0.16514118  0.33694900  1
  In  In55  1  -0.02807445  -0.04572276  0.03228773  1
  In  In56  1  0.65211978  0.15894754  0.14970494  1
  In  In57  1  0.31203669  0.65883062  -0.00595530  1
  In  In58  1  0.30883367  0.16782467  0.80527229  1
  In  In59  1  0.51422548  -0.01014437  0.17292944  1
  In  In60  1  0.00230960  0.82054834  0.82836292  1
  In  In61  1  0.33233182  0.18771763  0.50871099  1
  In  In62  1  0.00779095  -0.03476422  0.33906147  1
  In  In63  1  0.86668404  0.52436809  0.03939913  1
  In  In64  1  0.84041406  0.33626021  0.84220527  1
  In  In65  1  0.32014889  0.34165016  0.31973336  1
  In  In66  1  0.50294493  0.67701930  0.18184571  1
  In  In67  1  0.53007365  0.16694493  0.01083539  1
  In  In68  1  0.80703390  0.14619370  0.00604221  1
  In  In69  1  0.68684425  0.68057931  0.02791650  1
  In  In70  1  0.82030393  0.36356346  0.48706711  1
  In  In71  1  0.50090028  0.83453810  0.67209516  1
  Te  Te72  1  0.06781206  0.06658956  0.09277249  1
  Te  Te73  1  0.08633499  0.07993982  0.41591633  1
  Te  Te74  1  0.08046436  0.07042302  0.72673380  1
  Te  Te75  1  0.06269701  0.42501501  0.09835095  1
  Te  Te76  1  0.04220907  0.41850328  0.40752398  1
  Te  Te77  1  0.07722556  0.44085260  0.76728146  1
  Te  Te78  1  0.05946528  0.73730286  0.12267809  1
  Te  Te79  1  0.05113447  0.76699971  0.43387791  1
  Te  Te80  1  0.08901339  0.75931083  0.72062414  1
  Te  Te81  1  0.42070552  0.08003692  0.08835140  1
  Te  Te82  1  0.41151677  0.09716208  0.41206721  1
  Te  Te83  1  0.41701319  0.07731668  0.75008758  1
  Te  Te84  1  0.39155604  0.44113237  0.09112885  1
  Te  Te85  1  0.41021518  0.41283515  0.41689977  1
  Te  Te86  1  0.40138152  0.41437649  0.71857857  1
  Te  Te87  1  0.41951546  0.75107966  0.06676189  1
  Te  Te88  1  0.44973248  0.71063655  0.38125218  1
  Te  Te89  1  0.39347280  0.74692029  0.72416209  1
  Te  Te90  1  0.76445291  0.05796361  0.12132982  1
  Te  Te91  1  0.75307510  0.06402009  0.42632894  1
  Te  Te92  1  0.76290136  0.08854614  0.74289839  1
  Te  Te93  1  0.76995608  0.44810869  0.13065135  1
  Te  Te94  1  0.75469501  0.45616911  0.38808899  1
  Te  Te95  1  0.75392826  0.41211294  0.74008628  1
  Te  Te96  1  0.79392555  0.76319803  0.08853637  1
  Te  Te97  1  0.77716355  0.68995229  0.40770122  1
  Te  Te98  1  0.74566441  0.73746942  0.75303989  1
  Te  Te99  1  0.08603249  0.24252346  0.25860694  1
  Te  Te100  1  0.07669982  0.26218079  0.57803154  1
  Te  Te101  1  0.10172170  0.26106797  0.88569410  1
  Te  Te102  1  0.06379549  0.61356654  0.25690928  1
  Te  Te103  1  0.06343188  0.59282127  0.57963057  1
  Te  Te104  1  0.06095479  0.61646639  0.92492612  1
  Te  Te105  1  0.08795592  0.90382505  0.23180355  1
  Te  Te106  1  0.06000883  0.86385001  0.60622693  1
  Te  Te107  1  0.07805189  0.92308864  0.92146182  1
  Te  Te108  1  0.41964597  0.24246543  0.25354527  1
  Te  Te109  1  0.41402694  0.27856980  0.59204709  1
  Te  Te110  1  0.42599206  0.23606410  0.91379539  1
  Te  Te111  1  0.40641938  0.58432865  0.24406632  1
  Te  Te112  1  0.45968055  0.58859546  0.56356505  1
  Te  Te113  1  0.42300712  0.58552120  0.90710436  1
  Te  Te114  1  0.42296529  0.90806201  0.26480723  1
  Te  Te115  1  0.41042908  0.91340367  0.55673922  1
  Te  Te116  1  0.41097636  0.89585781  0.88204971  1
  Te  Te117  1  0.74919828  0.25146559  0.23625845  1
  Te  Te118  1  0.75588988  0.25947488  0.57996556  1
  Te  Te119  1  0.73111761  0.24224739  0.91393578  1
  Te  Te120  1  0.72978832  0.63421402  0.25881010  1
  Te  Te121  1  0.74278541  0.58019834  0.56878734  1
  Te  Te122  1  0.75738599  0.57419775  0.93432835  1
  Te  Te123  1  0.79030677  0.88631314  0.27263690  1
  Te  Te124  1  0.75567056  0.89434086  0.58595861  1
  Te  Te125  1  0.77319394  0.88770515  0.92540031  1
  Te  Te126  1  0.24287218  0.26072470  0.06473464  1
  Te  Te127  1  0.23372225  0.27179280  0.42602344  1
  Te  Te128  1  0.24704668  0.28137343  0.73817729  1
  Te  Te129  1  0.23486570  0.61037446  0.11005513  1
  Te  Te130  1  0.25354502  0.59861919  0.41598259  1
  Te  Te131  1  0.25880699  0.59362393  0.72922078  1
  Te  Te132  1  0.24050418  0.90492180  0.07616580  1
  Te  Te133  1  0.23286782  0.89262555  0.42058217  1
  Te  Te134  1  0.23906284  0.90104472  0.73050761  1
  Te  Te135  1  0.58351102  0.28836609  0.08881070  1
  Te  Te136  1  0.56622182  0.26453843  0.43129855  1
  Te  Te137  1  0.58775400  0.26118278  0.73850801  1
  Te  Te138  1  0.59408917  0.58280112  0.10070875  1
  Te  Te139  1  0.56579685  0.59272460  0.45028416  1
  Te  Te140  1  0.55779677  0.56070640  0.73830186  1
  Te  Te141  1  0.60741715  0.89824418  0.09589639  1
  Te  Te142  1  0.59331416  0.90816283  0.41541682  1
  Te  Te143  1  0.58653087  0.93306207  0.74086150  1
  Te  Te144  1  0.90502186  0.25783202  0.06647869  1
  Te  Te145  1  0.91156262  0.26324185  0.41214015  1
  Te  Te146  1  0.91206420  0.24587990  0.74261647  1
  Te  Te147  1  0.94743127  0.60782735  0.13472581  1
  Te  Te148  1  0.91295357  0.61220849  0.43702042  1
  Te  Te149  1  0.94665151  0.58684563  0.75021342  1
  Te  Te150  1  0.88706329  0.88555330  0.13021390  1
  Te  Te151  1  0.92343935  0.86491150  0.41474528  1
  Te  Te152  1  0.90896359  0.90218559  0.74024793  1
  Te  Te153  1  0.24431911  0.05781995  0.23380859  1
  Te  Te154  1  0.23878230  0.07707862  0.56299201  1
  Te  Te155  1  0.25164878  0.08464808  0.92828372  1
  Te  Te156  1  0.22997006  0.44519328  0.25790455  1
  Te  Te157  1  0.22683359  0.42596713  0.55102617  1
  Te  Te158  1  0.23436654  0.44642701  0.93121344  1
  Te  Te159  1  0.25618549  0.72556436  0.25084097  1
  Te  Te160  1  0.27225497  0.74351264  0.57406865  1
  Te  Te161  1  0.24125120  0.76042950  0.90689516  1
  Te  Te162  1  0.58306388  0.08958737  0.26688654  1
  Te  Te163  1  0.59876265  0.07827131  0.59155462  1
  Te  Te164  1  0.57718677  0.05145840  0.92172382  1
  Te  Te165  1  0.59467653  0.43251238  0.25579544  1
  Te  Te166  1  0.57114055  0.46703483  0.54748823  1
  Te  Te167  1  0.58957666  0.41483598  0.91611192  1
  Te  Te168  1  0.57123633  0.75874927  0.28752992  1
  Te  Te169  1  0.59054007  0.76792799  0.56994324  1
  Te  Te170  1  0.59186720  0.73663606  0.92126314  1
  Te  Te171  1  0.92093996  0.07325077  0.26488037  1
  Te  Te172  1  0.91833198  0.07047279  0.59151684  1
  Te  Te173  1  0.92320169  0.08044805  0.92955529  1
  Te  Te174  1  0.94753927  0.43553814  0.28802338  1
  Te  Te175  1  0.92294855  0.43574709  0.57190065  1
  Te  Te176  1  0.92074175  0.43808856  0.91938014  1
  Te  Te177  1  0.95758853  0.71892155  0.24488961  1
  Te  Te178  1  0.93526917  0.68869062  0.57311093  1
  Te  Te179  1  0.93847399  0.73578158  0.93404146  1
