# generated using pymatgen
data_In2Te3
_symmetry_space_group_name_H-M   'P 1'
_cell_length_a   18.97533283
_cell_length_b   18.99015233
_cell_length_c   18.98023834
_cell_angle_alpha   89.83369130
_cell_angle_beta   89.81906256
_cell_angle_gamma   89.89452835
_symmetry_Int_Tables_number   1
_chemical_formula_structural   In2Te3
_chemical_formula_sum   'In72 Te108'
_cell_volume   6839.34936317
_cell_formula_units_Z   36
loop_
 _symmetry_equiv_pos_site_id
 _symmetry_equiv_pos_as_xyz
  1  'x, y, z'
loop_
 _atom_site_type_symbol
 _atom_site_label
 _atom_site_symmetry_multiplicity
 _atom_site_fract_x
 _atom_site_fract_y
 _atom_site_fract_z
 _atom_site_occupancy
  In  In0  1  0.51941401  0.31056212  0.51170394  1
  In  In1  1  0.13966164  0.35887131  0.86421265  1
  In  In2  1  0.00776721  0.67812542  -0.01861065  1
  In  In3  1  0.83982928  0.65134404  0.85860173  1
  In  In4  1  0.16933135  0.31638896  0.52500894  1
  In  In5  1  -0.00232113  0.32333581  0.31607289  1
  In  In6  1  0.16337156  0.64571599  0.49129216  1
  In  In7  1  0.32820400  0.78560362  0.15174198  1
  In  In8  1  0.31939564  0.16041895  0.47836036  1
  In  In9  1  0.15885442  0.67991564  0.83395011  1
  In  In10  1  0.32861505  0.34349889  0.32300069  1
  In  In11  1  0.32555863  0.50260507  0.85169088  1
  In  In12  1  -0.01994693  0.51505895  0.50804015  1
  In  In13  1  -0.00192665  0.17666335  0.51134826  1
  In  In14  1  0.47888946  0.33493317  0.83658079  1
  In  In15  1  0.83812600  0.65363851  0.15552876  1
  In  In16  1  0.49362765  0.01292307  0.82909813  1
  In  In17  1  0.14141826  0.82998443  0.68194839  1
  In  In18  1  0.52923032  0.49621939  0.31899968  1
  In  In19  1  0.87091798  0.36430000  0.13699244  1
  In  In20  1  0.69948564  0.86493910  0.16127425  1
  In  In21  1  0.83706086  0.36170054  0.51611008  1
  In  In22  1  0.94173160  0.36026359  0.84397037  1
  In  In23  1  0.33161944  0.84227974  0.81587463  1
  In  In24  1  0.14095034  0.61965928  0.16451924  1
  In  In25  1  0.00511863  0.02557930  0.70136531  1
  In  In26  1  0.33870908  0.01189860  0.30825956  1
  In  In27  1  0.35860459  0.84070167  0.50204209  1
  In  In28  1  0.83079873  0.16446210  0.00828125  1
  In  In29  1  0.72837413  0.82502936  0.88799447  1
  In  In30  1  0.66523984  0.33647300  0.01704498  1
  In  In31  1  0.85593828  0.00724370  0.48111045  1
  In  In32  1  0.66790165  0.01103548  0.65673102  1
  In  In33  1  0.33651531  -0.00049551  -0.01121077  1
  In  In34  1  0.16537911  0.01318549  0.49777483  1
  In  In35  1  0.31547538  0.34725419  0.70254310  1
  In  In36  1  0.12596310  0.34199808  0.12813880  1
  In  In37  1  0.50083862  0.83631332  0.66422213  1
  In  In38  1  0.14365230  0.85612070  -0.01013300  1
  In  In39  1  0.14334683  0.00412760  0.14514490  1
  In  In40  1  0.50062952  0.84255655  0.34084981  1
  In  In41  1  0.69054087  0.31482901  0.33930474  1
  In  In42  1  0.51336520  -0.00666931  0.14705235  1
  In  In43  1  0.31357178  0.17665278  0.86079224  1
  In  In44  1  0.82603482  0.19889937  0.69438226  1
  In  In45  1  0.67949961  0.82447079  0.45703283  1
  In  In46  1  0.66701008  0.64813345  0.76700232  1
  In  In47  1  -0.00591736  0.01171183  -0.02191188  1
  In  In48  1  0.31566559  0.67825878  0.66009418  1
  In  In49  1  0.15430928  0.47678848  0.33734442  1
  In  In50  1  0.85307713  0.51089699  0.68572067  1
  In  In51  1  0.34213371  0.48059556  0.51506247  1
  In  In52  1  0.65916378  0.65249077  -0.00462072  1
  In  In53  1  0.17651216  0.81149314  0.33331848  1
  In  In54  1  0.29686856  0.18041516  0.14952515  1
  In  In55  1  -0.03453923  0.83669328  0.15105284  1
  In  In56  1  0.66552706  0.40037585  0.70298811  1
  In  In57  1  0.69949122  0.67323135  0.31599103  1
  In  In58  1  0.49715257  0.31975540  0.17781386  1
  In  In59  1  0.68165989  0.15635012  0.49745586  1
  In  In60  1  0.47861793  0.17743594  0.68505842  1
  In  In61  1  0.66985017  0.15105496  0.17373872  1
  In  In62  1  0.49622709  0.65988811  0.16525223  1
  In  In63  1  0.00319761  0.83228602  0.49044666  1
  In  In64  1  0.85963921  0.85669489  0.66068999  1
  In  In65  1  -0.00930579  -0.00304448  0.32524892  1
  In  In66  1  0.33443392  0.50734964  0.13471440  1
  In  In67  1  0.50406077  0.68703032  0.49010483  1
  In  In68  1  0.85800840  0.15612372  0.30224881  1
  In  In69  1  0.49525671  0.50461024  -0.01264168  1
  In  In70  1  0.65296890  0.16365545  0.84763255  1
  In  In71  1  0.70422460  0.51752539  0.51342456  1
  Te  Te72  1  0.10079975  0.09599509  0.03906662  1
  Te  Te73  1  0.07302840  0.09407984  0.40830214  1
  Te  Te74  1  0.11344201  0.05249360  0.79712536  1
  Te  Te75  1  0.06468397  0.46010425  0.05036019  1
  Te  Te76  1  0.07037966  0.39709949  0.43588982  1
  Te  Te77  1  0.05271253  0.41675576  0.76146058  1
  Te  Te78  1  0.08813916  0.75599855  0.09171890  1
  Te  Te79  1  0.07040527  0.72823750  0.40272661  1
  Te  Te80  1  0.04997117  0.73921368  0.75222460  1
  Te  Te81  1  0.40216524  0.08667354  0.09159214  1
  Te  Te82  1  0.41618641  0.07205972  0.41545931  1
  Te  Te83  1  0.38326312  0.08623589  0.75653554  1
  Te  Te84  1  0.42233348  0.40032244  0.07390749  1
  Te  Te85  1  0.43691508  0.40483412  0.41120301  1
  Te  Te86  1  0.42240014  0.44292928  0.74469155  1
  Te  Te87  1  0.42304225  0.72715881  0.05628086  1
  Te  Te88  1  0.39862321  0.74030811  0.39677253  1
  Te  Te89  1  0.42196976  0.73806856  0.74877205  1
  Te  Te90  1  0.74202161  0.06432448  0.07579105  1
  Te  Te91  1  0.75826065  0.08050223  0.39069546  1
  Te  Te92  1  0.74929522  0.08390891  0.76015739  1
  Te  Te93  1  0.76882783  0.43526108  0.05552590  1
  Te  Te94  1  0.76423735  0.43097136  0.40231649  1
  Te  Te95  1  0.79476589  0.40606902  0.77524287  1
  Te  Te96  1  0.74582703  0.74530250  0.07763417  1
  Te  Te97  1  0.77875097  0.71369488  0.43669295  1
  Te  Te98  1  0.76220312  0.77011699  0.75123665  1
  Te  Te99  1  0.07289119  0.24223958  0.22191909  1
  Te  Te100  1  0.09192333  0.22545780  0.61169565  1
  Te  Te101  1  0.03579506  0.27297561  0.93189946  1
  Te  Te102  1  0.05299643  0.55910518  0.26796732  1
  Te  Te103  1  0.07660739  0.58549054  0.59106304  1
  Te  Te104  1  0.10329570  0.57475664  0.92691845  1
  Te  Te105  1  0.08687614  0.90123946  0.24929448  1
  Te  Te106  1  0.06155194  0.93830203  0.58210285  1
  Te  Te107  1  0.06670763  0.91990874  0.87982485  1
  Te  Te108  1  0.40173173  0.23119217  0.25366840  1
  Te  Te109  1  0.39672956  0.26874404  0.59282389  1
  Te  Te110  1  0.43514860  0.22708659  0.92386179  1
  Te  Te111  1  0.41303671  0.56577341  0.25186103  1
  Te  Te112  1  0.41618393  0.59642341  0.57788962  1
  Te  Te113  1  0.40756001  0.60259043  0.92205993  1
  Te  Te114  1  0.40377804  0.89496918  0.23458432  1
  Te  Te115  1  0.41251095  0.93308135  0.59881248  1
  Te  Te116  1  0.42711355  0.90427927  0.91614327  1
  Te  Te117  1  0.77654073  0.25925592  0.22422113  1
  Te  Te118  1  0.74124306  0.26492289  0.58440125  1
  Te  Te119  1  0.74859806  0.25663141  0.91823297  1
  Te  Te120  1  0.74790998  0.56531855  0.23215386  1
  Te  Te121  1  0.73686995  0.59629282  0.63566102  1
  Te  Te122  1  0.75657120  0.55676126  0.93538657  1
  Te  Te123  1  0.77630279  0.89026695  0.28027582  1
  Te  Te124  1  0.75194142  0.92493533  0.56300384  1
  Te  Te125  1  0.76642372  0.94617890  0.95980868  1
  Te  Te126  1  0.23488947  0.27295728  0.05106486  1
  Te  Te127  1  0.23162227  0.25537873  0.39962186  1
  Te  Te128  1  0.22048103  0.25725879  0.77349641  1
  Te  Te129  1  0.23813019  0.58746489  0.05930814  1
  Te  Te130  1  0.25862338  0.55676950  0.41345912  1
  Te  Te131  1  0.24109483  0.58303549  0.75019604  1
  Te  Te132  1  0.25380593  0.91157192  0.09019559  1
  Te  Te133  1  0.25100738  0.92062530  0.40976334  1
  Te  Te134  1  0.24212372  0.92212262  0.73155136  1
  Te  Te135  1  0.57816066  0.23223369  0.08408421  1
  Te  Te136  1  0.58275910  0.22941161  0.40106329  1
  Te  Te137  1  0.58861107  0.26493873  0.74106478  1
  Te  Te138  1  0.58615330  0.56186201  0.09388647  1
  Te  Te139  1  0.59709761  0.58755259  0.41923403  1
  Te  Te140  1  0.59583625  0.51884664  0.76724596  1
  Te  Te141  1  0.58184632  0.88468550  0.07843354  1
  Te  Te142  1  0.58107841  0.92758353  0.42673612  1
  Te  Te143  1  0.58958527  0.92313758  0.75181967  1
  Te  Te144  1  0.93890923  0.25775590  0.05821195  1
  Te  Te145  1  0.89879006  0.25051521  0.42243900  1
  Te  Te146  1  0.94222788  0.21756477  0.78535372  1
  Te  Te147  1  0.93820016  0.57540392  0.07137426  1
  Te  Te148  1  0.87146424  0.58701864  0.44364931  1
  Te  Te149  1  0.94021465  0.60312738  0.76231211  1
  Te  Te150  1  0.89681241  0.91048576  0.04043744  1
  Te  Te151  1  0.89314192  0.89371190  0.38395487  1
  Te  Te152  1  0.91657134  0.93155172  0.77236916  1
  Te  Te153  1  0.22320884  0.08683715  0.24547283  1
  Te  Te154  1  0.23861877  0.10281551  0.58685293  1
  Te  Te155  1  0.22370333  0.06969179  0.91970765  1
  Te  Te156  1  0.23799381  0.41223903  0.22255477  1
  Te  Te157  1  0.23168023  0.42903021  0.60458102  1
  Te  Te158  1  0.26510672  0.39584813  0.93509758  1
  Te  Te159  1  0.24135612  0.70637201  0.24690236  1
  Te  Te160  1  0.23307016  0.76678580  0.56714945  1
  Te  Te161  1  0.24614280  0.76842487  0.91849895  1
  Te  Te162  1  0.58363700  0.06340718  0.25260837  1
  Te  Te163  1  0.56963307  0.10077114  0.58568131  1
  Te  Te164  1  0.57402716  0.07615277  0.93337738  1
  Te  Te165  1  0.61073552  0.39868002  0.23827653  1
  Te  Te166  1  0.58977693  0.42772720  0.57042659  1
  Te  Te167  1  0.58881225  0.41432628  0.90922311  1
  Te  Te168  1  0.58290547  0.74793752  0.25337270  1
  Te  Te169  1  0.59964308  0.76191239  0.57697493  1
  Te  Te170  1  0.60462813  0.73373014  0.88000468  1
  Te  Te171  1  0.92858839  0.06632840  0.21211345  1
  Te  Te172  1  0.89707261  0.09401166  0.59905643  1
  Te  Te173  1  0.90777556  0.10212406  0.89544649  1
  Te  Te174  1  0.93184912  0.43782232  0.25024928  1
  Te  Te175  1  0.94014103  0.40362105  0.61395384  1
  Te  Te176  1  0.95306196  0.47012189  0.95250212  1
  Te  Te177  1  0.91501881  0.73978746  0.24728162  1
  Te  Te178  1  0.92115548  0.75162184  0.58037374  1
  Te  Te179  1  0.89894018  0.76598581  0.93089334  1
