# generated using pymatgen
data_In2Te3
_symmetry_space_group_name_H-M   'P 1'
_cell_length_a   18.80172645
_cell_length_b   18.80052864
_cell_length_c   18.79424271
_cell_angle_alpha   90.06379745
_cell_angle_beta   89.91338722
_cell_angle_gamma   90.09059227
_symmetry_Int_Tables_number   1
_chemical_formula_structural   In2Te3
_chemical_formula_sum   'In72 Te108'
_cell_volume   6643.41395887
_cell_formula_units_Z   36
loop_
 _symmetry_equiv_pos_site_id
 _symmetry_equiv_pos_as_xyz
  1  'x, y, z'
loop_
 _atom_site_type_symbol
 _atom_site_label
 _atom_site_symmetry_multiplicity
 _atom_site_fract_x
 _atom_site_fract_y
 _atom_site_fract_z
 _atom_site_occupancy
  In  In0  1  0.34017330  0.48920331  0.15461257  1
  In  In1  1  0.50041854  0.31700350  0.84756985  1
  In  In2  1  0.83886948  0.86622482  0.34823107  1
  In  In3  1  0.35342206  0.84169238  0.15531211  1
  In  In4  1  -0.01037069  0.67721318  -0.02240331  1
  In  In5  1  0.66313674  0.81242190  0.51563853  1
  In  In6  1  0.34108543  0.68145367  0.33741579  1
  In  In7  1  0.14626350  0.84020438  -0.01879247  1
  In  In8  1  0.34643670  0.34035464  0.34131725  1
  In  In9  1  0.51984461  0.00511320  0.19370505  1
  In  In10  1  0.33099386  0.00007681  0.67346612  1
  In  In11  1  0.31738922  0.66439873  0.66230703  1
  In  In12  1  0.00380830  0.00763432  0.68535723  1
  In  In13  1  0.15675111  0.68719008  0.51767154  1
  In  In14  1  0.68608437  0.34419620  0.67576357  1
  In  In15  1  0.16576486  0.83089548  0.36497684  1
  In  In16  1  0.32827703  0.01756298  -0.01605171  1
  In  In17  1  0.50048989  0.35364453  0.19018569  1
  In  In18  1  0.16496400  0.33355849  0.82056047  1
  In  In19  1  0.45877371  0.03404134  0.47077235  1
  In  In20  1  0.49923059  0.48544979  0.34592208  1
  In  In21  1  0.17837102  0.03859368  0.16481169  1
  In  In22  1  0.67182279  0.82781660  0.15093609  1
  In  In23  1  0.49825853  0.82196685  0.34824937  1
  In  In24  1  0.50628764  0.82597932  0.01054639  1
  In  In25  1  -0.00635390  0.01782520  -0.03694979  1
  In  In26  1  0.16342496  0.17968835  0.33336827  1
  In  In27  1  0.31493388  0.83333487  0.82737443  1
  In  In28  1  0.80950078  0.67026979  0.16412800  1
  In  In29  1  0.81309570  0.18962498  0.32910926  1
  In  In30  1  0.65755159  0.19031396  0.49497260  1
  In  In31  1  0.15729414  0.51225537  -0.02900288  1
  In  In32  1  0.51802832  0.65453275  0.82400572  1
  In  In33  1  0.82762020  0.50933907  0.67425630  1
  In  In34  1  -0.00011977  0.84318486  0.17176087  1
  In  In35  1  0.16342775  0.63389547  0.18034648  1
  In  In36  1  0.64636037  0.01826057  0.33267801  1
  In  In37  1  0.13999939  0.70427653  0.80412819  1
  In  In38  1  0.67429201  0.01763675  0.67687445  1
  In  In39  1  0.47535903  0.16940241  0.64694527  1
  In  In40  1  0.84025955  0.02376706  0.14371438  1
  In  In41  1  0.15790773  0.51286815  0.31609686  1
  In  In42  1  0.83395127  0.67579979  0.81960437  1
  In  In43  1  0.34275742  0.48383305  0.83244925  1
  In  In44  1  0.16120553  0.31054364  0.13657809  1
  In  In45  1  0.86599529  0.01910881  0.52310065  1
  In  In46  1  0.67139247  0.66047077  0.00571291  1
  In  In47  1  0.51980678  0.84963245  0.66269605  1
  In  In48  1  0.69091325  0.17171059  0.83494628  1
  In  In49  1  -0.01993958  0.50124936  0.51184430  1
  In  In50  1  0.67445085  0.33040589  -0.01159300  1
  In  In51  1  0.15265355  0.47829886  0.67181762  1
  In  In52  1  0.50911057  0.48996530  0.00004008  1
  In  In53  1  0.85181574  0.48787019  -0.01407230  1
  In  In54  1  -0.02655589  0.31075984  0.01585226  1
  In  In55  1  0.00156118  0.00234541  0.35479509  1
  In  In56  1  0.83329939  0.82697273  0.67801930  1
  In  In57  1  0.16557130  0.16191122  0.67422367  1
  In  In58  1  0.64802137  0.47857814  0.18466704  1
  In  In59  1  0.81725682  0.33276188  0.50078780  1
  In  In60  1  0.52007722  0.48894619  0.66195237  1
  In  In61  1  -0.02257371  0.47307815  0.18705990  1
  In  In62  1  0.15961881  -0.00614793  0.51695132  1
  In  In63  1  0.15665119  0.31671685  0.52791373  1
  In  In64  1  0.64198311  0.65560892  0.33223672  1
  In  In65  1  0.49707768  0.16526179  0.00323813  1
  In  In66  1  0.83607441  0.66552524  0.52206343  1
  In  In67  1  0.33470161  0.47746101  0.49173894  1
  In  In68  1  -0.00560894  0.33575724  0.34490487  1
  In  In69  1  0.50447912  0.00143898  0.80070379  1
  In  In70  1  0.72314920  -0.00034794  -0.03649617  1
  In  In71  1  0.16898601  0.16119766  -0.00637661  1
  Te  Te72  1  0.06413071  0.09129971  0.08289478  1
  Te  Te73  1  0.08220025  0.10053209  0.43730564  1
  Te  Te74  1  0.09153847  0.08493879  0.78031597  1
  Te  Te75  1  0.08068657  0.43069046  0.08050973  1
  Te  Te76  1  0.09675538  0.42099786  0.42826164  1
  Te  Te77  1  0.05285625  0.40105991  0.74952960  1
  Te  Te78  1  0.08490659  0.73992730  0.08931414  1
  Te  Te79  1  0.06375639  0.73920042  0.41524089  1
  Te  Te80  1  0.05408048  0.77957640  0.70958394  1
  Te  Te81  1  0.41706910  0.07138016  0.09482987  1
  Te  Te82  1  0.41774189  0.12014450  0.36018481  1
  Te  Te83  1  0.39951882  0.10444833  0.76328993  1
  Te  Te84  1  0.41384711  0.39070192  0.06653263  1
  Te  Te85  1  0.45095663  0.37768268  0.45328168  1
  Te  Te86  1  0.42446844  0.39606592  0.73987543  1
  Te  Te87  1  0.41597055  0.73287002  0.07985562  1
  Te  Te88  1  0.41744938  0.74567495  0.44492965  1
  Te  Te89  1  0.42034491  0.75510991  0.74830515  1
  Te  Te90  1  0.74597186  0.10526890  0.06372275  1
  Te  Te91  1  0.75756803  0.07422042  0.42485139  1
  Te  Te92  1  0.78616341  0.08416077  0.75473968  1
  Te  Te93  1  0.75141080  0.42453636  0.08354668  1
  Te  Te94  1  0.75464356  0.40277862  0.38722156  1
  Te  Te95  1  0.77849715  0.40641152  0.77191249  1
  Te  Te96  1  0.77166072  0.76791222  0.05317439  1
  Te  Te97  1  0.74539828  0.75498802  0.39996956  1
  Te  Te98  1  0.73115703  0.72941663  0.72466829  1
  Te  Te99  1  0.06552501  0.24924385  0.23839857  1
  Te  Te100  1  0.05710023  0.24726275  0.61338483  1
  Te  Te101  1  0.07486731  0.25185525  0.91740638  1
  Te  Te102  1  0.04003681  0.59254755  0.26366813  1
  Te  Te103  1  0.07527399  0.58599753  0.59839655  1
  Te  Te104  1  0.06311922  0.58836724  0.87798904  1
  Te  Te105  1  0.09449313  0.93215930  0.25286653  1
  Te  Te106  1  0.08195399  0.90189756  0.60864859  1
  Te  Te107  1  0.07031791  0.91774227  0.88293348  1
  Te  Te108  1  0.41946111  0.24247369  0.25320592  1
  Te  Te109  1  0.41765478  0.25676891  0.54808756  1
  Te  Te110  1  0.39980756  0.23240868  0.91440671  1
  Te  Te111  1  0.41685928  0.57570306  0.25434118  1
  Te  Te112  1  0.41097687  0.57234617  0.58581253  1
  Te  Te113  1  0.41997667  0.58434091  0.91831791  1
  Te  Te114  1  0.41298421  0.92129644  0.26911043  1
  Te  Te115  1  0.42042963  0.92423746  0.57606152  1
  Te  Te116  1  0.42165207  0.91808719  0.91017559  1
  Te  Te117  1  0.77235363  0.26003725  0.20624137  1
  Te  Te118  1  0.75833322  0.23042255  0.59985862  1
  Te  Te119  1  0.78547572  0.27125472  0.90118689  1
  Te  Te120  1  0.74681580  0.57110987  0.26019178  1
  Te  Te121  1  0.74153205  0.56051408  0.56434660  1
  Te  Te122  1  0.75336879  0.57588969  0.91050991  1
  Te  Te123  1  0.74587571  0.92866716  0.24009495  1
  Te  Te124  1  0.75316232  0.92245324  0.57646959  1
  Te  Te125  1  0.79964536  0.90060624  0.88709769  1
  Te  Te126  1  0.26732332  0.22240793  0.08715515  1
  Te  Te127  1  0.25677654  0.25272955  0.43107144  1
  Te  Te128  1  0.26114579  0.25305811  0.74309186  1
  Te  Te129  1  0.25518294  0.58208037  0.06899694  1
  Te  Te130  1  0.24683902  0.58281570  0.42092990  1
  Te  Te131  1  0.24135260  0.57676604  0.76204227  1
  Te  Te132  1  0.24177930  0.91883049  0.07991970  1
  Te  Te133  1  0.25597958  0.92984362  0.42260325  1
  Te  Te134  1  0.22998774  0.91708722  0.74268817  1
  Te  Te135  1  0.57848531  0.26532992  0.08612274  1
  Te  Te136  1  0.59277635  0.23417230  0.37056944  1
  Te  Te137  1  0.58511530  0.23456692  0.74199836  1
  Te  Te138  1  0.57665161  0.58475866  0.09864314  1
  Te  Te139  1  0.57304337  0.57585827  0.43469681  1
  Te  Te140  1  0.61082528  0.57160374  0.74624100  1
  Te  Te141  1  0.59565234  0.93476810  0.07095581  1
  Te  Te142  1  0.58488157  0.91750185  0.43046775  1
  Te  Te143  1  0.61882043  0.90626641  0.76568366  1
  Te  Te144  1  0.88403471  0.23647155  0.10566595  1
  Te  Te145  1  0.91754877  0.23770721  0.43055230  1
  Te  Te146  1  0.88854576  0.20487314  0.79032532  1
  Te  Te147  1  0.91969788  0.58827985  0.08745671  1
  Te  Te148  1  0.90236708  0.58270221  0.41804449  1
  Te  Te149  1  0.92986588  0.58924326  0.74638181  1
  Te  Te150  1  0.92406731  0.92121445  0.06730760  1
  Te  Te151  1  0.94095557  0.90331774  0.45466567  1
  Te  Te152  1  0.89383115  0.93719432  0.76441720  1
  Te  Te153  1  0.26626182  0.08865951  0.27335758  1
  Te  Te154  1  0.26132338  0.09302229  0.57519252  1
  Te  Te155  1  0.22389975  0.06636006  0.89123709  1
  Te  Te156  1  0.23918636  0.40511135  0.24240259  1
  Te  Te157  1  0.26232863  0.39914573  0.60242789  1
  Te  Te158  1  0.25374911  0.40312205  0.92734084  1
  Te  Te159  1  0.24230692  0.75173170  0.24411399  1
  Te  Te160  1  0.25586233  0.77283944  0.58460322  1
  Te  Te161  1  0.24091796  0.73699927  0.91890151  1
  Te  Te162  1  0.60163610  0.12430159  0.23854213  1
  Te  Te163  1  0.57688149  0.07422737  0.57300987  1
  Te  Te164  1  0.58561063  0.07887205  0.90731926  1
  Te  Te165  1  0.62324242  0.37376131  0.30350198  1
  Te  Te166  1  0.60976859  0.41268550  0.56924848  1
  Te  Te167  1  0.59778878  0.42481479  0.89486919  1
  Te  Te168  1  0.57077378  0.74930121  0.23413501  1
  Te  Te169  1  0.58362058  0.72790923  0.60618077  1
  Te  Te170  1  0.59749502  0.75498944  0.91097904  1
  Te  Te171  1  0.91274284  0.08519269  0.26404452  1
  Te  Te172  1  0.94445414  0.11783672  0.60198778  1
  Te  Te173  1  0.89327253  0.12331944  0.91456363  1
  Te  Te174  1  0.87852713  0.40669426  0.27909091  1
  Te  Te175  1  0.91413133  0.39807041  0.59856568  1
  Te  Te176  1  0.94806947  0.40985654  0.90615153  1
  Te  Te177  1  0.89919175  0.76166467  0.25168180  1
  Te  Te178  1  0.93558660  0.74189825  0.60646254  1
  Te  Te179  1  0.91769223  0.77739845  0.89509001  1
