# generated using pymatgen
data_In2Te3
_symmetry_space_group_name_H-M   'P 1'
_cell_length_a   18.99194325
_cell_length_b   18.96597772
_cell_length_c   18.95163127
_cell_angle_alpha   89.84579219
_cell_angle_beta   89.98357421
_cell_angle_gamma   89.94329215
_symmetry_Int_Tables_number   1
_chemical_formula_structural   In2Te3
_chemical_formula_sum   'In72 Te108'
_cell_volume   6826.36388350
_cell_formula_units_Z   36
loop_
 _symmetry_equiv_pos_site_id
 _symmetry_equiv_pos_as_xyz
  1  'x, y, z'
loop_
 _atom_site_type_symbol
 _atom_site_label
 _atom_site_symmetry_multiplicity
 _atom_site_fract_x
 _atom_site_fract_y
 _atom_site_fract_z
 _atom_site_occupancy
  In  In0  1  0.83679754  0.81457709  -0.02634348  1
  In  In1  1  0.81108187  0.00831421  0.16039861  1
  In  In2  1  0.00968933  0.15402481  0.12831443  1
  In  In3  1  0.51258651  0.66987936  0.81970298  1
  In  In4  1  0.50084578  0.84748830  0.66856595  1
  In  In5  1  0.34210395  0.82633873  0.81904339  1
  In  In6  1  0.14389103  0.82144868  0.70187717  1
  In  In7  1  -0.00253986  0.83147079  0.17415072  1
  In  In8  1  0.71031180  0.50071202  0.81927055  1
  In  In9  1  0.68403826  0.83138139  0.50540739  1
  In  In10  1  0.32236812  0.01027137  0.65556459  1
  In  In11  1  0.14962877  0.67491826  0.51261681  1
  In  In12  1  0.85094900  0.66584060  0.80591530  1
  In  In13  1  0.64577436  0.19481743  0.16951830  1
  In  In14  1  0.67593576  0.32540294  -0.00118234  1
  In  In15  1  0.34157931  0.15802425  0.19234868  1
  In  In16  1  0.31372098  -0.01208699  0.35108266  1
  In  In17  1  0.16207914  0.17157647  0.34144358  1
  In  In18  1  0.85013476  0.34291900  0.17050327  1
  In  In19  1  0.82729898  0.65891067  0.15881873  1
  In  In20  1  0.68489858  0.67524372  0.35386633  1
  In  In21  1  0.47377344  0.82395825  0.00113646  1
  In  In22  1  0.18359716  0.69791789  0.17826918  1
  In  In23  1  -0.00230403  -0.00537645  -0.02161093  1
  In  In24  1  0.49190091  0.01607026  0.50280689  1
  In  In25  1  0.50769965  0.49551779  0.68007234  1
  In  In26  1  0.32996397  0.66418901  0.00379306  1
  In  In27  1  0.51058816  0.66582367  0.51849886  1
  In  In28  1  0.15861493  0.52830444  0.36010732  1
  In  In29  1  0.17000015  0.35063539  0.15554119  1
  In  In30  1  0.69682699  0.35034708  0.68539972  1
  In  In31  1  0.18710468  0.31006731  0.81376990  1
  In  In32  1  0.01315154  0.33719725  0.34694378  1
  In  In33  1  0.83964839  0.14577790  -0.03186460  1
  In  In34  1  0.49837158  0.17180214  0.33687127  1
  In  In35  1  0.90581795  -0.01191137  0.57850664  1
  In  In36  1  0.03471867  -0.01109538  0.35364368  1
  In  In37  1  0.86162124  0.01325608  0.80286889  1
  In  In38  1  0.29719384  0.01369519  -0.01354883  1
  In  In39  1  0.32367933  0.53107211  0.20345935  1
  In  In40  1  0.49568014  0.32173474  0.85715666  1
  In  In41  1  0.67798422  0.15990723  0.83952704  1
  In  In42  1  0.51597902  0.57838317  0.23272516  1
  In  In43  1  0.67481417  0.01128559  0.33135833  1
  In  In44  1  0.16571878  0.14651989  0.67086392  1
  In  In45  1  0.00779338  0.84132514  0.50485024  1
  In  In46  1  0.64370725  0.65497532  -0.04150682  1
  In  In47  1  0.83248637  0.32368438  0.49504224  1
  In  In48  1  0.83257821  0.81327314  0.65465031  1
  In  In49  1  0.65511602  0.84168341  0.17393386  1
  In  In50  1  0.65027671  0.17196469  0.52308818  1
  In  In51  1  0.16372979  0.83957749  -0.02680541  1
  In  In52  1  -0.04955146  0.64613065  0.37416480  1
  In  In53  1  -0.00043801  0.31890355  -0.13489516  1
  In  In54  1  0.65915515  -0.01783035  -0.01285616  1
  In  In55  1  0.83572810  0.16689511  0.32300659  1
  In  In56  1  0.14376764  0.50846213  0.65240925  1
  In  In57  1  0.71256595  0.50148050  0.52021290  1
  In  In58  1  0.49732024  0.16271725  0.00893490  1
  In  In59  1  0.47969585  0.18161808  0.65144684  1
  In  In60  1  0.33660656  0.32150236  0.01280265  1
  In  In61  1  0.13583240  0.50530032  -0.02482481  1
  In  In62  1  0.30736097  0.49732480  0.80246965  1
  In  In63  1  0.00367119  0.32676746  0.65494162  1
  In  In64  1  0.33652279  0.83068632  0.19200351  1
  In  In65  1  0.66263436  0.47533243  0.18200642  1
  In  In66  1  0.01177946  0.49191531  0.17876068  1
  In  In67  1  0.48665329  0.35005047  0.48150951  1
  In  In68  1  0.49424915  0.49072785  0.01069004  1
  In  In69  1  -0.01369772  0.66266602  -0.02404961  1
  In  In70  1  0.17506721  0.35322866  0.48643823  1
  In  In71  1  0.48558300  0.81646328  0.35076942  1
  Te  Te72  1  0.09933047  0.05290700  0.07046801  1
  Te  Te73  1  0.10739105  0.07893034  0.44392636  1
  Te  Te74  1  0.06223989  0.03585580  0.67198114  1
  Te  Te75  1  0.06202776  0.40636029  0.06337972  1
  Te  Te76  1  0.05718174  0.44840538  0.44138377  1
  Te  Te77  1  0.08512865  0.40963147  0.76273237  1
  Te  Te78  1  0.07439146  0.74767601  0.06980808  1
  Te  Te79  1  0.06273328  0.74043434  0.40360458  1
  Te  Te80  1  0.06190971  0.72777651  0.78197660  1
  Te  Te81  1  0.40293994  0.07192869  0.08420163  1
  Te  Te82  1  0.39624051  0.09772667  0.42090801  1
  Te  Te83  1  0.41374636  0.08776127  0.74163786  1
  Te  Te84  1  0.38934956  0.43327849  0.10213859  1
  Te  Te85  1  0.42924708  0.44291874  0.38329901  1
  Te  Te86  1  0.41327803  0.40084339  0.75496061  1
  Te  Te87  1  0.41734297  0.73081257  0.10765148  1
  Te  Te88  1  0.41009328  0.75788771  0.46008014  1
  Te  Te89  1  0.41211518  0.73057184  0.72595151  1
  Te  Te90  1  0.72724624  0.10167212  0.07213700  1
  Te  Te91  1  0.74944444  0.09784227  0.42769459  1
  Te  Te92  1  0.74787920  0.08063044  0.73906639  1
  Te  Te93  1  0.75929231  0.42306379  0.07756881  1
  Te  Te94  1  0.74036925  0.40446932  0.41452212  1
  Te  Te95  1  0.81807419  0.41591461  0.75287599  1
  Te  Te96  1  0.74030994  0.75660094  0.07765244  1
  Te  Te97  1  0.78423965  0.75104724  0.43278067  1
  Te  Te98  1  0.75018999  0.76303511  0.76521490  1
  Te  Te99  1  0.06844703  0.25435302  0.23186006  1
  Te  Te100  1  0.10542977  0.25258670  0.57359729  1
  Te  Te101  1  0.11503196  0.23683447  0.92201993  1
  Te  Te102  1  0.08410804  0.60378198  0.24920982  1
  Te  Te103  1  0.04575075  0.60956105  0.59921381  1
  Te  Te104  1  0.06594659  0.58781307  0.87404529  1
  Te  Te105  1  0.10139117  0.90240113  0.25345351  1
  Te  Te106  1  0.12094174  0.90848223  0.57737877  1
  Te  Te107  1  0.09397108  0.93323318  0.88408377  1
  Te  Te108  1  0.41860332  0.26380881  0.25522347  1
  Te  Te109  1  0.39952941  0.25901679  0.55783254  1
  Te  Te110  1  0.39417747  0.22334663  0.91269131  1
  Te  Te111  1  0.39535960  0.59203769  0.31895181  1
  Te  Te112  1  0.42389152  0.56611181  0.58399793  1
  Te  Te113  1  0.42192606  0.58250705  0.91199474  1
  Te  Te114  1  0.42622487  0.92747551  0.26634866  1
  Te  Te115  1  0.40397895  0.91324702  0.56953663  1
  Te  Te116  1  0.40265291  0.92664189  0.91509399  1
  Te  Te117  1  0.74578309  0.26888704  0.25414498  1
  Te  Te118  1  0.76065045  0.24087302  0.60198826  1
  Te  Te119  1  0.77114617  0.26348102  0.89847171  1
  Te  Te120  1  0.74931143  0.57462552  0.25722055  1
  Te  Te121  1  0.78625565  0.59787077  0.60516421  1
  Te  Te122  1  0.77416874  0.59232066  0.92216906  1
  Te  Te123  1  0.76013500  0.90592441  0.26224539  1
  Te  Te124  1  0.76052161  0.93205771  0.58615751  1
  Te  Te125  1  0.77273413  0.93220379  0.90286778  1
  Te  Te126  1  0.24494272  0.23534943  0.09550893  1
  Te  Te127  1  0.25278930  0.27508971  0.38909855  1
  Te  Te128  1  0.27381881  0.23095516  0.72706436  1
  Te  Te129  1  0.22721665  0.58060852  0.08132220  1
  Te  Te130  1  0.24905234  0.57225974  0.46874008  1
  Te  Te131  1  0.23631187  0.59730929  0.72667666  1
  Te  Te132  1  0.25651527  0.89631217  0.08038253  1
  Te  Te133  1  0.21866171  0.87875556  0.37410519  1
  Te  Te134  1  0.24639005  0.92469652  0.75671615  1
  Te  Te135  1  0.55646631  0.28154032  0.08316342  1
  Te  Te136  1  0.59377776  0.25918731  0.41459126  1
  Te  Te137  1  0.58984861  0.25955206  0.75600095  1
  Te  Te138  1  0.58895912  0.58575761  0.08256579  1
  Te  Te139  1  0.60576489  0.57996486  0.43850149  1
  Te  Te140  1  0.61277049  0.58672070  0.74015544  1
  Te  Te141  1  0.56154300  0.91951389  0.08468633  1
  Te  Te142  1  0.58748051  0.92130373  0.42051903  1
  Te  Te143  1  0.56106002  0.89667746  0.79043572  1
  Te  Te144  1  0.90381357  0.24294540  0.06751791  1
  Te  Te145  1  0.93357646  0.23061946  0.41904994  1
  Te  Te146  1  0.94804251  0.22960029  0.75342361  1
  Te  Te147  1  0.92380992  0.57247335  0.08110654  1
  Te  Te148  1  0.84964134  0.58149100  0.46263692  1
  Te  Te149  1  0.89513925  0.56467404  0.70943756  1
  Te  Te150  1  0.90524962  0.91168704  0.07915586  1
  Te  Te151  1  0.91550917  0.94057192  0.43004215  1
  Te  Te152  1  0.93274167  0.91532169  0.71532572  1
  Te  Te153  1  0.23279663  0.07163845  0.25180287  1
  Te  Te154  1  0.23833492  0.08210258  0.55570906  1
  Te  Te155  1  0.19133963  0.09441446  0.92524433  1
  Te  Te156  1  0.23230580  0.42740681  0.26862325  1
  Te  Te157  1  0.25340004  0.43889981  0.57883613  1
  Te  Te158  1  0.25313699  0.41984146  0.92317858  1
  Te  Te159  1  0.26028588  0.75013899  0.29533477  1
  Te  Te160  1  0.22824297  0.77674736  0.58787662  1
  Te  Te161  1  0.24741968  0.73542131  0.90088800  1
  Te  Te162  1  0.57646782  0.08071632  0.23981916  1
  Te  Te163  1  0.58114799  0.06917892  0.61080749  1
  Te  Te164  1  0.57119888  0.07665063  0.90763407  1
  Te  Te165  1  0.54801332  0.43633441  0.26779075  1
  Te  Te166  1  0.59151048  0.40433995  0.59053860  1
  Te  Te167  1  0.59761119  0.43030026  0.90762041  1
  Te  Te168  1  0.57893174  0.73810239  0.25718533  1
  Te  Te169  1  0.60163337  0.75323725  0.60365565  1
  Te  Te170  1  0.58798953  0.78651999  0.89754467  1
  Te  Te171  1  0.92373621  0.07672112  0.23635516  1
  Te  Te172  1  0.94686376  0.12228834  0.62855884  1
  Te  Te173  1  0.95680387  0.10541978  0.88205461  1
  Te  Te174  1  0.91420936  0.43029430  0.27682010  1
  Te  Te175  1  0.93246975  0.41340888  0.55807432  1
  Te  Te176  1  0.89415082  0.41681607  0.88792776  1
  Te  Te177  1  0.90945084  0.73987967  0.25655309  1
  Te  Te178  1  0.94979448  0.73973851  0.59803721  1
  Te  Te179  1  0.94988112  0.77832604  0.87799425  1
