# generated using pymatgen
data_In2Te3
_symmetry_space_group_name_H-M   'P 1'
_cell_length_a   19.00703366
_cell_length_b   18.99572688
_cell_length_c   18.97645734
_cell_angle_alpha   89.88443916
_cell_angle_beta   89.89912765
_cell_angle_gamma   89.99479938
_symmetry_Int_Tables_number   1
_chemical_formula_structural   In2Te3
_chemical_formula_sum   'In72 Te108'
_cell_volume   6851.47127124
_cell_formula_units_Z   36
loop_
 _symmetry_equiv_pos_site_id
 _symmetry_equiv_pos_as_xyz
  1  'x, y, z'
loop_
 _atom_site_type_symbol
 _atom_site_label
 _atom_site_symmetry_multiplicity
 _atom_site_fract_x
 _atom_site_fract_y
 _atom_site_fract_z
 _atom_site_occupancy
  In  In0  1  0.34694645  0.46329785  0.16016336  1
  In  In1  1  0.65065771  0.66078871  0.00557827  1
  In  In2  1  0.61037790  0.28702052  -0.08166925  1
  In  In3  1  0.83063722  0.17258762  0.37890354  1
  In  In4  1  0.85292421  0.67044192  0.50457158  1
  In  In5  1  0.01435544  0.14778516  0.18720424  1
  In  In6  1  0.66625219  0.16262653  0.79714980  1
  In  In7  1  0.66458905  0.82815415  0.18191022  1
  In  In8  1  0.00563818  0.84841774  0.81281802  1
  In  In9  1  -0.01092464  0.31666355  0.34280611  1
  In  In10  1  0.19334654  0.86434048  0.65646276  1
  In  In11  1  0.47457514  0.88276187  -0.03670525  1
  In  In12  1  0.02355883  0.50811411  0.16045736  1
  In  In13  1  0.48178854  0.66903925  0.48367703  1
  In  In14  1  0.49043518  0.01583884  0.16942719  1
  In  In15  1  0.35070673  0.85483990  0.14865958  1
  In  In16  1  0.48327631  0.65631556  0.83647904  1
  In  In17  1  0.16789286  0.46759130  0.65640888  1
  In  In18  1  0.68021179  0.66544896  0.64179246  1
  In  In19  1  -0.00744505  0.51788240  0.85346752  1
  In  In20  1  0.88106768  0.88798036  -0.01583413  1
  In  In21  1  0.81548747  0.48945102  0.35807765  1
  In  In22  1  0.35022965  0.31158513  0.66939687  1
  In  In23  1  0.34546777  0.50780508  0.49591132  1
  In  In24  1  0.31701372  0.65755920  -0.01225053  1
  In  In25  1  0.83960511  0.64073116  0.17157656  1
  In  In26  1  -0.02043281  0.13715676  0.85664797  1
  In  In27  1  -0.03720349  0.02285657  0.65078308  1
  In  In28  1  0.51183573  0.32989086  0.15670588  1
  In  In29  1  0.14353454  0.14799396  0.01733919  1
  In  In30  1  0.16057237  0.47245670  -0.02872234  1
  In  In31  1  0.49733027  0.15020365  0.35203393  1
  In  In32  1  0.32778595  0.68305772  0.33266368  1
  In  In33  1  0.86569276  0.31774882  0.17753517  1
  In  In34  1  0.65369589  0.18566624  0.53798158  1
  In  In35  1  0.84336192  0.48449850  0.66614660  1
  In  In36  1  0.66653123  0.49841767  0.84985134  1
  In  In37  1  0.51166856  0.51886712  0.32392235  1
  In  In38  1  0.17933435  0.02037981  0.84190572  1
  In  In39  1  0.68906049  0.48980364  0.17639823  1
  In  In40  1  0.02225701  0.65901647  0.68861070  1
  In  In41  1  0.16989187  0.13880936  0.35269971  1
  In  In42  1  0.02010593  0.68422698  0.00373652  1
  In  In43  1  0.19914500  0.68401390  0.15548304  1
  In  In44  1  0.67485454  -0.01438877  0.34561252  1
  In  In45  1  0.00601887  0.85379538  0.49253630  1
  In  In46  1  0.17198044  0.14863355  0.63744352  1
  In  In47  1  0.15950842  0.67395526  0.52835393  1
  In  In48  1  0.51240241  0.50194102  0.64044575  1
  In  In49  1  0.65703646  0.82503613  0.81048297  1
  In  In50  1  0.31960371  0.30213276  0.33677086  1
  In  In51  1  -0.00537301  -0.00056374  0.33933980  1
  In  In52  1  0.48721321  0.32909539  0.50572105  1
  In  In53  1  0.51418666  0.67842406  0.16478213  1
  In  In54  1  0.66521715  0.85293240  0.52171914  1
  In  In55  1  0.47874470  0.10653646  -0.06173403  1
  In  In56  1  0.31959616  0.49660473  0.81990051  1
  In  In57  1  0.30160157  0.14014235  0.17950358  1
  In  In58  1  0.69553954  0.17844065  0.16003681  1
  In  In59  1  -0.03922564  0.48754095  0.47995543  1
  In  In60  1  0.20958319  0.84775105  -0.01606298  1
  In  In61  1  0.01787993  0.74851651  0.33549695  1
  In  In62  1  0.81221015  0.30715170  0.79872186  1
  In  In63  1  0.79572634  0.49938141  -0.00628448  1
  In  In64  1  -0.01262738  0.33667410  -0.01131574  1
  In  In65  1  0.68539607  -0.00781115  0.01854124  1
  In  In66  1  0.49382327  0.01991148  0.50138270  1
  In  In67  1  0.14232191  0.49763725  0.32945090  1
  In  In68  1  0.14916551  0.31030143  0.77246202  1
  In  In69  1  0.83858044  0.83891322  0.33682542  1
  In  In70  1  0.82659164  0.86470763  0.64072258  1
  In  In71  1  0.47381696  0.84721953  0.68557658  1
  Te  Te72  1  0.08363350  0.04164102  0.10569950  1
  Te  Te73  1  0.06309926  0.08314630  0.44152189  1
  Te  Te74  1  0.07579462  0.08013780  0.74514136  1
  Te  Te75  1  0.08943702  0.39626905  0.08415427  1
  Te  Te76  1  0.07966350  0.40408717  0.42949538  1
  Te  Te77  1  0.05065974  0.42820691  0.74927034  1
  Te  Te78  1  0.10637897  0.77746767  0.08083017  1
  Te  Te79  1  0.13014350  0.78941204  0.43361809  1
  Te  Te80  1  0.11127130  0.76384308  0.74631132  1
  Te  Te81  1  0.41074351  0.09787711  0.07376926  1
  Te  Te82  1  0.38593667  0.06327253  0.40197035  1
  Te  Te83  1  0.43130796  0.09611977  0.79497683  1
  Te  Te84  1  0.40245450  0.36830291  0.06604265  1
  Te  Te85  1  0.41414168  0.42084892  0.39221419  1
  Te  Te86  1  0.42590390  0.42374072  0.73773550  1
  Te  Te87  1  0.41496240  0.74169565  0.06946416  1
  Te  Te88  1  0.38904746  0.76920772  0.43246665  1
  Te  Te89  1  0.39429986  0.75076003  0.76635598  1
  Te  Te90  1  0.77727943  0.08421623  0.08414008  1
  Te  Te91  1  0.72742293  0.08345019  0.44578953  1
  Te  Te92  1  0.75171033  0.08756333  0.70121808  1
  Te  Te93  1  0.76006574  0.38873086  0.08876478  1
  Te  Te94  1  0.79169039  0.37389156  0.44734883  1
  Te  Te95  1  0.72735491  0.41714864  0.73758509  1
  Te  Te96  1  0.74785015  0.73578034  0.09323540  1
  Te  Te97  1  0.75269198  0.76124244  0.43555774  1
  Te  Te98  1  0.76424934  0.75610537  0.72857127  1
  Te  Te99  1  0.09523712  0.24781497  0.26305092  1
  Te  Te100  1  0.10389717  0.27970810  0.63198804  1
  Te  Te101  1  0.07396670  0.25083626  0.90010510  1
  Te  Te102  1  0.09075159  0.61662567  0.24182643  1
  Te  Te103  1  0.05897286  0.56422839  0.57624992  1
  Te  Te104  1  0.10554158  0.60116880  0.90954610  1
  Te  Te105  1  0.05839391  0.88109336  0.27789016  1
  Te  Te106  1  0.07665419  0.93972365  0.59340661  1
  Te  Te107  1  0.09302309  0.91799296  0.91384369  1
  Te  Te108  1  0.42312034  0.23508341  0.24792513  1
  Te  Te109  1  0.41782405  0.21798411  0.57499191  1
  Te  Te110  1  0.45525731  0.23701855  0.86312153  1
  Te  Te111  1  0.39964147  0.58972191  0.23641470  1
  Te  Te112  1  0.40597251  0.60001946  0.59752269  1
  Te  Te113  1  0.41210674  0.55753679  0.92633417  1
  Te  Te114  1  0.43323654  0.91301570  0.25485694  1
  Te  Te115  1  0.40055595  0.92990456  0.58219486  1
  Te  Te116  1  0.39503385  0.96274260  0.86765231  1
  Te  Te117  1  0.76149444  0.25925882  0.26946508  1
  Te  Te118  1  0.76658719  0.27915124  0.56795284  1
  Te  Te119  1  0.75369221  0.22806195  0.91071864  1
  Te  Te120  1  0.74026826  0.59324487  0.27499076  1
  Te  Te121  1  0.76169429  0.56472900  0.56423213  1
  Te  Te122  1  0.75199522  0.61299081  0.90348943  1
  Te  Te123  1  0.76360723  0.92751236  0.23753860  1
  Te  Te124  1  0.71089385  0.95757783  0.61825892  1
  Te  Te125  1  0.74029544  0.88302381  0.92684525  1
  Te  Te126  1  0.22649245  0.23684367  0.09987948  1
  Te  Te127  1  0.24968266  0.22745124  0.43963173  1
  Te  Te128  1  0.26372651  0.21284618  0.74391513  1
  Te  Te129  1  0.24019435  0.55676203  0.07882945  1
  Te  Te130  1  0.23446949  0.58362506  0.41680280  1
  Te  Te131  1  0.23007356  0.57312816  0.73434953  1
  Te  Te132  1  0.27154991  0.94839744  0.06904493  1
  Te  Te133  1  0.27485723  0.98623122  0.48279185  1
  Te  Te134  1  0.27284498  0.93369081  0.76274986  1
  Te  Te135  1  0.59303155  0.23812870  0.06883186  1
  Te  Te136  1  0.58578135  0.25166698  0.41654657  1
  Te  Te137  1  0.57787045  0.27880357  0.76756649  1
  Te  Te138  1  0.58077241  0.56088259  0.09481624  1
  Te  Te139  1  0.58624257  0.58086432  0.43260839  1
  Te  Te140  1  0.59085872  0.59523685  0.74633413  1
  Te  Te141  1  0.57109744  0.90782742  0.08348166  1
  Te  Te142  1  0.56834704  0.91133336  0.42147448  1
  Te  Te143  1  0.57844332  0.93001843  0.74731038  1
  Te  Te144  1  0.93397020  0.22736284  0.07887080  1
  Te  Te145  1  0.95905422  0.21207578  0.44399044  1
  Te  Te146  1  0.91964792  0.21987668  0.74581708  1
  Te  Te147  1  0.92273731  0.56809578  0.05898830  1
  Te  Te148  1  0.94353236  0.61614450  0.39809213  1
  Te  Te149  1  0.90352792  0.59279061  0.75543349  1
  Te  Te150  1  0.95049491  0.95951197  0.09053674  1
  Te  Te151  1  0.89181306  0.93592166  0.43973851  1
  Te  Te152  1  0.89548029  0.93587679  0.75554964  1
  Te  Te153  1  0.22899186  0.04243893  0.25878002  1
  Te  Te154  1  0.28616199  0.05207090  0.61316941  1
  Te  Te155  1  0.25124245  0.11873642  0.92303485  1
  Te  Te156  1  0.24194902  0.40983768  0.25649712  1
  Te  Te157  1  0.27050709  0.39965533  0.56978674  1
  Te  Te158  1  0.24062360  0.38418421  0.88258680  1
  Te  Te159  1  0.25387611  0.78592733  0.25043982  1
  Te  Te160  1  0.26466870  0.75482029  0.58847837  1
  Te  Te161  1  0.27573572  0.75715156  0.88742019  1
  Te  Te162  1  0.60201945  0.08560774  0.25068299  1
  Te  Te163  1  0.54335621  0.11253299  0.60749378  1
  Te  Te164  1  0.61713377  0.05866127  0.90105167  1
  Te  Te165  1  0.59368311  0.40777454  0.26081446  1
  Te  Te166  1  0.59371561  0.41326823  0.55940292  1
  Te  Te167  1  0.57563803  0.42815005  0.93825621  1
  Te  Te168  1  0.58480210  0.74544252  0.27240065  1
  Te  Te169  1  0.56968751  0.75787554  0.59449659  1
  Te  Te170  1  0.56314732  0.75532765  0.92215120  1
  Te  Te171  1  0.89870065  0.09222689  0.26765267  1
  Te  Te172  1  0.86891360  0.13112050  0.61142618  1
  Te  Te173  1  0.92019810  0.03385006  0.94823609  1
  Te  Te174  1  0.92292837  0.43887191  0.25250060  1
  Te  Te175  1  0.90335066  0.38254934  0.57306295  1
  Te  Te176  1  0.88614100  0.40934701  0.90131609  1
  Te  Te177  1  0.91062152  0.76265697  0.22393293  1
  Te  Te178  1  0.93832869  0.75677854  0.59575113  1
  Te  Te179  1  0.92749446  0.75905985  0.91165081  1
