# generated using pymatgen
data_In2Te3
_symmetry_space_group_name_H-M   'P 1'
_cell_length_a   18.88013507
_cell_length_b   18.88044883
_cell_length_c   18.88753616
_cell_angle_alpha   89.86614177
_cell_angle_beta   89.96020612
_cell_angle_gamma   90.10877743
_symmetry_Int_Tables_number   1
_chemical_formula_structural   In2Te3
_chemical_formula_sum   'In72 Te108'
_cell_volume   6732.72143318
_cell_formula_units_Z   36
loop_
 _symmetry_equiv_pos_site_id
 _symmetry_equiv_pos_as_xyz
  1  'x, y, z'
loop_
 _atom_site_type_symbol
 _atom_site_label
 _atom_site_symmetry_multiplicity
 _atom_site_fract_x
 _atom_site_fract_y
 _atom_site_fract_z
 _atom_site_occupancy
  In  In0  1  0.35724719  -0.00450776  -0.00146382  1
  In  In1  1  0.29310154  0.81887818  0.18683459  1
  In  In2  1  0.17637610  0.82403577  0.32758367  1
  In  In3  1  0.15367079  0.51458222  0.65954143  1
  In  In4  1  0.14559694  0.32894935  0.50272169  1
  In  In5  1  0.47278047  0.16517837  0.64107184  1
  In  In6  1  0.00391823  0.33953564  0.32768375  1
  In  In7  1  0.14743145  0.16088304  0.00407331  1
  In  In8  1  0.65843148  0.65938151  0.31929286  1
  In  In9  1  0.32393237  0.33173667  0.68149162  1
  In  In10  1  0.50359327  0.33209258  0.86146738  1
  In  In11  1  0.51403274  0.66753801  0.82076179  1
  In  In12  1  0.52072071  -0.00228153  0.81298085  1
  In  In13  1  0.48490465  0.65175294  0.16399982  1
  In  In14  1  -0.02019247  0.49895951  0.50253299  1
  In  In15  1  0.14444950  0.18245736  0.32084772  1
  In  In16  1  0.02179434  0.65972488  0.00246569  1
  In  In17  1  -0.00674148  0.66160032  0.31984239  1
  In  In18  1  0.67708084  0.34540554  0.68152704  1
  In  In19  1  0.65547209  0.18051276  0.18793895  1
  In  In20  1  0.16524572  0.81272647  -0.01879599  1
  In  In21  1  0.84271630  0.83829466  0.00140851  1
  In  In22  1  0.50274996  0.00273105  0.50332223  1
  In  In23  1  0.50657587  0.02254297  0.18128547  1
  In  In24  1  0.14795387  0.01197554  0.15507225  1
  In  In25  1  0.48339000  0.66290901  0.48565382  1
  In  In26  1  -0.00989902  0.00385751  0.67365258  1
  In  In27  1  0.34195302  0.66736305  0.65035045  1
  In  In28  1  0.68733102  0.84257222  0.17548621  1
  In  In29  1  0.48164099  0.37495768  0.21333267  1
  In  In30  1  0.51222931  0.51593101  0.64673422  1
  In  In31  1  0.35054495  0.16878557  0.82826374  1
  In  In32  1  0.68040951  0.89364996  0.48925507  1
  In  In33  1  0.69877718  0.68919482  0.67833751  1
  In  In34  1  0.83077058  0.52528961  -0.02331741  1
  In  In35  1  0.30827245  0.48338843  0.17698661  1
  In  In36  1  0.81886000  0.83427751  0.32982177  1
  In  In37  1  0.83712680  0.65284831  0.17019055  1
  In  In38  1  0.30622745  0.16330134  0.51590210  1
  In  In39  1  -0.00371972  0.32778473  0.64383055  1
  In  In40  1  0.83300129  0.15582712  0.67467166  1
  In  In41  1  0.71018453  -0.01467914  0.01704222  1
  In  In42  1  0.51844244  0.50105835  0.01214972  1
  In  In43  1  0.90151709  0.12843499  0.01350128  1
  In  In44  1  0.84823317  0.33413933  0.16229918  1
  In  In45  1  0.48111755  0.17896048  -0.02345622  1
  In  In46  1  -0.00536739  0.00669026  0.33763545  1
  In  In47  1  0.84365027  0.34558409  0.84541806  1
  In  In48  1  -0.00545145  0.53559518  0.82733049  1
  In  In49  1  0.67902871  0.49766682  0.48827575  1
  In  In50  1  0.16193051  0.33074037  0.84710576  1
  In  In51  1  0.31636054  0.21808997  0.17961685  1
  In  In52  1  0.83695863  0.00433690  0.18519038  1
  In  In53  1  0.32373918  0.48592775  0.36768767  1
  In  In54  1  0.33981612  -0.00210171  0.33658915  1
  In  In55  1  0.15401422  0.82621510  0.67831593  1
  In  In56  1  0.51677855  0.81471006  -0.00810437  1
  In  In57  1  0.33035451  0.81007731  0.49223961  1
  In  In58  1  0.67012858  0.16147109  0.81575840  1
  In  In59  1  -0.00539783  0.16735664  0.48477269  1
  In  In60  1  0.84803157  0.68531791  0.51382918  1
  In  In61  1  0.31945577  0.66879521  -0.01433059  1
  In  In62  1  0.66733116  0.33498387  0.01280593  1
  In  In63  1  -0.00416288  0.84445386  0.82122527  1
  In  In64  1  0.01091222  0.83974990  0.51163288  1
  In  In65  1  0.31567898  0.47993048  0.83849492  1
  In  In66  1  0.15651599  0.66219851  0.18423679  1
  In  In67  1  0.69268158  0.15908275  0.47139674  1
  In  In68  1  0.15893914  -0.00714953  0.82095006  1
  In  In69  1  0.69404751  -0.01055837  0.67130610  1
  In  In70  1  0.51777018  0.84678984  0.64368165  1
  In  In71  1  0.66682349  0.34309535  0.33390219  1
  Te  Te72  1  0.03986129  0.08080736  0.07625504  1
  Te  Te73  1  0.10058668  0.07678944  0.42169494  1
  Te  Te74  1  0.04817964  0.08905310  0.78443091  1
  Te  Te75  1  0.13865032  0.37147971  0.16363618  1
  Te  Te76  1  0.08776414  0.43747531  0.41548620  1
  Te  Te77  1  0.07486759  0.41485235  0.74433562  1
  Te  Te78  1  0.08098901  0.76232951  0.09836588  1
  Te  Te79  1  0.08006677  0.74363256  0.41401447  1
  Te  Te80  1  0.07527378  0.73420256  0.76368473  1
  Te  Te81  1  0.40234883  0.10712025  0.09343197  1
  Te  Te82  1  0.41151672  0.09689621  0.42585088  1
  Te  Te83  1  0.40395897  0.05894904  0.73228452  1
  Te  Te84  1  0.41166949  0.41920089  0.08100435  1
  Te  Te85  1  0.43928567  0.39173479  0.35978219  1
  Te  Te86  1  0.43155798  0.42441127  0.74930885  1
  Te  Te87  1  0.40031962  0.75829554  0.08100842  1
  Te  Te88  1  0.43554842  0.77062041  0.39507892  1
  Te  Te89  1  0.42811072  0.75834790  0.73524468  1
  Te  Te90  1  0.75462706  0.11009335  0.08758976  1
  Te  Te91  1  0.73336874  0.02498791  0.42935147  1
  Te  Te92  1  0.77858285  0.06096535  0.78380423  1
  Te  Te93  1  0.76098227  0.43110637  0.07880706  1
  Te  Te94  1  0.77109826  0.40420907  0.42126780  1
  Te  Te95  1  0.76392269  0.43735421  0.75850920  1
  Te  Te96  1  0.75166951  0.74496092  0.08294256  1
  Te  Te97  1  0.73411948  0.74978046  0.42417125  1
  Te  Te98  1  0.79736291  0.69956058  0.79254710  1
  Te  Te99  1  0.05835568  0.24660667  0.21704668  1
  Te  Te100  1  0.08989637  0.21895548  0.59228487  1
  Te  Te101  1  0.06191091  0.25614537  0.92839338  1
  Te  Te102  1  0.06765425  0.55964611  0.24231966  1
  Te  Te103  1  0.05297410  0.59704588  0.58860427  1
  Te  Te104  1  0.10888961  0.59011102  0.90497650  1
  Te  Te105  1  0.07947818  0.91531716  0.25047060  1
  Te  Te106  1  0.09804058  0.93799604  0.58909851  1
  Te  Te107  1  0.07506115  0.92151221  0.92697469  1
  Te  Te108  1  0.42196706  0.25158403  0.27708804  1
  Te  Te109  1  0.40696955  0.27696382  0.56603190  1
  Te  Te110  1  0.37703685  0.28071113  0.92817932  1
  Te  Te111  1  0.41272704  0.56352297  0.26051960  1
  Te  Te112  1  0.39693521  0.55890591  0.55805336  1
  Te  Te113  1  0.42144558  0.58061007  0.91142589  1
  Te  Te114  1  0.40779713  0.91589074  0.22960834  1
  Te  Te115  1  0.40017581  0.91623359  0.57837714  1
  Te  Te116  1  0.43317494  0.90662646  0.90226230  1
  Te  Te117  1  0.76890935  0.24727730  0.26072647  1
  Te  Te118  1  0.74422226  0.24486740  0.58994516  1
  Te  Te119  1  0.74599020  0.24873100  0.91448763  1
  Te  Te120  1  0.75519471  0.56744302  0.25849778  1
  Te  Te121  1  0.76036198  0.58338517  0.58639340  1
  Te  Te122  1  0.73645841  0.61848687  0.91321805  1
  Te  Te123  1  0.72428335  0.95106797  0.27291103  1
  Te  Te124  1  0.77472741  0.88340235  0.60445911  1
  Te  Te125  1  0.74702328  0.89926256  0.90581588  1
  Te  Te126  1  0.22618757  0.27251033  0.07405213  1
  Te  Te127  1  0.24279848  0.25568126  0.41140634  1
  Te  Te128  1  0.23266531  0.23184866  0.75150402  1
  Te  Te129  1  0.23889823  0.58411168  0.08266881  1
  Te  Te130  1  0.24887832  0.60504200  0.40689229  1
  Te  Te131  1  0.25543843  0.58576359  0.74771178  1
  Te  Te132  1  0.24494153  0.92144093  0.07349442  1
  Te  Te133  1  0.24487771  0.91961252  0.42483217  1
  Te  Te134  1  0.25392754  0.89520764  0.76501500  1
  Te  Te135  1  0.56440247  0.25008829  0.08492831  1
  Te  Te136  1  0.58999750  0.24651590  0.41859536  1
  Te  Te137  1  0.55783053  0.24170023  0.75026077  1
  Te  Te138  1  0.59807248  0.59633036  0.08931863  1
  Te  Te139  1  0.57160330  0.56782543  0.40567963  1
  Te  Te140  1  0.60893382  0.57884263  0.74267263  1
  Te  Te141  1  0.58256002  0.92743493  0.08119824  1
  Te  Te142  1  0.55340955  0.89709915  0.41213138  1
  Te  Te143  1  0.61144861  0.89014493  0.75645411  1
  Te  Te144  1  0.92901225  0.26871787  0.05372381  1
  Te  Te145  1  0.91392575  0.27639198  0.42863962  1
  Te  Te146  1  0.92039228  0.25148408  0.75321565  1
  Te  Te147  1  0.93208191  0.56975859  0.08473844  1
  Te  Te148  1  0.89527852  0.58709320  0.40841987  1
  Te  Te149  1  0.87555238  0.57119813  0.75040896  1
  Te  Te150  1  0.91975487  0.92962856  0.08926939  1
  Te  Te151  1  0.91028836  0.91311659  0.42367843  1
  Te  Te152  1  0.89706669  0.89771306  0.72260346  1
  Te  Te153  1  0.24829176  0.08690302  0.24315236  1
  Te  Te154  1  0.27395067  0.09350608  0.63909086  1
  Te  Te155  1  0.25654909  0.08082346  0.91820780  1
  Te  Te156  1  0.23579687  0.39204739  0.27646083  1
  Te  Te157  1  0.24127670  0.41650710  0.58384000  1
  Te  Te158  1  0.21108838  0.44064519  0.93418882  1
  Te  Te159  1  0.26958802  0.70013438  0.28884861  1
  Te  Te160  1  0.22838303  0.73540132  0.57646940  1
  Te  Te161  1  0.26604755  0.76424903  0.88538894  1
  Te  Te162  1  0.57234124  0.10345514  0.28376580  1
  Te  Te163  1  0.59734602  0.08156025  0.59865872  1
  Te  Te164  1  0.58585310  0.08176984  0.92231783  1
  Te  Te165  1  0.61715198  0.43291176  0.22631644  1
  Te  Te166  1  0.58702687  0.40596049  0.57483490  1
  Te  Te167  1  0.60712647  0.43067872  0.90855306  1
  Te  Te168  1  0.57763759  0.75706873  0.23494381  1
  Te  Te169  1  0.58454430  0.72706602  0.58030223  1
  Te  Te170  1  0.61164247  0.72899246  0.91703034  1
  Te  Te171  1  0.91313512  0.10275869  0.26318912  1
  Te  Te172  1  0.90451037  0.07553464  0.56799891  1
  Te  Te173  1  0.92504119  0.07246819  0.88086341  1
  Te  Te174  1  0.92831580  0.43241178  0.23996983  1
  Te  Te175  1  0.89191517  0.40851661  0.58032835  1
  Te  Te176  1  0.94046666  0.43123095  0.92560696  1
  Te  Te177  1  0.91579300  0.76579465  0.23762962  1
  Te  Te178  1  0.95481383  0.73585877  0.60471168  1
  Te  Te179  1  0.92703780  0.74233053  0.91861974  1
