# generated using pymatgen
data_In2Te3
_symmetry_space_group_name_H-M   'P 1'
_cell_length_a   19.05829293
_cell_length_b   19.08670092
_cell_length_c   19.06229062
_cell_angle_alpha   90.08032965
_cell_angle_beta   89.88818889
_cell_angle_gamma   89.93125043
_symmetry_Int_Tables_number   1
_chemical_formula_structural   In2Te3
_chemical_formula_sum   'In72 Te108'
_cell_volume   6934.07260719
_cell_formula_units_Z   36
loop_
 _symmetry_equiv_pos_site_id
 _symmetry_equiv_pos_as_xyz
  1  'x, y, z'
loop_
 _atom_site_type_symbol
 _atom_site_label
 _atom_site_symmetry_multiplicity
 _atom_site_fract_x
 _atom_site_fract_y
 _atom_site_fract_z
 _atom_site_occupancy
  In  In0  1  0.30193071  0.83657679  0.80742817  1
  In  In1  1  0.17256681  0.51004696  -0.01755214  1
  In  In2  1  0.02086246  0.34671625  0.69086725  1
  In  In3  1  0.47263350  0.33790288  0.17715264  1
  In  In4  1  0.36398001  0.85076512  0.21181365  1
  In  In5  1  0.32749640  -0.03441413  0.67418359  1
  In  In6  1  0.00132582  0.16906454  0.16218268  1
  In  In7  1  0.50391267  0.80943420  0.64597215  1
  In  In8  1  0.51056910  0.65303433  0.82345241  1
  In  In9  1  0.52347268  0.14182979  0.33810234  1
  In  In10  1  0.82939171  -0.00050521  0.48988199  1
  In  In11  1  0.64621723  0.60949545  0.62354352  1
  In  In12  1  0.00371358  0.35261435  0.02023275  1
  In  In13  1  0.49785451  0.64955663  0.48808425  1
  In  In14  1  0.84306378  0.84681630  0.00140370  1
  In  In15  1  0.72800438  0.70283806  0.35597989  1
  In  In16  1  -0.02631460  0.14281295  0.80446303  1
  In  In17  1  0.00695996  -0.00756474  0.34483738  1
  In  In18  1  -0.02715896  -0.03633799  0.64257061  1
  In  In19  1  -0.03812922  0.62797779  0.36157372  1
  In  In20  1  -0.00535979  0.01878590  -0.01056547  1
  In  In21  1  0.68050810  0.81594820  0.17767459  1
  In  In22  1  0.80180562  0.14307072  0.64699921  1
  In  In23  1  0.84000135  0.33941276  0.49937475  1
  In  In24  1  0.19358081  0.14486058  0.34382771  1
  In  In25  1  0.31089969  0.01206320  0.00684968  1
  In  In26  1  0.34394522  0.14051809  0.18377832  1
  In  In27  1  0.00847450  0.66407919  -0.01053032  1
  In  In28  1  0.31707506  0.34343469  0.64290763  1
  In  In29  1  0.35272651  0.66716997  0.34447917  1
  In  In30  1  0.15105629  -0.03004778  0.50243261  1
  In  In31  1  0.15909838  0.66554485  0.50067091  1
  In  In32  1  0.15130983  0.20184473  0.01542050  1
  In  In33  1  0.81732874  0.00304618  0.16858115  1
  In  In34  1  0.33811959  0.50831029  0.49738770  1
  In  In35  1  0.65507892  0.33676061  0.35750780  1
  In  In36  1  0.15722769  0.82925222  0.34348379  1
  In  In37  1  0.64527531  0.35071670  0.02444798  1
  In  In38  1  -0.02354379  0.49176167  0.20216592  1
  In  In39  1  0.83014071  0.33234674  0.83473906  1
  In  In40  1  0.66892219  0.37888748  0.61004994  1
  In  In41  1  0.15480962  0.34758009  0.45889503  1
  In  In42  1  0.50022147  0.86847235  0.02045490  1
  In  In43  1  0.36670092  0.14461216  0.49101408  1
  In  In44  1  0.31055137  0.51173725  0.18218573  1
  In  In45  1  0.67817733  0.51462113  0.17167782  1
  In  In46  1  0.67601421  0.15539367  0.19650228  1
  In  In47  1  0.67851829  0.83628164  0.83094276  1
  In  In48  1  0.81744121  0.82872101  0.65539018  1
  In  In49  1  0.68683822  0.17090061  0.82741462  1
  In  In50  1  0.15144792  0.34015535  0.84899419  1
  In  In51  1  0.84091920  0.68337342  0.82946637  1
  In  In52  1  0.67403341  0.68541787  -0.01316238  1
  In  In53  1  0.34237725  0.19509485  0.82750187  1
  In  In54  1  0.48504501  0.50614259  0.34389185  1
  In  In55  1  0.51319203  0.12542226  0.64900356  1
  In  In56  1  0.83409396  0.50742915  0.67516509  1
  In  In57  1  0.82956301  0.19615571  0.33600125  1
  In  In58  1  0.19159816  -0.00319643  0.81451975  1
  In  In59  1  0.26313613  0.65596791  0.66305771  1
  In  In60  1  0.36177603  0.69011404  0.00555835  1
  In  In61  1  0.49876155  0.16225734  -0.01310924  1
  In  In62  1  0.84137033  0.51690617  -0.01759008  1
  In  In63  1  0.50157208  0.51298596  0.00859907  1
  In  In64  1  0.14058477  0.67293539  0.17769797  1
  In  In65  1  0.01313338  0.68775934  0.66243774  1
  In  In66  1  0.50654131  -0.01054172  0.83994676  1
  In  In67  1  0.16535274  0.84747689  0.00979182  1
  In  In68  1  0.15696492  0.16044933  0.63756986  1
  In  In69  1  0.17658287  0.33393699  0.19114305  1
  In  In70  1  0.50237990  0.34662043  0.81091998  1
  In  In71  1  0.66673940  -0.02625617  0.35872733  1
  Te  Te72  1  0.09726681  0.08067869  0.08500986  1
  Te  Te73  1  0.08554984  0.08571011  0.43330050  1
  Te  Te74  1  0.07891865  0.06614588  0.72640638  1
  Te  Te75  1  0.10077734  0.43421290  0.09919862  1
  Te  Te76  1  0.05785631  0.42809060  0.38093413  1
  Te  Te77  1  0.11655281  0.44518809  0.74936497  1
  Te  Te78  1  0.06470555  0.76588180  0.08840285  1
  Te  Te79  1  0.05996513  0.73494729  0.40887021  1
  Te  Te80  1  0.10896174  0.76124100  0.74262815  1
  Te  Te81  1  0.43070561  0.06639066  0.08119509  1
  Te  Te82  1  0.41028766  0.05062700  0.38194644  1
  Te  Te83  1  0.40539587  0.07551890  0.75856574  1
  Te  Te84  1  0.40029963  0.43152835  0.08531746  1
  Te  Te85  1  0.42799854  0.41115739  0.43696822  1
  Te  Te86  1  0.39854997  0.41818087  0.73784479  1
  Te  Te87  1  0.44258664  0.76403311  0.11071905  1
  Te  Te88  1  0.44546091  0.75920221  0.40711989  1
  Te  Te89  1  0.41291766  0.75038768  0.75360283  1
  Te  Te90  1  0.75612468  0.10578370  0.08667524  1
  Te  Te91  1  0.74513461  0.09542170  0.40876493  1
  Te  Te92  1  0.74855094  0.06180439  0.75317187  1
  Te  Te93  1  0.76246358  0.42994489  0.07920373  1
  Te  Te94  1  0.76912658  0.42478752  0.39721251  1
  Te  Te95  1  0.73603638  0.40923182  0.73963194  1
  Te  Te96  1  0.77631369  0.73867218  0.08161166  1
  Te  Te97  1  0.82079814  0.77372965  0.44670240  1
  Te  Te98  1  0.72939860  0.72868944  0.73888616  1
  Te  Te99  1  0.09566100  0.23010772  0.26304649  1
  Te  Te100  1  0.08199562  0.27189491  0.57336452  1
  Te  Te101  1  0.05533488  0.23480942  0.90235795  1
  Te  Te102  1  0.08316604  0.57210228  0.27187978  1
  Te  Te103  1  0.06166335  0.58410950  0.57226273  1
  Te  Te104  1  0.09742928  0.59828918  0.89227718  1
  Te  Te105  1  0.07552466  0.90610024  0.25072524  1
  Te  Te106  1  0.04234809  0.87939680  0.54423062  1
  Te  Te107  1  0.09221325  0.93216701  0.90975105  1
  Te  Te108  1  0.41971160  0.23658519  0.27230812  1
  Te  Te109  1  0.41875858  0.23371402  0.60108115  1
  Te  Te110  1  0.42407331  0.27535045  0.92426077  1
  Te  Te111  1  0.42680418  0.59193502  0.23512924  1
  Te  Te112  1  0.39476611  0.60819839  0.59215099  1
  Te  Te113  1  0.40784270  0.58142861  0.91107980  1
  Te  Te114  1  0.45316464  0.94686848  0.27384726  1
  Te  Te115  1  0.43351397  0.92275589  0.58074129  1
  Te  Te116  1  0.39174046  0.91971828  0.91481824  1
  Te  Te117  1  0.74359787  0.27952880  0.24485608  1
  Te  Te118  1  0.73328015  0.25106173  0.56464352  1
  Te  Te119  1  0.73745911  0.26656031  0.93258983  1
  Te  Te120  1  0.76938158  0.60258589  0.24943304  1
  Te  Te121  1  0.77816127  0.57723235  0.55518287  1
  Te  Te122  1  0.74027734  0.58574990  0.89521842  1
  Te  Te123  1  0.76731722  0.90377768  0.26855179  1
  Te  Te124  1  0.73590213  0.92831662  0.58056294  1
  Te  Te125  1  0.73504268  0.92170244  0.93543929  1
  Te  Te126  1  0.26377806  0.24535568  0.10206906  1
  Te  Te127  1  0.26363988  0.24133087  0.43527173  1
  Te  Te128  1  0.23137746  0.24802298  0.73782274  1
  Te  Te129  1  0.24781510  0.61217541  0.07941704  1
  Te  Te130  1  0.24592585  0.58290616  0.40513004  1
  Te  Te131  1  0.21556522  0.56578157  0.76488423  1
  Te  Te132  1  0.26633363  0.90678664  0.10459912  1
  Te  Te133  1  0.25330744  0.90582756  0.42171940  1
  Te  Te134  1  0.19647459  0.88129681  0.70432731  1
  Te  Te135  1  0.56698088  0.24394032  0.09986173  1
  Te  Te136  1  0.57213552  0.24328595  0.43138259  1
  Te  Te137  1  0.57277759  0.22820437  0.74750186  1
  Te  Te138  1  0.59203409  0.60469466  0.08664621  1
  Te  Te139  1  0.60081914  0.57427838  0.40648831  1
  Te  Te140  1  0.56171111  0.55386909  0.73105019  1
  Te  Te141  1  0.62868661  0.91089690  0.07462724  1
  Te  Te142  1  0.56612960  0.96612617  0.47007530  1
  Te  Te143  1  0.57987744  0.90650761  0.74000630  1
  Te  Te144  1  0.91594258  0.26450416  0.09305215  1
  Te  Te145  1  0.93363341  0.25906016  0.41782398  1
  Te  Te146  1  0.89990422  0.25199387  0.72612881  1
  Te  Te147  1  0.92807975  0.58178525  0.08707911  1
  Te  Te148  1  0.87021909  0.53834171  0.43522092  1
  Te  Te149  1  0.93007349  0.58872758  0.75663089  1
  Te  Te150  1  0.92719903  0.93094360  0.09298763  1
  Te  Te151  1  0.91979951  0.89805546  0.42407979  1
  Te  Te152  1  0.90103537  0.90089954  0.75134602  1
  Te  Te153  1  0.25171277  0.05007022  0.25012403  1
  Te  Te154  1  0.26253394  0.06981531  0.58010253  1
  Te  Te155  1  0.24426325  0.11218004  0.91320822  1
  Te  Te156  1  0.26236165  0.41389081  0.27768483  1
  Te  Te157  1  0.22520736  0.43200744  0.56404629  1
  Te  Te158  1  0.25313585  0.39955916  0.93255546  1
  Te  Te159  1  0.25524411  0.74375475  0.24696471  1
  Te  Te160  1  0.25880384  0.75661407  0.55875216  1
  Te  Te161  1  0.25054662  0.75571592  0.92452534  1
  Te  Te162  1  0.58911015  0.04019187  0.23985656  1
  Te  Te163  1  0.62040905  0.05340460  0.57692355  1
  Te  Te164  1  0.59981621  0.07705687  0.91812994  1
  Te  Te165  1  0.58029647  0.42186798  0.24348905  1
  Te  Te166  1  0.59246559  0.48610855  0.54563629  1
  Te  Te167  1  0.58419520  0.42996173  0.91359562  1
  Te  Te168  1  0.60898832  0.76474115  0.29477742  1
  Te  Te169  1  0.60275738  0.73881255  0.55775198  1
  Te  Te170  1  0.56443138  0.76500362  0.91611635  1
  Te  Te171  1  0.91260583  0.08632390  0.26121311  1
  Te  Te172  1  0.92114654  0.08803427  0.57349811  1
  Te  Te173  1  0.89265804  0.08633881  0.91052446  1
  Te  Te174  1  0.95720563  0.37331510  0.28611074  1
  Te  Te175  1  0.92829431  0.41882493  0.59606379  1
  Te  Te176  1  0.93012913  0.42064389  0.90588207  1
  Te  Te177  1  0.87357515  0.71463757  0.27997421  1
  Te  Te178  1  0.89173559  0.72552718  0.57673435  1
  Te  Te179  1  0.93448529  0.76941050  0.90901776  1
