# generated using pymatgen
data_In2Te3
_symmetry_space_group_name_H-M   'P 1'
_cell_length_a   19.04644772
_cell_length_b   18.99747584
_cell_length_c   19.07218895
_cell_angle_alpha   90.15912010
_cell_angle_beta   90.05027622
_cell_angle_gamma   89.95565465
_symmetry_Int_Tables_number   1
_chemical_formula_structural   In2Te3
_chemical_formula_sum   'In72 Te108'
_cell_volume   6900.94330143
_cell_formula_units_Z   36
loop_
 _symmetry_equiv_pos_site_id
 _symmetry_equiv_pos_as_xyz
  1  'x, y, z'
loop_
 _atom_site_type_symbol
 _atom_site_label
 _atom_site_symmetry_multiplicity
 _atom_site_fract_x
 _atom_site_fract_y
 _atom_site_fract_z
 _atom_site_occupancy
  In  In0  1  0.16023862  0.64790485  0.16631573  1
  In  In1  1  0.49840016  0.82339524  0.67853454  1
  In  In2  1  0.65738052  0.34997902  0.66591200  1
  In  In3  1  0.82385737  0.51511895  0.67103520  1
  In  In4  1  0.17932131  0.49221475  0.30973980  1
  In  In5  1  0.66206147  0.87347182  0.51248251  1
  In  In6  1  0.65901388  0.01982746  0.01765159  1
  In  In7  1  -0.02866969  0.71562062  0.35245117  1
  In  In8  1  0.64587504  0.59706277  0.71904534  1
  In  In9  1  -0.02113325  0.68314151  0.65899097  1
  In  In10  1  0.19062236  -0.00265854  0.82089659  1
  In  In11  1  0.83981894  0.17638066  0.00761293  1
  In  In12  1  0.84944861  0.01583787  0.16225626  1
  In  In13  1  0.15002190  0.16865499  0.34234018  1
  In  In14  1  0.84121300  0.15645613  0.32200987  1
  In  In15  1  0.81910805  0.70241542  0.51623955  1
  In  In16  1  0.51236465  0.00496521  0.85503102  1
  In  In17  1  0.19418661  0.02907455  0.15506571  1
  In  In18  1  0.66257609  0.84057598  0.83711160  1
  In  In19  1  0.65332868  0.48557656  0.49788640  1
  In  In20  1  0.02625060  0.01997970  -0.00649353  1
  In  In21  1  0.18189039  0.31406221  0.83859111  1
  In  In22  1  0.51839377  0.85001877  0.35074478  1
  In  In23  1  0.17171018  0.65137724  0.84116702  1
  In  In24  1  -0.01981838  0.51154204  0.48887038  1
  In  In25  1  0.29269033  0.84221223  0.49367423  1
  In  In26  1  0.00478207  0.15371599  0.50903214  1
  In  In27  1  0.81175181  0.87755297  0.69621442  1
  In  In28  1  0.31657967  0.66051993  0.01585708  1
  In  In29  1  0.51160186  0.65228503  0.16177932  1
  In  In30  1  0.49583829  0.47121799  0.29969841  1
  In  In31  1  0.50368607  0.83230817  -0.01187064  1
  In  In32  1  0.34896989  0.65954544  0.69242252  1
  In  In33  1  0.66906540  0.31897675  0.00709783  1
  In  In34  1  0.69269537  0.14250191  0.81041735  1
  In  In35  1  0.32552872  0.47794354  0.84669326  1
  In  In36  1  0.47743716  0.45956020  0.00611751  1
  In  In37  1  0.17831068  0.84424335  -0.00435360  1
  In  In38  1  0.41476732  0.20656846  0.14659502  1
  In  In39  1  0.84446323  0.50758723  -0.02875016  1
  In  In40  1  0.67594579  0.66570635  0.35194448  1
  In  In41  1  0.80430321  0.64652713  0.14109659  1
  In  In42  1  0.48012940  0.66571554  0.49842362  1
  In  In43  1  0.64886460  0.47026909  0.15321084  1
  In  In44  1  0.35847778  0.01158850  0.30565487  1
  In  In45  1  0.16906554  0.18638942  0.65587718  1
  In  In46  1  -0.01886520  0.34712049  0.00807183  1
  In  In47  1  0.01842140  0.48703413  0.17859037  1
  In  In48  1  0.32853348  0.35308554  0.67350933  1
  In  In49  1  0.15101759  0.83952749  0.66797921  1
  In  In50  1  0.16550503  0.82640059  0.32747167  1
  In  In51  1  0.01119196  0.65577071  -0.02157922  1
  In  In52  1  0.35844114  0.66375578  0.29353243  1
  In  In53  1  -0.01321876  0.16971640  0.83601728  1
  In  In54  1  0.32759878  0.17558944  0.49210221  1
  In  In55  1  -0.00528331  0.82633695  0.19768074  1
  In  In56  1  0.32590123  0.51020406  0.51395678  1
  In  In57  1  0.68022860  0.17091353  0.46910511  1
  In  In58  1  0.00417884  0.31738600  0.68939306  1
  In  In59  1  0.32665310  0.01206510  0.65602436  1
  In  In60  1  0.81864409  0.67552465  0.82332876  1
  In  In61  1  0.83203665  0.32306338  0.19045235  1
  In  In62  1  0.15871366  0.64828475  0.49765697  1
  In  In63  1  0.82941956  0.83122294  0.01502203  1
  In  In64  1  0.81546719  0.33607346  0.49053643  1
  In  In65  1  0.33513781  0.32341480  0.32091956  1
  In  In66  1  0.33887129  0.03028014  -0.00322680  1
  In  In67  1  0.01513832  0.33417123  0.32572512  1
  In  In68  1  -0.01114511  -0.00363409  0.67157056  1
  In  In69  1  0.68495331  0.84916315  0.16794578  1
  In  In70  1  0.49336722  0.18145858  0.66981598  1
  In  In71  1  0.51787988  -0.00028940  0.52322545  1
  Te  Te72  1  0.10769686  0.11197767  0.07082060  1
  Te  Te73  1  0.05238351  0.07237736  0.39619896  1
  Te  Te74  1  0.09397805  0.09471734  0.75052517  1
  Te  Te75  1  0.09216500  0.39750116  0.09114264  1
  Te  Te76  1  0.08775182  0.43398480  0.41555660  1
  Te  Te77  1  0.09207244  0.40357639  0.76517948  1
  Te  Te78  1  0.08789030  0.75081265  0.07391157  1
  Te  Te79  1  0.08639639  0.76702284  0.44346470  1
  Te  Te80  1  0.08064484  0.74194596  0.75637046  1
  Te  Te81  1  0.44576791  0.06453134  0.09909441  1
  Te  Te82  1  0.41801531  0.07044301  0.43290700  1
  Te  Te83  1  0.42078578  0.07729838  0.75234647  1
  Te  Te84  1  0.45123158  0.35400467  0.10934931  1
  Te  Te85  1  0.40204706  0.42811716  0.41040435  1
  Te  Te86  1  0.43279020  0.41504909  0.76179433  1
  Te  Te87  1  0.42217156  0.74574965  0.08394697  1
  Te  Te88  1  0.40044424  0.76091217  0.40951168  1
  Te  Te89  1  0.44829068  0.72746146  0.77742081  1
  Te  Te90  1  0.74317769  0.11022160  0.10257268  1
  Te  Te91  1  0.78918286  0.07975379  0.43493597  1
  Te  Te92  1  0.75382259  0.02706830  0.73986656  1
  Te  Te93  1  0.77391898  0.41439264  0.07749173  1
  Te  Te94  1  0.73741719  0.41938998  0.40054031  1
  Te  Te95  1  0.73085073  0.44240210  0.75809261  1
  Te  Te96  1  0.71752693  0.74260671  0.06409229  1
  Te  Te97  1  0.74307202  0.78622881  0.41637336  1
  Te  Te98  1  0.72602858  0.74805539  0.72922275  1
  Te  Te99  1  0.11033990  0.26595849  0.23861060  1
  Te  Te100  1  0.08127629  0.27141838  0.56862139  1
  Te  Te101  1  0.07193460  0.25358256  0.92517810  1
  Te  Te102  1  0.06738485  0.60261644  0.27541854  1
  Te  Te103  1  0.06812169  0.57740681  0.59390835  1
  Te  Te104  1  0.10893949  0.55522454  0.93349382  1
  Te  Te105  1  0.10858362  0.92308980  0.22583714  1
  Te  Te106  1  0.08751088  0.93537621  0.58096049  1
  Te  Te107  1  0.08874281  0.91746369  0.89943395  1
  Te  Te108  1  0.45838308  0.23479600  0.31209295  1
  Te  Te109  1  0.41183755  0.26726571  0.57684208  1
  Te  Te110  1  0.37440788  0.17281613  0.95060796  1
  Te  Te111  1  0.40572438  0.55152145  0.20607935  1
  Te  Te112  1  0.43339616  0.56957773  0.60378752  1
  Te  Te113  1  0.40689577  0.57317841  0.93190467  1
  Te  Te114  1  0.42872076  0.89771364  0.24714341  1
  Te  Te115  1  0.40804023  0.90139235  0.57501658  1
  Te  Te116  1  0.40606020  0.91687381  0.91098875  1
  Te  Te117  1  0.73588944  0.24044706  0.26263832  1
  Te  Te118  1  0.74316115  0.25195497  0.58873158  1
  Te  Te119  1  0.75746316  0.24869064  0.90546730  1
  Te  Te120  1  0.72568690  0.57113313  0.24424244  1
  Te  Te121  1  0.72888221  0.59133933  0.57646028  1
  Te  Te122  1  0.74198702  0.59394269  0.91697223  1
  Te  Te123  1  0.74955585  0.95157013  0.24767256  1
  Te  Te124  1  0.75001023  0.96380868  0.59185611  1
  Te  Te125  1  0.74336007  0.92528485  0.93325807  1
  Te  Te126  1  0.30214908  0.24983637  0.05463931  1
  Te  Te127  1  0.23488618  0.26925767  0.42106961  1
  Te  Te128  1  0.27654055  0.23318655  0.74950442  1
  Te  Te129  1  0.22105436  0.55959766  0.06574397  1
  Te  Te130  1  0.25971861  0.59835631  0.39583832  1
  Te  Te131  1  0.24767676  0.56221871  0.74579708  1
  Te  Te132  1  0.27116486  0.91989459  0.08443172  1
  Te  Te133  1  0.24694511  0.93840284  0.38996747  1
  Te  Te134  1  0.27064401  0.89761079  0.73938641  1
  Te  Te135  1  0.56440947  0.25289137  0.09033929  1
  Te  Te136  1  0.55477791  0.23276749  0.43266278  1
  Te  Te137  1  0.59283467  0.24859701  0.76056708  1
  Te  Te138  1  0.57933523  0.56524860  0.06002613  1
  Te  Te139  1  0.55531556  0.58356946  0.39586147  1
  Te  Te140  1  0.55192458  0.51182246  0.79077594  1
  Te  Te141  1  0.57507096  0.91906513  0.09140043  1
  Te  Te142  1  0.60225764  0.96328044  0.40199765  1
  Te  Te143  1  0.58295420  0.93028850  0.74295950  1
  Te  Te144  1  0.92930899  0.24318863  0.10777867  1
  Te  Te145  1  0.92335208  0.25701473  0.41954156  1
  Te  Te146  1  0.89422108  0.23480123  0.74065534  1
  Te  Te147  1  0.93400058  0.58457207  0.08971959  1
  Te  Te148  1  0.88649150  0.60626729  0.41963074  1
  Te  Te149  1  0.92351156  0.58503258  0.76041710  1
  Te  Te150  1  0.93874590  0.91574240  0.07801493  1
  Te  Te151  1  0.94568681  0.86136882  0.33477532  1
  Te  Te152  1  0.92755786  0.91479736  0.77527154  1
  Te  Te153  1  0.26643134  0.11872983  0.25262333  1
  Te  Te154  1  0.23116220  0.08168686  0.56386811  1
  Te  Te155  1  0.23243488  0.10206734  0.91714592  1
  Te  Te156  1  0.24851618  0.39537268  0.22554523  1
  Te  Te157  1  0.23548348  0.42339814  0.58568270  1
  Te  Te158  1  0.27902994  0.36999886  0.93792159  1
  Te  Te159  1  0.25309263  0.74996569  0.22868538  1
  Te  Te160  1  0.25590282  0.72893600  0.58950749  1
  Te  Te161  1  0.26135763  0.75222667  0.90839019  1
  Te  Te162  1  0.52317802  0.12399374  0.21863405  1
  Te  Te163  1  0.59600741  0.10795281  0.58803868  1
  Te  Te164  1  0.58968308  0.11403009  0.92304649  1
  Te  Te165  1  0.60263684  0.37928955  0.25821811  1
  Te  Te166  1  0.55934540  0.40713989  0.57322592  1
  Te  Te167  1  0.58479695  0.40466676  0.91949841  1
  Te  Te168  1  0.59045007  0.74909367  0.25138428  1
  Te  Te169  1  0.57750687  0.75821085  0.56736095  1
  Te  Te170  1  0.57383547  0.73967296  0.89692032  1
  Te  Te171  1  0.94687823  0.08543205  0.24801139  1
  Te  Te172  1  0.91659226  0.11519150  0.62053210  1
  Te  Te173  1  0.90528354  0.07287737  0.91904350  1
  Te  Te174  1  0.91134079  0.42820898  0.26691618  1
  Te  Te175  1  0.90652978  0.42089375  0.58659314  1
  Te  Te176  1  0.92213616  0.41472625  0.89245786  1
  Te  Te177  1  0.86831978  0.74600359  0.23485053  1
  Te  Te178  1  0.90964153  0.79439524  0.58837546  1
  Te  Te179  1  0.91220390  0.75221155  0.91590933  1
