# generated using pymatgen
data_In2Te3
_symmetry_space_group_name_H-M   'P 1'
_cell_length_a   18.90245191
_cell_length_b   18.93771052
_cell_length_c   18.91492202
_cell_angle_alpha   89.90421062
_cell_angle_beta   90.15196085
_cell_angle_gamma   89.99693722
_symmetry_Int_Tables_number   1
_chemical_formula_structural   In2Te3
_chemical_formula_sum   'In72 Te108'
_cell_volume   6770.92550469
_cell_formula_units_Z   36
loop_
 _symmetry_equiv_pos_site_id
 _symmetry_equiv_pos_as_xyz
  1  'x, y, z'
loop_
 _atom_site_type_symbol
 _atom_site_label
 _atom_site_symmetry_multiplicity
 _atom_site_fract_x
 _atom_site_fract_y
 _atom_site_fract_z
 _atom_site_occupancy
  In  In0  1  0.34988963  0.35815639  -0.01078402  1
  In  In1  1  0.32167590  0.50539135  0.83825395  1
  In  In2  1  0.00688392  0.15607633  0.82388539  1
  In  In3  1  0.81209800  0.82288878  -0.01440888  1
  In  In4  1  0.50171123  0.31405475  0.16501991  1
  In  In5  1  0.48940024  0.51972490  0.63455444  1
  In  In6  1  0.65130582  -0.01491498  0.66310688  1
  In  In7  1  0.64813038  0.83430893  0.16350755  1
  In  In8  1  0.66967490  0.50779401  0.83942937  1
  In  In9  1  0.01162701  0.51058740  0.46620521  1
  In  In10  1  0.87987542  0.33597299  0.49981951  1
  In  In11  1  0.69507143  0.33878256  0.33838929  1
  In  In12  1  -0.00424228  0.17204272  0.15629308  1
  In  In13  1  0.15455166  0.14383116  0.66321777  1
  In  In14  1  0.14985995  0.68907461  0.80888767  1
  In  In15  1  0.03352521  -0.01467482  0.01031509  1
  In  In16  1  0.02285331  0.68080776  0.66296672  1
  In  In17  1  0.67262001  0.01048717  0.32856813  1
  In  In18  1  0.69100775  -0.00172741  -0.00902494  1
  In  In19  1  0.87200861  0.33030279  0.84184798  1
  In  In20  1  0.00799695  0.80653159  0.83438109  1
  In  In21  1  0.83593487  -0.01557350  0.85582742  1
  In  In22  1  0.31070882  0.33910138  0.32391293  1
  In  In23  1  0.01091021  0.13103082  0.50650640  1
  In  In24  1  0.67120447  0.13800701  0.47367257  1
  In  In25  1  0.66806347  0.47843437  0.48968008  1
  In  In26  1  0.66777729  0.49700088  0.15255228  1
  In  In27  1  0.66611628  0.17247633  0.83231905  1
  In  In28  1  0.33824333  0.15209152  0.16699897  1
  In  In29  1  0.60457148  0.66871981  0.69098149  1
  In  In30  1  0.84445193  -0.00697241  0.16421812  1
  In  In31  1  0.02399958  0.49535493  0.81759549  1
  In  In32  1  0.30476173  0.51538375  0.51818857  1
  In  In33  1  0.86238077  0.36636103  0.19528659  1
  In  In34  1  0.13066891  0.84989303  0.34107162  1
  In  In35  1  0.30747071  -0.03383304  0.68362204  1
  In  In36  1  0.18856549  0.15944157  0.32226511  1
  In  In37  1  0.30651339  0.51519187  0.17062482  1
  In  In38  1  0.51238664  0.14807499  0.36463996  1
  In  In39  1  0.68892300  0.30725979  0.67669355  1
  In  In40  1  0.81064098  0.66820379  0.83870183  1
  In  In41  1  0.29781372  -0.04547222  0.01062572  1
  In  In42  1  0.27965248  0.82280228  0.51486294  1
  In  In43  1  0.84887604  0.50563045  0.64785270  1
  In  In44  1  0.51218778  0.35432186  0.81890137  1
  In  In45  1  0.50058659  0.54779282  -0.00543219  1
  In  In46  1  0.88476780  0.84075762  0.34620283  1
  In  In47  1  0.50248211  -0.02160251  0.83590724  1
  In  In48  1  0.48719685  0.52484270  0.31286882  1
  In  In49  1  0.29894585  0.71022362  0.03942217  1
  In  In50  1  0.17174663  0.36255367  0.17073820  1
  In  In51  1  0.48886482  0.80685186  -0.02693774  1
  In  In52  1  0.84662825  0.16800145  0.66747581  1
  In  In53  1  0.33424689  0.14162474  0.83633244  1
  In  In54  1  0.01832482  0.69318178  0.30915727  1
  In  In55  1  0.17384864  0.18085463  -0.01246280  1
  In  In56  1  0.50026270  0.18640800  0.03084204  1
  In  In57  1  0.83790623  0.15802963  0.34651149  1
  In  In58  1  0.68081752  0.67901919  0.30508112  1
  In  In59  1  0.48683484  -0.00436867  0.17304158  1
  In  In60  1  0.47685470  -0.02040825  0.52031981  1
  In  In61  1  0.17142938  0.50464397  -0.00024223  1
  In  In62  1  0.30654396  0.67906098  0.33328071  1
  In  In63  1  0.46648225  0.66102028  0.47915324  1
  In  In64  1  0.30162430  0.32040467  0.65548726  1
  In  In65  1  0.46568466  0.34202110  0.51051584  1
  In  In66  1  0.82541371  0.18411564  0.00320979  1
  In  In67  1  0.66839276  0.83605879  0.50300311  1
  In  In68  1  0.84302449  0.63619333  0.14673272  1
  In  In69  1  0.84757068  0.66162017  0.51406414  1
  In  In70  1  0.32721000  0.14862286  0.48521377  1
  In  In71  1  0.85575604  0.82495081  0.68651822  1
  Te  Te72  1  0.10692959  0.09116578  0.09124221  1
  Te  Te73  1  0.10243190  0.06453952  0.40224273  1
  Te  Te74  1  0.09499203  0.05578077  0.76590106  1
  Te  Te75  1  0.08138037  0.40703105  0.06422845  1
  Te  Te76  1  0.07582168  0.41255533  0.37827916  1
  Te  Te77  1  0.13201475  0.45788826  0.72596449  1
  Te  Te78  1  0.11161138  0.79594362  0.13414058  1
  Te  Te79  1  0.09672718  0.73348297  0.43055559  1
  Te  Te80  1  0.11628772  0.80321821  0.69451007  1
  Te  Te81  1  0.40123097  0.06664566  0.05511633  1
  Te  Te82  1  0.40610780  0.04740914  0.40251871  1
  Te  Te83  1  0.41743174  0.06232255  0.74033112  1
  Te  Te84  1  0.41733627  0.42790023  0.10614330  1
  Te  Te85  1  0.40372640  0.44558629  0.41581251  1
  Te  Te86  1  0.39781718  0.41493184  0.73455879  1
  Te  Te87  1  0.41629602  0.78180744  0.10222330  1
  Te  Te88  1  0.39245438  0.77391009  0.41497259  1
  Te  Te89  1  0.50204222  0.72799250  0.78669686  1
  Te  Te90  1  0.74857320  0.09075095  0.09681410  1
  Te  Te91  1  0.78318188  0.04549881  0.43237187  1
  Te  Te92  1  0.75367671  0.07653831  0.75416085  1
  Te  Te93  1  0.77066413  0.41400097  0.09005815  1
  Te  Te94  1  0.79128200  0.42801952  0.41548101  1
  Te  Te95  1  0.76330862  0.42203328  0.74452106  1
  Te  Te96  1  0.73667407  0.73910037  0.08553576  1
  Te  Te97  1  0.76104739  0.75288438  0.41436605  1
  Te  Te98  1  0.73653010  0.74164211  0.72931265  1
  Te  Te99  1  0.09656681  0.25003286  0.24115192  1
  Te  Te100  1  0.08389347  0.23932984  0.57707512  1
  Te  Te101  1  0.06857770  0.25338295  0.91542491  1
  Te  Te102  1  0.05722412  0.57294638  0.22775641  1
  Te  Te103  1  0.09011417  0.60152477  0.55697805  1
  Te  Te104  1  0.08520121  0.59644018  0.91395155  1
  Te  Te105  1  0.07152617  0.91367214  0.21655800  1
  Te  Te106  1  0.05140870  0.98360314  0.53908048  1
  Te  Te107  1  0.10025739  0.88055847  0.92762294  1
  Te  Te108  1  0.41871127  0.24252960  0.27854443  1
  Te  Te109  1  0.40610855  0.22849782  0.58839524  1
  Te  Te110  1  0.42486269  0.25388241  0.90633029  1
  Te  Te111  1  0.40347913  0.61788141  0.23020067  1
  Te  Te112  1  0.38176462  0.62864092  0.60589584  1
  Te  Te113  1  0.36716039  0.59960183  0.94909552  1
  Te  Te114  1  0.43178028  0.87359357  0.22951727  1
  Te  Te115  1  0.40164799  0.87910084  0.60228626  1
  Te  Te116  1  0.39121301  0.89793280  0.90110876  1
  Te  Te117  1  0.76875456  0.24808793  0.24605218  1
  Te  Te118  1  0.76348285  0.24450860  0.55819449  1
  Te  Te119  1  0.74597637  0.27491652  0.90904550  1
  Te  Te120  1  0.76197691  0.56332255  0.25470329  1
  Te  Te121  1  0.73357561  0.58187349  0.58218121  1
  Te  Te122  1  0.75145459  0.57865545  0.93887414  1
  Te  Te123  1  0.75730792  0.90661865  0.25505266  1
  Te  Te124  1  0.76333774  0.91104611  0.59420864  1
  Te  Te125  1  0.71943403  0.89152824  0.88590116  1
  Te  Te126  1  0.27139122  0.26306539  0.08769287  1
  Te  Te127  1  0.23816974  0.25929422  0.42923476  1
  Te  Te128  1  0.23867632  0.23340186  0.76239197  1
  Te  Te129  1  0.20604977  0.60903737  0.10650823  1
  Te  Te130  1  0.22132583  0.60720060  0.43333356  1
  Te  Te131  1  0.22826830  0.57609925  0.74111720  1
  Te  Te132  1  0.21926682  0.90804867  0.12932296  1
  Te  Te133  1  0.23924273  0.92127589  0.41397267  1
  Te  Te134  1  0.22568501  0.87646703  0.76835385  1
  Te  Te135  1  0.61175348  0.26693399  0.08038232  1
  Te  Te136  1  0.58937856  0.26572878  0.42766704  1
  Te  Te137  1  0.56708162  0.23714971  0.73712854  1
  Te  Te138  1  0.57554168  0.60219202  0.10710306  1
  Te  Te139  1  0.58985827  0.58557953  0.41135833  1
  Te  Te140  1  0.53810084  0.56020886  0.77640024  1
  Te  Te141  1  0.57838819  0.92448453  0.06260952  1
  Te  Te142  1  0.58124247  0.92773035  0.41911032  1
  Te  Te143  1  0.56400275  0.89029619  0.73371637  1
  Te  Te144  1  0.91863080  0.27630898  0.07909131  1
  Te  Te145  1  0.94747907  0.24222511  0.40585390  1
  Te  Te146  1  0.94512188  0.26518808  0.72847036  1
  Te  Te147  1  0.95938688  0.55254110  0.11122191  1
  Te  Te148  1  0.91735083  0.60602304  0.39473348  1
  Te  Te149  1  0.91721221  0.60332208  0.74236593  1
  Te  Te150  1  0.91503774  0.90451327  0.06465994  1
  Te  Te151  1  0.98741054  0.92886847  0.40795116  1
  Te  Te152  1  0.94068996  0.92407606  0.76456815  1
  Te  Te153  1  0.26578603  0.05609324  0.24918299  1
  Te  Te154  1  0.24761566  0.05853590  0.57752317  1
  Te  Te155  1  0.23533847  0.06006764  0.91644943  1
  Te  Te156  1  0.22447184  0.45700100  0.28599733  1
  Te  Te157  1  0.21529023  0.41204577  0.57617300  1
  Te  Te158  1  0.23378040  0.39993726  0.90355339  1
  Te  Te159  1  0.22577442  0.76892290  0.24247052  1
  Te  Te160  1  0.26356976  0.72879853  0.62748803  1
  Te  Te161  1  0.21879250  0.76417041  0.92501246  1
  Te  Te162  1  0.58134617  0.09517693  0.23940637  1
  Te  Te163  1  0.57474726  0.08479933  0.57815145  1
  Te  Te164  1  0.57960581  0.08764148  0.92246369  1
  Te  Te165  1  0.57924080  0.41287071  0.26548834  1
  Te  Te166  1  0.59005155  0.40592495  0.60159147  1
  Te  Te167  1  0.57488000  0.42760125  0.93603110  1
  Te  Te168  1  0.57028171  0.77236278  0.27437359  1
  Te  Te169  1  0.56491929  0.74427294  0.56397198  1
  Te  Te170  1  0.58606794  0.71967300  0.91040787  1
  Te  Te171  1  0.93066615  0.07716240  0.25530674  1
  Te  Te172  1  0.92564554  0.05745677  0.60988522  1
  Te  Te173  1  0.91879812  0.08093747  0.94068825  1
  Te  Te174  1  0.97523492  0.44098420  0.26372687  1
  Te  Te175  1  0.96120096  0.42538230  0.59037544  1
  Te  Te176  1  0.91706348  0.45144265  0.90837308  1
  Te  Te177  1  0.90650580  0.75604691  0.22351308  1
  Te  Te178  1  0.93466276  0.77223826  0.56925951  1
  Te  Te179  1  0.91941378  0.72999900  0.92953193  1
