# generated using pymatgen
data_In2Te3
_symmetry_space_group_name_H-M   'P 1'
_cell_length_a   18.95337444
_cell_length_b   18.94305861
_cell_length_c   18.94512793
_cell_angle_alpha   90.00208787
_cell_angle_beta   90.10362061
_cell_angle_gamma   90.10229841
_symmetry_Int_Tables_number   1
_chemical_formula_structural   In2Te3
_chemical_formula_sum   'In72 Te108'
_cell_volume   6801.93981492
_cell_formula_units_Z   36
loop_
 _symmetry_equiv_pos_site_id
 _symmetry_equiv_pos_as_xyz
  1  'x, y, z'
loop_
 _atom_site_type_symbol
 _atom_site_label
 _atom_site_symmetry_multiplicity
 _atom_site_fract_x
 _atom_site_fract_y
 _atom_site_fract_z
 _atom_site_occupancy
  In  In0  1  0.84414641  0.34740884  0.83871980  1
  In  In1  1  0.01508542  0.65307814  0.64772073  1
  In  In2  1  0.66166006  0.48564851  0.51042765  1
  In  In3  1  0.65247774  0.67027254  0.35674776  1
  In  In4  1  0.82772841  0.65345503  0.49531635  1
  In  In5  1  0.67471617  0.02113988  0.32895250  1
  In  In6  1  0.49939755  0.03730606  0.46677615  1
  In  In7  1  0.84123461  0.48572076  -0.00412143  1
  In  In8  1  0.19810210  -0.04646971  0.46126668  1
  In  In9  1  0.33895856  0.17633851  0.50937173  1
  In  In10  1  0.18304227  0.49292732  0.01901366  1
  In  In11  1  0.61896834  0.33118256  0.69312281  1
  In  In12  1  0.33012737  0.64448863  0.65689713  1
  In  In13  1  0.66798023  0.65152118  0.00252541  1
  In  In14  1  0.47521001  0.00211425  0.16133491  1
  In  In15  1  0.17833271  0.16554985  0.00117469  1
  In  In16  1  0.00263417  0.79872102  0.47553352  1
  In  In17  1  0.35799365  0.47911250  0.50545568  1
  In  In18  1  0.17438773  0.17137232  0.34203377  1
  In  In19  1  0.21782598  -0.02199961  0.14545280  1
  In  In20  1  0.33038741  0.83087803  0.86267429  1
  In  In21  1  0.35358983  0.34760468  0.68534962  1
  In  In22  1  0.79814369  0.16725635  0.67143374  1
  In  In23  1  0.02096815  0.68949767  -0.00627422  1
  In  In24  1  0.49174233  0.83146195  0.02076309  1
  In  In25  1  0.15815670  0.82044444  0.64839120  1
  In  In26  1  0.50689287  0.80230725  0.63154814  1
  In  In27  1  -0.00072838  0.34427928  0.33061033  1
  In  In28  1  0.65569017  0.52395541  0.83110044  1
  In  In29  1  0.80619780  0.83726344  0.67914281  1
  In  In30  1  0.82801105  -0.01789294  0.49040541  1
  In  In31  1  0.85059020  0.82630223  -0.00087272  1
  In  In32  1  0.02101737  0.00075757  0.68039994  1
  In  In33  1  0.64089551  0.51595970  0.19479373  1
  In  In34  1  0.01589480  0.48400241  0.16412891  1
  In  In35  1  0.63652449  -0.00661584  -0.01615201  1
  In  In36  1  0.16668305  0.48723893  0.32809687  1
  In  In37  1  0.65319228  0.34340240  0.01228066  1
  In  In38  1  0.00664073  0.64829025  0.34141838  1
  In  In39  1  0.65620821  0.84449483  0.82955195  1
  In  In40  1  0.82399391  0.33508619  0.51279661  1
  In  In41  1  0.82291129  0.65568572  0.16423596  1
  In  In42  1  0.66465881  0.17955662  0.17466809  1
  In  In43  1  0.01622421  0.06608342  -0.02355143  1
  In  In44  1  0.20883824  0.17407008  0.67185987  1
  In  In45  1  -0.00007820  0.18836615  0.13817988  1
  In  In46  1  0.49834866  0.83155471  0.33144374  1
  In  In47  1  0.03033441  -0.00241316  0.30398741  1
  In  In48  1  0.32391048  0.49731874  0.83633576  1
  In  In49  1  0.64510187  0.02739712  0.65466967  1
  In  In50  1  0.34404402  0.49261732  0.17533175  1
  In  In51  1  0.01309430  0.33737739  0.68199141  1
  In  In52  1  0.01651358  0.83667242  0.82008724  1
  In  In53  1  0.44742481  0.68867297  0.20592745  1
  In  In54  1  0.83456746  0.80621637  0.32288381  1
  In  In55  1  0.46927901  0.51215884  -0.00698340  1
  In  In56  1  0.84072713  0.48884794  0.65399886  1
  In  In57  1  0.50547991  0.33974114  0.18144244  1
  In  In58  1  0.83048647  0.01440521  0.16900843  1
  In  In59  1  0.83698973  0.18070202  -0.00679605  1
  In  In60  1  -0.00345859  0.50363289  0.83995900  1
  In  In61  1  0.33960623  -0.02619208  0.64932772  1
  In  In62  1  0.03907625  0.83662598  0.14811420  1
  In  In63  1  0.16148810  0.00434049  0.84445296  1
  In  In64  1  0.33582173  0.33977776  0.33740502  1
  In  In65  1  0.49510454  0.03027989  0.81580088  1
  In  In66  1  0.80722810  0.18246343  0.32894593  1
  In  In67  1  0.00458548  0.16678638  0.52815499  1
  In  In68  1  0.48203087  0.65398861  0.82513953  1
  In  In69  1  0.33432723  0.16647669  0.15561914  1
  In  In70  1  0.34300761  0.18360592  0.84780457  1
  In  In71  1  0.20301271  0.66134532  0.48058954  1
  Te  Te72  1  0.10164171  0.07077367  0.10937404  1
  Te  Te73  1  0.08111521  0.07933570  0.42371661  1
  Te  Te74  1  0.09508869  0.10789650  0.75475103  1
  Te  Te75  1  0.08624948  0.39469415  0.07407877  1
  Te  Te76  1  0.08654346  0.41364772  0.42557522  1
  Te  Te77  1  0.09327391  0.43437997  0.75519675  1
  Te  Te78  1  0.13005748  0.73996220  0.08297351  1
  Te  Te79  1  0.11307164  0.74774275  0.38927423  1
  Te  Te80  1  0.09887892  0.72863626  0.75216700  1
  Te  Te81  1  0.41255473  0.08647230  0.05969158  1
  Te  Te82  1  0.37310521  0.08307939  0.40173492  1
  Te  Te83  1  0.38882894  0.09253971  0.72888392  1
  Te  Te84  1  0.41351097  0.39885649  0.07607653  1
  Te  Te85  1  0.44526271  0.38948873  0.42438602  1
  Te  Te86  1  0.43814695  0.45093122  0.75311104  1
  Te  Te87  1  0.38140935  0.76324394  0.09190830  1
  Te  Te88  1  0.40561291  0.74544024  0.41274695  1
  Te  Te89  1  0.40683908  0.76284980  0.74713845  1
  Te  Te90  1  0.73341936  0.08236434  0.07548103  1
  Te  Te91  1  0.74338642  0.09937394  0.44094345  1
  Te  Te92  1  0.72972744  0.07731689  0.76367164  1
  Te  Te93  1  0.73339693  0.44343013  0.09334191  1
  Te  Te94  1  0.74735091  0.41272973  0.41564239  1
  Te  Te95  1  0.74209060  0.41769985  0.74826374  1
  Te  Te96  1  0.74392561  0.75643241  0.08307857  1
  Te  Te97  1  0.74505801  0.76574788  0.43577478  1
  Te  Te98  1  0.71854357  0.74171897  0.74626830  1
  Te  Te99  1  0.08630288  0.25039661  0.24693367  1
  Te  Te100  1  0.10684424  0.25600069  0.59191293  1
  Te  Te101  1  0.05290846  0.20501815  0.93680811  1
  Te  Te102  1  0.09834142  0.58836366  0.23703586  1
  Te  Te103  1  0.10309167  0.58295422  0.55589060  1
  Te  Te104  1  0.09713432  0.58215168  0.92182538  1
  Te  Te105  1  0.13176209  0.89993387  0.25075916  1
  Te  Te106  1  0.06857091  0.91118785  0.56578549  1
  Te  Te107  1  0.06762987  0.92460099  0.93169893  1
  Te  Te108  1  0.42013200  0.24130715  0.25846503  1
  Te  Te109  1  0.43046643  0.26164634  0.58930550  1
  Te  Te110  1  0.45456311  0.27013683  0.88520981  1
  Te  Te111  1  0.43969789  0.55535433  0.27075253  1
  Te  Te112  1  0.43536794  0.59146902  0.56932009  1
  Te  Te113  1  0.38051968  0.61491293  0.92827608  1
  Te  Te114  1  0.39749023  0.90924641  0.24881694  1
  Te  Te115  1  0.44177049  0.91757925  0.55754808  1
  Te  Te116  1  0.43625921  0.92429972  0.91406717  1
  Te  Te117  1  0.71795903  0.28019660  0.26766405  1
  Te  Te118  1  0.71624169  0.26358921  0.59143588  1
  Te  Te119  1  0.73961514  0.26678159  0.91322979  1
  Te  Te120  1  0.75220091  0.58376965  0.27488932  1
  Te  Te121  1  0.73954978  0.58610907  0.59761316  1
  Te  Te122  1  0.76913777  0.58837642  0.90936444  1
  Te  Te123  1  0.75366394  0.91335183  0.25166044  1
  Te  Te124  1  0.72337386  0.91835833  0.58085778  1
  Te  Te125  1  0.75231908  0.91646678  0.92170753  1
  Te  Te126  1  0.25570019  0.26369715  0.07703936  1
  Te  Te127  1  0.24263334  0.26851688  0.43543242  1
  Te  Te128  1  0.24491974  0.27434563  0.77684013  1
  Te  Te129  1  0.26487192  0.58859168  0.09722092  1
  Te  Te130  1  0.27870739  0.56106576  0.39773980  1
  Te  Te131  1  0.24123278  0.59360463  0.75968004  1
  Te  Te132  1  0.27267802  0.88454727  0.04375310  1
  Te  Te133  1  0.30160488  0.87240504  0.39371715  1
  Te  Te134  1  0.23602636  0.91183647  0.74908217  1
  Te  Te135  1  0.56432313  0.24141780  0.07914335  1
  Te  Te136  1  0.56634852  0.16858332  0.44501641  1
  Te  Te137  1  0.55518554  0.23112474  0.78322638  1
  Te  Te138  1  0.55948140  0.59059669  0.08871092  1
  Te  Te139  1  0.56537697  0.58738810  0.44626016  1
  Te  Te140  1  0.55771022  0.56988485  0.72933126  1
  Te  Te141  1  0.58747793  0.91461126  0.10358638  1
  Te  Te142  1  0.59035478  0.92480881  0.40850742  1
  Te  Te143  1  0.56115646  0.91617711  0.73464160  1
  Te  Te144  1  0.87977669  0.26291475  0.10679073  1
  Te  Te145  1  0.91702475  0.23920287  0.42725775  1
  Te  Te146  1  0.90736858  0.24823382  0.74379432  1
  Te  Te147  1  0.92406592  0.59223877  0.07062970  1
  Te  Te148  1  0.91781284  0.56586526  0.42195838  1
  Te  Te149  1  0.91508843  0.58741310  0.74150475  1
  Te  Te150  1  0.92398027  0.92136960  0.09291140  1
  Te  Te151  1  0.92843891  0.91444634  0.39354862  1
  Te  Te152  1  0.91170743  0.92316354  0.75203527  1
  Te  Te153  1  0.25871966  0.07959481  0.25716301  1
  Te  Te154  1  0.23528017  0.05587266  0.57218188  1
  Te  Te155  1  0.26951389  0.07158349  0.92517474  1
  Te  Te156  1  0.24126960  0.39569720  0.23376204  1
  Te  Te157  1  0.26165865  0.42419723  0.60058661  1
  Te  Te158  1  0.25967595  0.40331476  0.92951550  1
  Te  Te159  1  0.32623439  0.75019978  0.28627908  1
  Te  Te160  1  0.27216551  0.76179697  0.57293104  1
  Te  Te161  1  0.21341425  0.78670244  0.93860010  1
  Te  Te162  1  0.56738931  0.08999759  0.24899154  1
  Te  Te163  1  0.55106452  0.12701905  0.58828986  1
  Te  Te164  1  0.58740008  0.10811250  0.90284737  1
  Te  Te165  1  0.55999691  0.43125138  0.28643716  1
  Te  Te166  1  0.56024941  0.39466217  0.57250224  1
  Te  Te167  1  0.57299517  0.43059334  0.91648423  1
  Te  Te168  1  0.58897282  0.74596132  0.24403065  1
  Te  Te169  1  0.57089639  0.72032612  0.52915500  1
  Te  Te170  1  0.57482348  0.74112456  0.91953859  1
  Te  Te171  1  0.92015104  0.09636249  0.26013313  1
  Te  Te172  1  0.90495191  0.07153047  0.59449551  1
  Te  Te173  1  0.89398785  0.08477770  0.89887498  1
  Te  Te174  1  0.91105196  0.42310429  0.24501828  1
  Te  Te175  1  0.94036251  0.41406410  0.57121889  1
  Te  Te176  1  0.94745837  0.39534308  0.93773452  1
  Te  Te177  1  0.93754224  0.74572036  0.22999168  1
  Te  Te178  1  0.91037615  0.75878751  0.58969506  1
  Te  Te179  1  0.91895210  0.74421556  0.89291254  1
