# generated using pymatgen
data_In2Te3
_symmetry_space_group_name_H-M   'P 1'
_cell_length_a   19.04517982
_cell_length_b   19.05710637
_cell_length_c   19.06511919
_cell_angle_alpha   90.24461648
_cell_angle_beta   90.09123981
_cell_angle_gamma   89.91019754
_symmetry_Int_Tables_number   1
_chemical_formula_structural   In2Te3
_chemical_formula_sum   'In72 Te108'
_cell_volume   6919.52882308
_cell_formula_units_Z   36
loop_
 _symmetry_equiv_pos_site_id
 _symmetry_equiv_pos_as_xyz
  1  'x, y, z'
loop_
 _atom_site_type_symbol
 _atom_site_label
 _atom_site_symmetry_multiplicity
 _atom_site_fract_x
 _atom_site_fract_y
 _atom_site_fract_z
 _atom_site_occupancy
  In  In0  1  0.50346710  0.69278510  0.15547412  1
  In  In1  1  0.34598121  0.85178938  0.84238761  1
  In  In2  1  0.48509641  0.49064598  0.32848837  1
  In  In3  1  0.79557581  0.11940391  0.68613450  1
  In  In4  1  0.16319781  -0.00208424  0.84551012  1
  In  In5  1  0.17012255  0.32877611  0.52558481  1
  In  In6  1  0.00174872  -0.00175208  0.02021977  1
  In  In7  1  0.50707380  -0.02263443  0.15849841  1
  In  In8  1  -0.03106732  0.19600691  0.49553398  1
  In  In9  1  0.49335117  0.32851463  0.84623695  1
  In  In10  1  0.36418478  0.03247501  0.35403309  1
  In  In11  1  0.65750772  0.33064449  0.02839294  1
  In  In12  1  0.14148976  0.51601225  0.35358597  1
  In  In13  1  0.79268652  0.70870807  0.15720303  1
  In  In14  1  0.66317528  -0.01336117  0.34497696  1
  In  In15  1  0.32848108  -0.01737715  0.67352194  1
  In  In16  1  0.85040355  0.32390321  0.17676798  1
  In  In17  1  0.32065542  0.64905222  0.66855461  1
  In  In18  1  0.32956111  0.83579419  0.47949360  1
  In  In19  1  0.65254046  0.66740075  0.65444288  1
  In  In20  1  -0.00021172  0.51256453  0.82699892  1
  In  In21  1  0.14387515  0.68939649  0.83944944  1
  In  In22  1  0.83078432  0.46840781  0.34087462  1
  In  In23  1  0.17285728  0.16689669  0.32997149  1
  In  In24  1  0.83702088  0.67420394  0.47879853  1
  In  In25  1  0.84216229  0.65158057  0.82573240  1
  In  In26  1  0.15994310  0.68376056  0.49376525  1
  In  In27  1  0.65207693  0.53803739  0.16335799  1
  In  In28  1  0.82153057  0.17835251  -0.00260000  1
  In  In29  1  0.65590077  0.67575090  0.33466190  1
  In  In30  1  0.68244562  0.32946377  0.67494467  1
  In  In31  1  0.68407168  0.83893272  0.85536249  1
  In  In32  1  0.15929231  0.46794848  0.66324187  1
  In  In33  1  0.69194665  0.50060914  0.48428105  1
  In  In34  1  0.17955603  0.50184502  -0.02812986  1
  In  In35  1  0.64722024  0.16562399  0.16867582  1
  In  In36  1  0.66511707  -0.01156764  0.00408405  1
  In  In37  1  0.67130656  0.34813507  0.34918174  1
  In  In38  1  0.00314756  0.16183637  0.16318272  1
  In  In39  1  0.34508235  0.49348381  0.15010862  1
  In  In40  1  0.18590114  0.16358711  -0.02616604  1
  In  In41  1  0.16591442  0.34423802  0.16831670  1
  In  In42  1  0.00627844  0.15428124  0.84321326  1
  In  In43  1  0.53684128  0.13736358  0.65966996  1
  In  In44  1  0.15538517  0.00899208  0.52812444  1
  In  In45  1  0.30566928  0.50123731  0.50394076  1
  In  In46  1  0.50460291  0.67361733  0.84120019  1
  In  In47  1  0.00706185  -0.00884303  0.32935806  1
  In  In48  1  0.81652599  0.51169521  -0.00597942  1
  In  In49  1  0.81631207  -0.02415670  0.19518389  1
  In  In50  1  0.33767904  0.34327179  -0.01473773  1
  In  In51  1  0.35007292  0.49626425  0.82904471  1
  In  In52  1  0.50884344  0.32533236  0.51701377  1
  In  In53  1  0.66261915  0.48482839  0.82216498  1
  In  In54  1  0.36152851  0.15665126  0.15649714  1
  In  In55  1  0.65429913  0.16003479  0.49095840  1
  In  In56  1  0.50626757  0.85045743  0.66036148  1
  In  In57  1  0.84687572  0.33724911  0.82427636  1
  In  In58  1  -0.00638400  0.52198113  0.14725007  1
  In  In59  1  0.51677115  -0.01347842  0.85342882  1
  In  In60  1  0.16873167  0.65598323  0.15906030  1
  In  In61  1  0.16651228  0.83596815  0.32941752  1
  In  In62  1  0.84225133  0.00063867  0.47288224  1
  In  In63  1  -0.03198006  0.81902246  0.82095908  1
  In  In64  1  0.33116587  0.85108424  0.15915212  1
  In  In65  1  0.00176775  -0.00982407  0.67894227  1
  In  In66  1  0.48706106  0.69140614  0.50746909  1
  In  In67  1  0.83267612  0.84083966  0.64567368  1
  In  In68  1  0.18579487  0.83301047  0.00228355  1
  In  In69  1  -0.00517296  0.46462273  0.51770009  1
  In  In70  1  0.32196368  0.31675390  0.32078166  1
  In  In71  1  -0.00338967  0.82136966  0.18286606  1
  Te  Te72  1  0.10491841  0.08742481  0.08256483  1
  Te  Te73  1  0.07361476  0.09933834  0.42196498  1
  Te  Te74  1  0.09857822  0.08804482  0.74391647  1
  Te  Te75  1  0.08844734  0.42937315  0.07189329  1
  Te  Te76  1  0.08468174  0.39466525  0.41771731  1
  Te  Te77  1  0.04205880  0.40128570  0.73235136  1
  Te  Te78  1  0.08428562  0.75112453  0.07859431  1
  Te  Te79  1  0.06997753  0.76211406  0.40903036  1
  Te  Te80  1  0.06126902  0.74658091  0.73324688  1
  Te  Te81  1  0.43950145  0.07031192  0.06887034  1
  Te  Te82  1  0.43753108  0.12446463  0.43981218  1
  Te  Te83  1  0.43889477  0.05955294  0.74662888  1
  Te  Te84  1  0.42969109  0.39356945  0.08830311  1
  Te  Te85  1  0.40585902  0.40587529  0.42929790  1
  Te  Te86  1  0.43261185  0.41234236  0.74063168  1
  Te  Te87  1  0.42158449  0.77936613  0.06668198  1
  Te  Te88  1  0.41518810  0.75105698  0.39796215  1
  Te  Te89  1  0.41841479  0.75359996  0.73612608  1
  Te  Te90  1  0.75871995  0.08584758  0.10015029  1
  Te  Te91  1  0.75540675  0.09833676  0.39705622  1
  Te  Te92  1  0.70192312  0.07056980  0.78416610  1
  Te  Te93  1  0.75673649  0.42430311  0.10336324  1
  Te  Te94  1  0.78385215  0.37577050  0.45640914  1
  Te  Te95  1  0.77554238  0.43561918  0.73379505  1
  Te  Te96  1  0.69347505  0.76148041  0.06456784  1
  Te  Te97  1  0.73890555  0.76597105  0.41802294  1
  Te  Te98  1  0.74436970  0.74745540  0.74348558  1
  Te  Te99  1  0.07846046  0.25716245  0.25424692  1
  Te  Te100  1  0.06620095  0.24680475  0.59440182  1
  Te  Te101  1  0.08961561  0.25219842  0.91157298  1
  Te  Te102  1  0.06638988  0.60238080  0.25544691  1
  Te  Te103  1  0.09642990  0.56870254  0.56867994  1
  Te  Te104  1  0.06946627  0.59794069  0.93250421  1
  Te  Te105  1  0.09762256  0.92528025  0.22848086  1
  Te  Te106  1  0.07607283  0.90366473  0.58757398  1
  Te  Te107  1  0.06874368  0.90589496  0.91903560  1
  Te  Te108  1  0.42518201  0.26417594  0.23415244  1
  Te  Te109  1  0.43453838  0.20825177  0.57253309  1
  Te  Te110  1  0.39885336  0.23629549  0.90700816  1
  Te  Te111  1  0.41856217  0.59004311  0.23994789  1
  Te  Te112  1  0.41803814  0.57855641  0.57743169  1
  Te  Te113  1  0.42506604  0.57980162  0.92130850  1
  Te  Te114  1  0.41595355  0.92073114  0.26562657  1
  Te  Te115  1  0.41867009  0.92580149  0.56385652  1
  Te  Te116  1  0.44436588  0.89456684  0.94384201  1
  Te  Te117  1  0.74192537  0.25380346  0.25090200  1
  Te  Te118  1  0.75062865  0.22519838  0.58902452  1
  Te  Te119  1  0.74257188  0.27375351  0.91301919  1
  Te  Te120  1  0.75634061  0.57884271  0.26660033  1
  Te  Te121  1  0.76065367  0.58980336  0.58304348  1
  Te  Te122  1  0.72626977  0.59270976  0.90733485  1
  Te  Te123  1  0.75799689  0.88395433  0.29356533  1
  Te  Te124  1  0.75062019  0.93745386  0.57008097  1
  Te  Te125  1  0.77494436  0.91364490  0.94192385  1
  Te  Te126  1  0.25413480  0.25433248  0.08868622  1
  Te  Te127  1  0.25561914  0.24126563  0.43057435  1
  Te  Te128  1  0.21618159  0.29395118  0.66654609  1
  Te  Te129  1  0.26388510  0.58700347  0.06410034  1
  Te  Te130  1  0.25506733  0.60209043  0.40598031  1
  Te  Te131  1  0.21851073  0.58123126  0.75414011  1
  Te  Te132  1  0.26253061  0.93920109  0.06399329  1
  Te  Te133  1  0.24251725  0.94181364  0.41204985  1
  Te  Te134  1  0.23284529  0.89808594  0.75418503  1
  Te  Te135  1  0.56435514  0.22512691  0.06423052  1
  Te  Te136  1  0.56961704  0.24829394  0.39957966  1
  Te  Te137  1  0.58639782  0.24652251  0.75274348  1
  Te  Te138  1  0.55713836  0.58762143  0.06663866  1
  Te  Te139  1  0.57481350  0.57475650  0.42383348  1
  Te  Te140  1  0.57174563  0.57744967  0.74324819  1
  Te  Te141  1  0.62366123  0.89277666  0.11172718  1
  Te  Te142  1  0.55147936  0.96858756  0.43950825  1
  Te  Te143  1  0.60639949  0.91827951  0.74948292  1
  Te  Te144  1  0.93120381  0.25574896  0.06904711  1
  Te  Te145  1  0.89783608  0.28324126  0.40646586  1
  Te  Te146  1  0.89721239  0.21328000  0.75590783  1
  Te  Te147  1  0.88842542  0.60935956  0.08371083  1
  Te  Te148  1  0.92011174  0.55758734  0.42379506  1
  Te  Te149  1  0.94453296  0.60761033  0.72966133  1
  Te  Te150  1  0.90710010  0.90735926  0.09534209  1
  Te  Te151  1  0.94332063  0.90393283  0.42592669  1
  Te  Te152  1  0.88843275  0.92984379  0.75746249  1
  Te  Te153  1  0.26630791  0.08183433  0.24922066  1
  Te  Te154  1  0.25835018  0.08455747  0.59617409  1
  Te  Te155  1  0.27422910  0.06469609  0.91238323  1
  Te  Te156  1  0.24264636  0.43900199  0.26035722  1
  Te  Te157  1  0.30120667  0.41265616  0.62899810  1
  Te  Te158  1  0.24332687  0.40218502  0.87917874  1
  Te  Te159  1  0.25364514  0.74888692  0.24201575  1
  Te  Te160  1  0.25461506  0.75694947  0.58581003  1
  Te  Te161  1  0.26581548  0.74248374  0.91121653  1
  Te  Te162  1  0.57164194  0.07329267  0.25731014  1
  Te  Te163  1  0.60582329  0.03658395  0.56453456  1
  Te  Te164  1  0.61127379  0.08999170  0.90869759  1
  Te  Te165  1  0.59084055  0.42325625  0.24528026  1
  Te  Te166  1  0.60491189  0.42040572  0.58238612  1
  Te  Te167  1  0.58162146  0.41871634  0.93021396  1
  Te  Te168  1  0.57842378  0.77009107  0.25560405  1
  Te  Te169  1  0.59773699  0.77574568  0.56448727  1
  Te  Te170  1  0.59329053  0.75136088  0.93348199  1
  Te  Te171  1  0.91349136  0.08098708  0.25217352  1
  Te  Te172  1  0.91649428  0.07795779  0.58634500  1
  Te  Te173  1  0.90978202  0.07583381  0.92858011  1
  Te  Te174  1  0.94043632  0.42123171  0.24758500  1
  Te  Te175  1  0.92992336  0.39881335  0.63024014  1
  Te  Te176  1  0.91843375  0.42595051  0.92376100  1
  Te  Te177  1  0.89682454  0.74183079  0.25355180  1
  Te  Te178  1  0.91868815  0.74464216  0.57832297  1
  Te  Te179  1  0.89211589  0.74873003  0.92247511  1
