# generated using pymatgen
data_In2Te3
_symmetry_space_group_name_H-M   'P 1'
_cell_length_a   19.00293696
_cell_length_b   18.98912936
_cell_length_c   19.00131279
_cell_angle_alpha   90.18619376
_cell_angle_beta   89.80943811
_cell_angle_gamma   89.86735187
_symmetry_Int_Tables_number   1
_chemical_formula_structural   In2Te3
_chemical_formula_sum   'In72 Te108'
_cell_volume   6856.51637731
_cell_formula_units_Z   36
loop_
 _symmetry_equiv_pos_site_id
 _symmetry_equiv_pos_as_xyz
  1  'x, y, z'
loop_
 _atom_site_type_symbol
 _atom_site_label
 _atom_site_symmetry_multiplicity
 _atom_site_fract_x
 _atom_site_fract_y
 _atom_site_fract_z
 _atom_site_occupancy
  In  In0  1  0.16068430  0.83772587  0.32677610  1
  In  In1  1  0.15109665  0.14970144  0.65443734  1
  In  In2  1  0.26420569  0.32008382  0.31296421  1
  In  In3  1  0.65219532  0.61888771  0.02065584  1
  In  In4  1  0.84081389  0.82035581  -0.00073009  1
  In  In5  1  0.82572900  0.68712400  0.84349392  1
  In  In6  1  0.15578473  0.34981714  0.82404766  1
  In  In7  1  0.63908518  0.33985985  0.33250941  1
  In  In8  1  0.82475756  0.31619422  0.49778666  1
  In  In9  1  0.33615046  0.32325831  0.66635196  1
  In  In10  1  0.34644296  0.00336684  0.30910642  1
  In  In11  1  0.02275980  0.83285782  0.82089058  1
  In  In12  1  0.21130584  0.68687677  0.53279515  1
  In  In13  1  0.83218820  0.50125835  0.31864065  1
  In  In14  1  0.33452413  0.81791237  0.15542906  1
  In  In15  1  0.32874824  0.85183553  0.82661148  1
  In  In16  1  0.66258652  -0.00477303  0.67295768  1
  In  In17  1  0.82919005  0.18749372  0.00786857  1
  In  In18  1  0.14247267  0.50727755  0.31156689  1
  In  In19  1  0.01095946  0.14563344  0.49328305  1
  In  In20  1  -0.00487169  0.49537828  0.85970086  1
  In  In21  1  0.34212734  0.65660081  -0.00084229  1
  In  In22  1  0.51141018  0.49778830  0.33063649  1
  In  In23  1  0.34546861  0.49261383  0.48859356  1
  In  In24  1  0.50134478  -0.03255896  0.16621110  1
  In  In25  1  0.84708723  0.02716131  0.16199054  1
  In  In26  1  0.67735305  0.15545706  0.15735092  1
  In  In27  1  -0.01529361  0.49208471  0.51468785  1
  In  In28  1  0.67153139  0.84374087  0.83354194  1
  In  In29  1  0.85277682  0.66021963  0.17472889  1
  In  In30  1  0.64292080  0.66030167  0.35936942  1
  In  In31  1  0.84603742  0.16155514  0.34608021  1
  In  In32  1  0.17164532  0.32721289  0.50897117  1
  In  In33  1  -0.00320521  0.71590789  0.34895702  1
  In  In34  1  0.49989291  0.17948070  0.32922668  1
  In  In35  1  0.00600837  0.00984136  -0.00330422  1
  In  In36  1  0.01699265  0.16288243  0.81880062  1
  In  In37  1  0.64542029  0.47984101  0.84844545  1
  In  In38  1  0.01929672  0.67868106  0.69572423  1
  In  In39  1  0.50971581  0.18163217  -0.03572803  1
  In  In40  1  0.34458712  0.04550779  0.69118976  1
  In  In41  1  0.31468614  0.14913077  0.13996837  1
  In  In42  1  0.65573121  0.83254884  0.51417250  1
  In  In43  1  0.49221351  0.83080452  -0.00528734  1
  In  In44  1  0.49780967  -0.02166295  0.51467053  1
  In  In45  1  0.17228342  -0.02215704  0.51306851  1
  In  In46  1  0.85298910  0.15059543  0.63976058  1
  In  In47  1  0.67138973  0.36106531  0.01869085  1
  In  In48  1  0.85701932  0.71209719  0.48749209  1
  In  In49  1  0.15945061  0.52281564  0.68988893  1
  In  In50  1  0.32715528  0.51693556  0.81450688  1
  In  In51  1  0.84197291  0.85343242  0.67706762  1
  In  In52  1  0.68395438  0.00280889  0.35167309  1
  In  In53  1  0.66789348  0.82188839  0.18696817  1
  In  In54  1  0.16907926  -0.00991200  0.15313129  1
  In  In55  1  0.32544188  0.68804167  0.36592617  1
  In  In56  1  0.65223653  0.16340367  0.80278469  1
  In  In57  1  0.49038223  0.34422698  0.17877577  1
  In  In58  1  0.34262044  0.04052476  -0.03332900  1
  In  In59  1  0.16132485  0.80839446  0.04081106  1
  In  In60  1  0.01679390  0.18532301  0.21488999  1
  In  In61  1  0.34806261  0.50522073  0.17252753  1
  In  In62  1  0.17303629  0.17144193  -0.01899167  1
  In  In63  1  0.50167849  0.33684418  0.49807034  1
  In  In64  1  0.48894549  0.48102305  0.65674647  1
  In  In65  1  0.00177881  0.50504602  0.14852090  1
  In  In66  1  0.79529051  0.50884277  0.68137722  1
  In  In67  1  0.15639130  0.50780505  0.00133150  1
  In  In68  1  0.82950419  0.35310032  0.17950985  1
  In  In69  1  0.48857758  0.67970139  0.82861298  1
  In  In70  1  0.82386862  0.33584626  0.81942849  1
  In  In71  1  0.64914907  0.65765919  0.63393048  1
  Te  Te72  1  0.07984941  0.10496560  0.09065870  1
  Te  Te73  1  0.10279104  0.06264547  0.41503570  1
  Te  Te74  1  0.06600002  0.05093859  0.73055764  1
  Te  Te75  1  0.07240390  0.40675639  0.06631563  1
  Te  Te76  1  0.08554814  0.42131289  0.42565323  1
  Te  Te77  1  0.05609583  0.42432854  0.73852873  1
  Te  Te78  1  0.08329917  0.71677768  0.11984425  1
  Te  Te79  1  0.10932157  0.75848282  0.44663707  1
  Te  Te80  1  0.12452189  0.77327667  0.73168593  1
  Te  Te81  1  0.44034113  0.07888852  0.08413210  1
  Te  Te82  1  0.42924514  0.07589764  0.41187491  1
  Te  Te83  1  0.42770990  0.13709771  0.78114781  1
  Te  Te84  1  0.41292165  0.41352520  0.07680938  1
  Te  Te85  1  0.41122169  0.39942100  0.38885278  1
  Te  Te86  1  0.42016767  0.40144750  0.76424830  1
  Te  Te87  1  0.43950969  0.72733251  0.09124802  1
  Te  Te88  1  0.40930367  0.74042659  0.47522992  1
  Te  Te89  1  0.39552105  0.75023788  0.74219121  1
  Te  Te90  1  0.74573735  0.06894168  0.05606264  1
  Te  Te91  1  0.77020958  0.07979073  0.43987855  1
  Te  Te92  1  0.76481955  0.08075836  0.74561995  1
  Te  Te93  1  0.78617442  0.43801730  0.06845131  1
  Te  Te94  1  0.74667276  0.41497446  0.40801978  1
  Te  Te95  1  0.71048570  0.39606494  0.73880746  1
  Te  Te96  1  0.74188166  0.73567299  0.07827770  1
  Te  Te97  1  0.73931869  0.76611321  0.40600441  1
  Te  Te98  1  0.74172920  0.74253717  0.72948593  1
  Te  Te99  1  0.13301801  0.25591930  0.26520824  1
  Te  Te100  1  0.06509385  0.25386001  0.58669809  1
  Te  Te101  1  0.07159116  0.26458411  0.91716211  1
  Te  Te102  1  0.06773973  0.62095830  0.24130150  1
  Te  Te103  1  0.08009974  0.59233944  0.57709324  1
  Te  Te104  1  0.09732620  0.59169909  0.89710309  1
  Te  Te105  1  0.07833724  0.89831372  0.22113265  1
  Te  Te106  1  0.06285647  0.95120482  0.61043020  1
  Te  Te107  1  0.09434047  0.90042093  0.94078587  1
  Te  Te108  1  0.39502735  0.24126745  0.23945992  1
  Te  Te109  1  0.42658238  0.24216418  0.58206601  1
  Te  Te110  1  0.37687915  0.21026207  0.90923777  1
  Te  Te111  1  0.41179082  0.59602183  0.27520776  1
  Te  Te112  1  0.40102159  0.57872919  0.59215554  1
  Te  Te113  1  0.43047778  0.56924308  0.91398368  1
  Te  Te114  1  0.42333781  0.88092962  0.26169436  1
  Te  Te115  1  0.39860092  0.92767219  0.61347942  1
  Te  Te116  1  0.43298073  0.93343087  0.90249279  1
  Te  Te117  1  0.74545022  0.24460112  0.25840994  1
  Te  Te118  1  0.74502541  0.23489315  0.58789866  1
  Te  Te119  1  0.72958115  0.25445987  0.91656362  1
  Te  Te120  1  0.73966146  0.59781208  0.25223739  1
  Te  Te121  1  0.77018913  0.60203830  0.56466963  1
  Te  Te122  1  0.74670535  0.57367615  0.91091891  1
  Te  Te123  1  0.76043014  0.93070271  0.24292738  1
  Te  Te124  1  0.75900807  0.92408446  0.57335057  1
  Te  Te125  1  0.77251936  0.91631321  0.90959564  1
  Te  Te126  1  0.27047873  0.25682438  0.05124226  1
  Te  Te127  1  0.27000956  0.24581494  0.43799226  1
  Te  Te128  1  0.23134430  0.24652246  0.74350510  1
  Te  Te129  1  0.24695406  0.58947166  0.09302251  1
  Te  Te130  1  0.23298670  0.57334456  0.41456639  1
  Te  Te131  1  0.25356881  0.62226628  0.74340113  1
  Te  Te132  1  0.28056542  0.93060223  0.07024961  1
  Te  Te133  1  0.26523032  0.91612443  0.40237464  1
  Te  Te134  1  0.24642970  0.95585444  0.75974207  1
  Te  Te135  1  0.57753293  0.24657531  0.09156683  1
  Te  Te136  1  0.59899034  0.23272032  0.42863788  1
  Te  Te137  1  0.54236469  0.21090871  0.71423857  1
  Te  Te138  1  0.56830214  0.53885657  0.10608574  1
  Te  Te139  1  0.57328532  0.56322124  0.44703469  1
  Te  Te140  1  0.58085002  0.58008998  0.74674344  1
  Te  Te141  1  0.59975863  0.90394865  0.07241837  1
  Te  Te142  1  0.58025626  0.90827327  0.40558844  1
  Te  Te143  1  0.57784502  0.89264033  0.73498197  1
  Te  Te144  1  0.91632198  0.24647306  0.11495542  1
  Te  Te145  1  0.93726387  0.25879098  0.41456650  1
  Te  Te146  1  0.91928982  0.24753606  0.74086773  1
  Te  Te147  1  0.92328129  0.59520639  0.06430566  1
  Te  Te148  1  0.91947596  0.58615140  0.40957668  1
  Te  Te149  1  0.90529694  0.58800118  0.75081489  1
  Te  Te150  1  0.92166509  0.91956370  0.08364357  1
  Te  Te151  1  0.91387621  0.83005562  0.40572871  1
  Te  Te152  1  0.90494736  0.91833122  0.79276608  1
  Te  Te153  1  0.23364181  0.08500299  0.25205106  1
  Te  Te154  1  0.26021903  0.08983699  0.57048350  1
  Te  Te155  1  0.22283530  0.06909022  0.88544844  1
  Te  Te156  1  0.22325794  0.42641408  0.21228929  1
  Te  Te157  1  0.24651906  0.43242987  0.59862149  1
  Te  Te158  1  0.25241369  0.42627809  0.90938481  1
  Te  Te159  1  0.24575802  0.73878073  0.24734517  1
  Te  Te160  1  0.29887105  0.80370197  0.56029848  1
  Te  Te161  1  0.25993739  0.76333749  0.93441163  1
  Te  Te162  1  0.58485540  0.07435686  0.24727378  1
  Te  Te163  1  0.57321256  0.07974131  0.59103318  1
  Te  Te164  1  0.58610674  0.07539387  0.90022514  1
  Te  Te165  1  0.60956797  0.43980593  0.21903583  1
  Te  Te166  1  0.59261899  0.43375809  0.56150527  1
  Te  Te167  1  0.56318802  0.38512119  0.92356898  1
  Te  Te168  1  0.57104176  0.73976000  0.25857536  1
  Te  Te169  1  0.54954775  0.74995531  0.57625347  1
  Te  Te170  1  0.59400628  0.73583977  0.92211834  1
  Te  Te171  1  0.94106042  0.06799293  0.27365039  1
  Te  Te172  1  0.93598901  0.04307425  0.57312276  1
  Te  Te173  1  0.91731776  0.10221934  0.91714798  1
  Te  Te174  1  0.94131483  0.41568041  0.25903748  1
  Te  Te175  1  0.88581707  0.41597299  0.59718027  1
  Te  Te176  1  0.89958320  0.40478737  0.92495237  1
  Te  Te177  1  0.89751143  0.77652348  0.25357840  1
  Te  Te178  1  0.94228104  0.76912306  0.60154653  1
  Te  Te179  1  0.94291078  0.74070685  0.91958426  1
