# generated using pymatgen
data_In2Te3
_symmetry_space_group_name_H-M   'P 1'
_cell_length_a   18.89331347
_cell_length_b   18.87450465
_cell_length_c   18.88429415
_cell_angle_alpha   89.99957280
_cell_angle_beta   89.95010626
_cell_angle_gamma   89.92409370
_symmetry_Int_Tables_number   1
_chemical_formula_structural   In2Te3
_chemical_formula_sum   'In72 Te108'
_cell_volume   6734.16733319
_cell_formula_units_Z   36
loop_
 _symmetry_equiv_pos_site_id
 _symmetry_equiv_pos_as_xyz
  1  'x, y, z'
loop_
 _atom_site_type_symbol
 _atom_site_label
 _atom_site_symmetry_multiplicity
 _atom_site_fract_x
 _atom_site_fract_y
 _atom_site_fract_z
 _atom_site_occupancy
  In  In0  1  0.80901015  0.13497590  0.66830980  1
  In  In1  1  0.33072950  0.16152793  0.85239854  1
  In  In2  1  0.66309134  0.15078528  0.84277467  1
  In  In3  1  0.16424974  0.86827619  0.32846355  1
  In  In4  1  0.66447106  -0.00610504  0.01873134  1
  In  In5  1  0.17908803  0.30956412  0.44654248  1
  In  In6  1  0.49559878  0.65522574  0.17437612  1
  In  In7  1  0.64547731  0.50788414  0.49224386  1
  In  In8  1  0.16504611  0.28426922  0.18768119  1
  In  In9  1  -0.01747966  -0.00670469  0.64667677  1
  In  In10  1  0.49334690  0.50799509  0.00157269  1
  In  In11  1  0.20656821  0.64924544  0.48118402  1
  In  In12  1  0.83074415  0.00190927  0.50761042  1
  In  In13  1  0.49675447  0.68565748  0.83366129  1
  In  In14  1  0.16326262  0.34431542  0.86845813  1
  In  In15  1  0.83616857  0.32309437  0.50566192  1
  In  In16  1  0.48849320  0.65627458  0.48877845  1
  In  In17  1  0.66930219  0.82862513  0.49483946  1
  In  In18  1  0.85355845  0.48503381  0.32304118  1
  In  In19  1  0.00064278  0.67121679  0.31456248  1
  In  In20  1  0.17077612  0.67962906  0.82312003  1
  In  In21  1  -0.02451711  0.51401535  0.83999329  1
  In  In22  1  0.82719301  0.82476152  0.69987434  1
  In  In23  1  0.67222641  0.17466474  0.17670782  1
  In  In24  1  0.18067977  0.67759661  0.16207563  1
  In  In25  1  0.33479748  0.82031648  0.84180344  1
  In  In26  1  -0.00107301  0.32736055  0.66251638  1
  In  In27  1  0.81841513  0.83533774  -0.02131797  1
  In  In28  1  0.82795709  0.18920277  0.32918288  1
  In  In29  1  0.51580343  0.32785604  0.50444154  1
  In  In30  1  0.66709024  0.65893070  0.34211318  1
  In  In31  1  0.50827467  0.32903063  0.81905129  1
  In  In32  1  0.13344435  0.17583706  0.02850589  1
  In  In33  1  0.52048791  -0.01440350  0.83168340  1
  In  In34  1  0.35891362  -0.01213929  0.67458115  1
  In  In35  1  0.18287014  0.51278558  0.02798033  1
  In  In36  1  0.31965584  0.31725177  0.31926502  1
  In  In37  1  0.00046237  0.69314523  -0.00618308  1
  In  In38  1  0.33627216  0.00203998  -0.00112626  1
  In  In39  1  -0.00149452  0.02200211  0.32069633  1
  In  In40  1  0.49717666  0.16578697  0.35220125  1
  In  In41  1  0.19086535  0.20250982  0.64554439  1
  In  In42  1  0.33558993  0.35497044  0.00252981  1
  In  In43  1  0.49878531  0.84038057  0.33227237  1
  In  In44  1  0.81137672  0.49134042  0.01727678  1
  In  In45  1  0.15729475  0.83049972  0.64033770  1
  In  In46  1  0.65774329  0.67663354  0.67299888  1
  In  In47  1  0.35821886  0.82414946  0.16276251  1
  In  In48  1  -0.01849406  0.13313216  0.82493562  1
  In  In49  1  0.00703599  0.84196615  0.48541324  1
  In  In50  1  -0.02795313  0.29064757  0.04922903  1
  In  In51  1  0.52598064  0.34317548  0.19897336  1
  In  In52  1  0.19005530  0.50599828  0.68044671  1
  In  In53  1  0.34140557  0.49406195  0.48537954  1
  In  In54  1  0.67916033  0.32441132  0.01711538  1
  In  In55  1  0.35175713  0.18125717  0.50900315  1
  In  In56  1  0.35319786  0.35331754  0.65286512  1
  In  In57  1  0.00488745  0.65160566  0.67426329  1
  In  In58  1  0.16747938  0.85615598  0.01357181  1
  In  In59  1  0.01626788  0.46743306  0.48948666  1
  In  In60  1  0.31770332  0.84786367  0.49051489  1
  In  In61  1  0.82539606  0.67833836  0.49372213  1
  In  In62  1  0.00544965  0.47699902  0.16572948  1
  In  In63  1  0.67270828  0.51140158  0.82696100  1
  In  In64  1  0.49237906  -0.00559924  0.15098884  1
  In  In65  1  0.83537835  0.68140007  0.15818222  1
  In  In66  1  0.81925652  0.34565896  0.83997616  1
  In  In67  1  0.64169832  0.14499643  0.51639095  1
  In  In68  1  0.69640652  -0.02454687  0.30054968  1
  In  In69  1  -0.01936452  0.00459204  0.01589747  1
  In  In70  1  0.63855970  0.65800124  -0.00990015  1
  In  In71  1  0.13580401  -0.00321028  0.82485160  1
  Te  Te72  1  0.08771222  0.05869931  0.10735838  1
  Te  Te73  1  0.09506440  0.11266746  0.38728170  1
  Te  Te74  1  0.09386318  0.10486314  0.72436352  1
  Te  Te75  1  0.09434815  0.39649880  0.07094489  1
  Te  Te76  1  0.10607889  0.42150177  0.38310807  1
  Te  Te77  1  0.08058764  0.42192946  0.75403558  1
  Te  Te78  1  0.07535031  0.76924078  0.10063097  1
  Te  Te79  1  0.09825253  0.73990389  0.41802783  1
  Te  Te80  1  0.07129012  0.76680665  0.74848553  1
  Te  Te81  1  0.40535979  0.09546767  0.08755006  1
  Te  Te82  1  0.43117322  0.07376319  0.44496172  1
  Te  Te83  1  0.42846580  0.09171911  0.76185650  1
  Te  Te84  1  0.42622017  0.41885667  0.10506521  1
  Te  Te85  1  0.42092642  0.39309334  0.40543463  1
  Te  Te86  1  0.41276530  0.42683227  0.76407527  1
  Te  Te87  1  0.43532742  0.74081157  0.06649632  1
  Te  Te88  1  0.40307838  0.74869336  0.40543477  1
  Te  Te89  1  0.42682587  0.77477201  0.73786644  1
  Te  Te90  1  0.75822401  0.09405218  0.08383608  1
  Te  Te91  1  0.74501311  0.08458562  0.41300732  1
  Te  Te92  1  0.74718788  0.04659850  0.77095917  1
  Te  Te93  1  0.77004317  0.38939234  0.11670202  1
  Te  Te94  1  0.75568654  0.42573224  0.42426174  1
  Te  Te95  1  0.74394903  0.41794459  0.73810851  1
  Te  Te96  1  0.73094703  0.74918688  0.07279583  1
  Te  Te97  1  0.76295874  0.76916959  0.39048289  1
  Te  Te98  1  0.71918016  0.76009867  0.78016950  1
  Te  Te99  1  0.06119643  0.20908726  0.26625029  1
  Te  Te100  1  0.08096969  0.25633624  0.55648941  1
  Te  Te101  1  0.05603191  0.24249197  0.90782544  1
  Te  Te102  1  0.09356679  0.57783681  0.23971839  1
  Te  Te103  1  0.09607007  0.57929856  0.57538323  1
  Te  Te104  1  0.08910740  0.58160648  0.91768038  1
  Te  Te105  1  0.06261588  0.91791195  0.23589580  1
  Te  Te106  1  0.09519878  0.94268556  0.55792847  1
  Te  Te107  1  0.05917831  0.90920744  0.92123245  1
  Te  Te108  1  0.42091007  0.23468102  0.24184393  1
  Te  Te109  1  0.44553708  0.24176386  0.61122329  1
  Te  Te110  1  0.42383324  0.25745374  0.92416609  1
  Te  Te111  1  0.37974284  0.58696747  0.23698969  1
  Te  Te112  1  0.41887476  0.56954541  0.58459756  1
  Te  Te113  1  0.41666730  0.62221041  0.94434348  1
  Te  Te114  1  0.40407018  0.93536560  0.26121996  1
  Te  Te115  1  0.42568846  0.90879135  0.57140601  1
  Te  Te116  1  0.42681184  0.90641665  0.92590296  1
  Te  Te117  1  0.74347268  0.28374901  0.24864429  1
  Te  Te118  1  0.73626862  0.24272377  0.58870824  1
  Te  Te119  1  0.76256296  0.23556770  0.92656676  1
  Te  Te120  1  0.76226025  0.58144143  0.24893191  1
  Te  Te121  1  0.74218922  0.58846876  0.58085841  1
  Te  Te122  1  0.76027134  0.59370516  0.91995023  1
  Te  Te123  1  0.77702094  0.90986999  0.19800584  1
  Te  Te124  1  0.75064247  0.90848520  0.59502302  1
  Te  Te125  1  0.74624002  0.94313075  0.90280624  1
  Te  Te126  1  0.26281031  0.24186956  0.07423413  1
  Te  Te127  1  0.26122091  0.19356262  0.38790023  1
  Te  Te128  1  0.25485085  0.26890717  0.76864115  1
  Te  Te129  1  0.28747565  0.58093936  0.11228626  1
  Te  Te130  1  0.27459781  0.57040253  0.37548027  1
  Te  Te131  1  0.27270773  0.60512843  0.74834986  1
  Te  Te132  1  0.25816325  0.92962933  0.10899686  1
  Te  Te133  1  0.24864579  0.95239751  0.41237034  1
  Te  Te134  1  0.23924758  0.91187305  0.75178084  1
  Te  Te135  1  0.57194131  0.24495327  0.08656300  1
  Te  Te136  1  0.60673365  0.25293716  0.40973965  1
  Te  Te137  1  0.61146481  0.25239216  0.74868032  1
  Te  Te138  1  0.59576588  0.56296718  0.10154581  1
  Te  Te139  1  0.54809281  0.56462286  0.37661338  1
  Te  Te140  1  0.56527067  0.57996751  0.74579247  1
  Te  Te141  1  0.58212015  0.89547881  0.09144061  1
  Te  Te142  1  0.59569774  0.92888785  0.40846738  1
  Te  Te143  1  0.59774091  0.93665377  0.71698593  1
  Te  Te144  1  0.89262750  0.18257325  0.11115237  1
  Te  Te145  1  0.92868006  0.27057903  0.40303706  1
  Te  Te146  1  0.90035724  0.24387236  0.74364448  1
  Te  Te147  1  0.92963495  0.58006288  0.08069643  1
  Te  Te148  1  0.92605607  0.58488295  0.42430629  1
  Te  Te149  1  0.89306134  0.59158869  0.74728524  1
  Te  Te150  1  0.89033814  0.90734552  0.09102541  1
  Te  Te151  1  0.91059129  0.92504555  0.40447111  1
  Te  Te152  1  0.92449607  0.91959397  0.75747476  1
  Te  Te153  1  0.17999606  0.12454177  0.23803429  1
  Te  Te154  1  0.26575642  0.08417511  0.59332118  1
  Te  Te155  1  0.21882873  0.08169819  0.92126840  1
  Te  Te156  1  0.23297350  0.40503304  0.23790763  1
  Te  Te157  1  0.23792319  0.40424449  0.56819436  1
  Te  Te158  1  0.26235486  0.45207960  0.91066107  1
  Te  Te159  1  0.25599566  0.76494688  0.25947259  1
  Te  Te160  1  0.26435094  0.73687450  0.58988686  1
  Te  Te161  1  0.24328822  0.74688724  0.94022275  1
  Te  Te162  1  0.58654924  0.07394292  0.25515997  1
  Te  Te163  1  0.59029317  0.04764194  0.61183553  1
  Te  Te164  1  0.56654618  0.08382546  0.93820943  1
  Te  Te165  1  0.58534170  0.45462365  0.27043727  1
  Te  Te166  1  0.57136178  0.43119594  0.59259684  1
  Te  Te167  1  0.59796031  0.41779562  0.92674476  1
  Te  Te168  1  0.59094672  0.75340339  0.24908311  1
  Te  Te169  1  0.56725149  0.75249292  0.57673462  1
  Te  Te170  1  0.60163422  0.77015813  0.89871629  1
  Te  Te171  1  0.88989606  0.08688629  0.23623894  1
  Te  Te172  1  0.92261831  0.10696701  0.56661999  1
  Te  Te173  1  0.89022605  0.07718776  0.92353889  1
  Te  Te174  1  0.93917316  0.38258988  0.25834977  1
  Te  Te175  1  0.91139964  0.42980672  0.59204393  1
  Te  Te176  1  0.92060324  0.40876615  0.93695142  1
  Te  Te177  1  0.90912816  0.76729584  0.25363634  1
  Te  Te178  1  0.92181839  0.75927474  0.58134981  1
  Te  Te179  1  0.90361631  0.74325435  0.89792616  1
