# generated using pymatgen
data_In2Te3
_symmetry_space_group_name_H-M   'P 1'
_cell_length_a   18.78102625
_cell_length_b   18.75923327
_cell_length_c   18.77985348
_cell_angle_alpha   89.94561856
_cell_angle_beta   89.97722262
_cell_angle_gamma   89.94532585
_symmetry_Int_Tables_number   1
_chemical_formula_structural   In2Te3
_chemical_formula_sum   'In72 Te108'
_cell_volume   6616.46737901
_cell_formula_units_Z   36
loop_
 _symmetry_equiv_pos_site_id
 _symmetry_equiv_pos_as_xyz
  1  'x, y, z'
loop_
 _atom_site_type_symbol
 _atom_site_label
 _atom_site_symmetry_multiplicity
 _atom_site_fract_x
 _atom_site_fract_y
 _atom_site_fract_z
 _atom_site_occupancy
  In  In0  1  0.82664265  -0.01539129  0.16210834  1
  In  In1  1  0.14834968  0.82003666  0.68978934  1
  In  In2  1  -0.00695383  0.84159765  0.16576149  1
  In  In3  1  0.84206077  0.01851129  0.49645489  1
  In  In4  1  0.49530187  0.53204732  -0.00145161  1
  In  In5  1  0.33040626  0.16732457  0.15121713  1
  In  In6  1  0.19152091  -0.02096601  0.13444582  1
  In  In7  1  0.82942010  0.17956925  0.67752941  1
  In  In8  1  0.31658241  0.34418006  0.33002619  1
  In  In9  1  0.86001689  0.84500342  0.66646576  1
  In  In10  1  0.68187260  0.49406586  0.49441239  1
  In  In11  1  0.66508679  0.64962433  0.65406230  1
  In  In12  1  0.32045795  0.64905927  0.32673192  1
  In  In13  1  0.01645051  -0.03107397  -0.01539072  1
  In  In14  1  0.17743793  0.67130220  0.15410796  1
  In  In15  1  0.01615347  0.00264815  0.32935985  1
  In  In16  1  -0.02250197  0.34661630  0.65234774  1
  In  In17  1  0.32652862  -0.00423228  0.33155889  1
  In  In18  1  0.30661615  0.15501475  0.84789865  1
  In  In19  1  0.48443968  0.49751593  0.31024314  1
  In  In20  1  0.01150645  0.80912280  0.51492424  1
  In  In21  1  0.31363676  0.51343447  0.51440720  1
  In  In22  1  0.68215755  0.01187245  0.65636876  1
  In  In23  1  0.47968639  0.17727756  0.00232240  1
  In  In24  1  0.67881729  0.69518917  0.03248319  1
  In  In25  1  0.30214681  0.34943682  0.70391256  1
  In  In26  1  0.16889985  0.33147693  0.83574423  1
  In  In27  1  0.85110121  0.13969047  -0.01304442  1
  In  In28  1  0.00977688  0.19218100  0.17588214  1
  In  In29  1  0.67034816  0.31626437  0.00164380  1
  In  In30  1  0.16361064  0.66003483  0.49445278  1
  In  In31  1  0.84121174  0.18964676  0.33946444  1
  In  In32  1  0.46895719  0.80225930  0.01857761  1
  In  In33  1  0.32693387  0.49930454  0.84937033  1
  In  In34  1  0.00932109  0.65315599  -0.02550606  1
  In  In35  1  0.50576047  0.15484726  0.33128035  1
  In  In36  1  0.00574609  0.50661028  0.13793684  1
  In  In37  1  0.50137483  -0.03659959  0.47716404  1
  In  In38  1  0.30187949  0.17417595  0.50907870  1
  In  In39  1  0.15986500  0.16467953  0.00708050  1
  In  In40  1  0.48859732  0.17088984  0.66741688  1
  In  In41  1  0.84410207  0.65721284  0.82436802  1
  In  In42  1  0.67180957  0.82580440  0.85604796  1
  In  In43  1  0.67613508  0.17223648  0.48721544  1
  In  In44  1  0.00500784  0.17177441  0.50011483  1
  In  In45  1  0.51345507  0.35637671  0.16452245  1
  In  In46  1  0.18357441  0.50523379  0.67223037  1
  In  In47  1  0.82217148  0.82751700  0.33520437  1
  In  In48  1  0.82622277  0.51477839  0.33818336  1
  In  In49  1  0.69323692  0.16390445  0.84187676  1
  In  In50  1  0.49433375  0.00081822  0.15539671  1
  In  In51  1  0.67213656  -0.01209373  0.00171415  1
  In  In52  1  0.51777974  0.33458333  0.51041574  1
  In  In53  1  0.82264516  0.33989883  0.17398508  1
  In  In54  1  0.51483869  0.82839791  0.31900385  1
  In  In55  1  0.50071599  -0.03398465  0.85519225  1
  In  In56  1  0.84022743  0.48917724  -0.00117533  1
  In  In57  1  0.50181285  0.79565115  0.68219617  1
  In  In58  1  0.30528027  0.00211170  0.67676952  1
  In  In59  1  0.32713224  0.85574414  0.49953673  1
  In  In60  1  0.00532477  0.65851908  0.67310550  1
  In  In61  1  0.32572170  0.51377211  0.15483145  1
  In  In62  1  0.03239873  0.00276763  0.71147261  1
  In  In63  1  0.69210003  0.35245377  0.65854517  1
  In  In64  1  0.01226889  0.35475047  -0.00977691  1
  In  In65  1  -0.01098916  0.66487596  0.34226899  1
  In  In66  1  0.32876800  0.66627079  0.70055251  1
  In  In67  1  0.49899914  0.66777889  0.50633662  1
  In  In68  1  0.66866175  0.50702430  0.81492680  1
  In  In69  1  0.03728354  0.35725260  0.34509983  1
  In  In70  1  0.49146198  0.32101567  0.83360411  1
  In  In71  1  0.67714735  0.67311189  0.31668995  1
  Te  Te72  1  0.06489399  0.07003795  0.09620642  1
  Te  Te73  1  0.09552838  0.09636192  0.40964344  1
  Te  Te74  1  0.13710127  0.08904157  0.77059225  1
  Te  Te75  1  0.11182541  0.42204779  0.07634956  1
  Te  Te76  1  0.10446113  0.45107533  0.43651699  1
  Te  Te77  1  0.08290088  0.42024373  0.74860708  1
  Te  Te78  1  0.07773124  0.75625402  0.07055630  1
  Te  Te79  1  0.09752920  0.75933652  0.39965876  1
  Te  Te80  1  0.06306415  0.74082837  0.78419785  1
  Te  Te81  1  0.39418366  0.06343663  0.05832700  1
  Te  Te82  1  0.41166489  0.08798205  0.43256959  1
  Te  Te83  1  0.41858217  0.07926346  0.76643590  1
  Te  Te84  1  0.41554064  0.41998246  0.06944733  1
  Te  Te85  1  0.41428998  0.42442115  0.42716318  1
  Te  Te86  1  0.42276961  0.43034180  0.75100473  1
  Te  Te87  1  0.36194790  0.74974956  0.11058674  1
  Te  Te88  1  0.40636892  0.75046171  0.41720018  1
  Te  Te89  1  0.40140606  0.76430568  0.78425462  1
  Te  Te90  1  0.74532471  0.09198737  0.08655543  1
  Te  Te91  1  0.74645537  0.07485644  0.39335597  1
  Te  Te92  1  0.77677219  0.06139067  0.76478239  1
  Te  Te93  1  0.73164835  0.42749564  0.08710926  1
  Te  Te94  1  0.75266651  0.40274644  0.40350898  1
  Te  Te95  1  0.77126645  0.41235294  0.76726887  1
  Te  Te96  1  0.76805322  0.79780492  0.09100732  1
  Te  Te97  1  0.76294546  0.72603628  0.42479115  1
  Te  Te98  1  0.74768564  0.75479244  0.74133997  1
  Te  Te99  1  0.11082015  0.26107619  0.25696193  1
  Te  Te100  1  0.08195626  0.26525450  0.58467021  1
  Te  Te101  1  0.06916106  0.23887014  0.90879958  1
  Te  Te102  1  0.07929194  0.59018997  0.24176579  1
  Te  Te103  1  0.07681420  0.56329613  0.57335335  1
  Te  Te104  1  0.10245612  0.57663427  0.89082037  1
  Te  Te105  1  0.10432085  0.91160930  0.24270097  1
  Te  Te106  1  0.08537463  0.91762642  0.58966433  1
  Te  Te107  1  0.12824338  0.91110658  0.90058637  1
  Te  Te108  1  0.41825056  0.25231361  0.24812081  1
  Te  Te109  1  0.40268240  0.26952295  0.59026494  1
  Te  Te110  1  0.38206931  0.26485872  0.92364472  1
  Te  Te111  1  0.42663837  0.60820484  0.22372753  1
  Te  Te112  1  0.41545311  0.58461884  0.60334391  1
  Te  Te113  1  0.38472804  0.60982902  0.93318911  1
  Te  Te114  1  0.40791041  0.90607743  0.23987220  1
  Te  Te115  1  0.42258209  0.91678598  0.60466126  1
  Te  Te116  1  0.39419660  0.90175521  0.93270755  1
  Te  Te117  1  0.74043591  0.24016948  0.24471487  1
  Te  Te118  1  0.77185579  0.26266463  0.56308779  1
  Te  Te119  1  0.78274812  0.26277205  0.91261968  1
  Te  Te120  1  0.75594628  0.58353432  0.22849554  1
  Te  Te121  1  0.77183996  0.55877363  0.59911562  1
  Te  Te122  1  0.74003049  0.59100447  0.92430227  1
  Te  Te123  1  0.73311199  0.89323603  0.23326100  1
  Te  Te124  1  0.75895411  0.91252733  0.56986564  1
  Te  Te125  1  0.76377002  0.93258823  0.89988770  1
  Te  Te126  1  0.23676322  0.26179751  0.08724752  1
  Te  Te127  1  0.22743342  0.25261802  0.40686945  1
  Te  Te128  1  0.22509398  0.21753247  0.73261966  1
  Te  Te129  1  0.25881164  0.59955188  0.04961410  1
  Te  Te130  1  0.22082621  0.55020188  0.39319244  1
  Te  Te131  1  0.21659706  0.60563685  0.78710907  1
  Te  Te132  1  0.25959491  0.85853218  0.06654454  1
  Te  Te133  1  0.22805345  0.92945219  0.42026444  1
  Te  Te134  1  0.24835902  0.89952449  0.76884459  1
  Te  Te135  1  0.58251419  0.23521065  0.09795530  1
  Te  Te136  1  0.59180416  0.26429747  0.39843853  1
  Te  Te137  1  0.59904359  0.24680160  0.74285428  1
  Te  Te138  1  0.58620273  0.59705980  0.09675282  1
  Te  Te139  1  0.57698471  0.57861311  0.41122425  1
  Te  Te140  1  0.56986533  0.59917911  0.75500785  1
  Te  Te141  1  0.57726237  0.89859590  0.07763821  1
  Te  Te142  1  0.61182103  0.90145073  0.40444201  1
  Te  Te143  1  0.59226530  0.91814752  0.74211663  1
  Te  Te144  1  0.91384000  0.25868217  0.07674332  1
  Te  Te145  1  0.92788747  0.28044063  0.42383352  1
  Te  Te146  1  0.93123790  0.24929140  0.75622353  1
  Te  Te147  1  0.90476968  0.60281468  0.07703233  1
  Te  Te148  1  0.92843272  0.56529465  0.43308053  1
  Te  Te149  1  0.91733794  0.55633188  0.74135109  1
  Te  Te150  1  0.89078863  0.89358478  0.05599475  1
  Te  Te151  1  0.92902119  0.91306560  0.42138821  1
  Te  Te152  1  0.94274873  0.90154693  0.77454742  1
  Te  Te153  1  0.23944863  0.08181822  0.23933129  1
  Te  Te154  1  0.21960821  0.07273766  0.57914508  1
  Te  Te155  1  0.22287733  0.05541706  0.92290809  1
  Te  Te156  1  0.23693323  0.42563330  0.23516902  1
  Te  Te157  1  0.23450145  0.39643511  0.57408965  1
  Te  Te158  1  0.23562223  0.41956371  0.93474123  1
  Te  Te159  1  0.24770634  0.75716669  0.25585479  1
  Te  Te160  1  0.25179029  0.74522318  0.58607930  1
  Te  Te161  1  0.20680732  0.79021171  0.93656687  1
  Te  Te162  1  0.58744624  0.06426397  0.25029694  1
  Te  Te163  1  0.57710845  0.08776467  0.57167964  1
  Te  Te164  1  0.57787044  0.09256998  0.91326911  1
  Te  Te165  1  0.60245994  0.42599649  0.25836054  1
  Te  Te166  1  0.57979573  0.43830014  0.60065679  1
  Te  Te167  1  0.58042942  0.41148699  0.91973423  1
  Te  Te168  1  0.57937976  0.73639756  0.22256456  1
  Te  Te169  1  0.59723251  0.76451455  0.56889520  1
  Te  Te170  1  0.57397184  0.73471064  0.92439522  1
  Te  Te171  1  0.91345823  0.08261884  0.24529312  1
  Te  Te172  1  0.93019671  0.07700926  0.60594933  1
  Te  Te173  1  0.94978289  0.07279844  0.90100886  1
  Te  Te174  1  0.93357839  0.41823728  0.24331112  1
  Te  Te175  1  0.88921737  0.45233241  0.59875798  1
  Te  Te176  1  0.93656486  0.44201419  0.89757724  1
  Te  Te177  1  0.90543270  0.74068939  0.23956354  1
  Te  Te178  1  0.90232976  0.72686118  0.57826390  1
  Te  Te179  1  0.92451711  0.75496296  0.90193686  1
