# generated using pymatgen
data_In2Te3
_symmetry_space_group_name_H-M   'P 1'
_cell_length_a   19.00979226
_cell_length_b   19.03226471
_cell_length_c   18.98405234
_cell_angle_alpha   90.02470817
_cell_angle_beta   89.90250642
_cell_angle_gamma   89.84514570
_symmetry_Int_Tables_number   1
_chemical_formula_structural   In2Te3
_chemical_formula_sum   'In72 Te108'
_cell_volume   6868.38303332
_cell_formula_units_Z   36
loop_
 _symmetry_equiv_pos_site_id
 _symmetry_equiv_pos_as_xyz
  1  'x, y, z'
loop_
 _atom_site_type_symbol
 _atom_site_label
 _atom_site_symmetry_multiplicity
 _atom_site_fract_x
 _atom_site_fract_y
 _atom_site_fract_z
 _atom_site_occupancy
  In  In0  1  0.18086802  0.48952979  -0.00585696  1
  In  In1  1  0.62094007  0.66579891  -0.01672901  1
  In  In2  1  0.50891973  0.83551375  0.34627604  1
  In  In3  1  0.31978785  0.48233502  0.82600019  1
  In  In4  1  0.50119727  0.01699140  0.81682824  1
  In  In5  1  0.01939261  0.16043585  0.16694805  1
  In  In6  1  0.84830191  0.16266502  -0.02464058  1
  In  In7  1  0.85084430  0.85095117  0.35175350  1
  In  In8  1  0.84727866  0.33053117  0.52204581  1
  In  In9  1  0.85507376  0.03389330  0.14628373  1
  In  In10  1  0.48608767  0.48998252  0.34143315  1
  In  In11  1  0.47846353  0.50702737  0.66396861  1
  In  In12  1  0.67631047  0.00615201  0.32489346  1
  In  In13  1  0.46916836  0.66248365  0.51104130  1
  In  In14  1  0.33156183  0.84696922  0.49615799  1
  In  In15  1  0.66765436  0.83605774  0.51935930  1
  In  In16  1  0.95856964  0.65366997  0.48773894  1
  In  In17  1  0.65955638  0.84249961  0.18380212  1
  In  In18  1  0.64370673  0.66280601  0.33794122  1
  In  In19  1  0.31057956  0.16000895  0.83311038  1
  In  In20  1  0.87045282  0.31816274  0.79659817  1
  In  In21  1  0.49642109  0.18164511  0.36200896  1
  In  In22  1  0.82302779  0.68180653  0.18494900  1
  In  In23  1  0.33005719  0.49019374  0.18841100  1
  In  In24  1  0.80556800  0.66489796  0.83251985  1
  In  In25  1  0.47825039  0.84700643  0.68668635  1
  In  In26  1  0.87390692  0.02046564  0.49329746  1
  In  In27  1  -0.00439917  0.51618041  0.24367014  1
  In  In28  1  0.31877079  -0.01592744  0.66770429  1
  In  In29  1  0.84261017  0.50675408  0.64655470  1
  In  In30  1  0.15194707  0.14447225  0.66352532  1
  In  In31  1  0.33893212  0.82580045  0.13955160  1
  In  In32  1  0.02387681  0.50034262  0.84986441  1
  In  In33  1  0.66889272  0.49450556  0.17772903  1
  In  In34  1  0.65170940  0.33344883  0.00149995  1
  In  In35  1  0.16689095  0.48467795  0.66571155  1
  In  In36  1  0.64863085  0.50363476  0.82224412  1
  In  In37  1  0.64762047  0.19930175  0.20379065  1
  In  In38  1  0.66673783  0.63064305  0.65014705  1
  In  In39  1  0.34576969  0.30285904  0.62116304  1
  In  In40  1  0.49738908  0.35345573  0.17608957  1
  In  In41  1  0.32080433  0.33623681  0.35891439  1
  In  In42  1  0.69127302  0.48055047  0.50561759  1
  In  In43  1  0.14718997  0.29848217  0.49736381  1
  In  In44  1  0.47059117  0.01977912  0.13202295  1
  In  In45  1  0.13579406  0.01681831  0.50366683  1
  In  In46  1  0.29915482  0.83222945  0.85013687  1
  In  In47  1  0.18530123  0.67141149  0.50933443  1
  In  In48  1  0.84536537  0.82367771  0.01647709  1
  In  In49  1  0.04541339  0.30974599  0.01123947  1
  In  In50  1  0.00169527  0.67935058  0.67972400  1
  In  In51  1  0.16507312  0.81569376  0.34153360  1
  In  In52  1  0.04173758  0.81933780  0.84585977  1
  In  In53  1  0.47528775  0.50044009  -0.01570341  1
  In  In54  1  0.16943606  0.65295478  0.17988415  1
  In  In55  1  0.66219628  0.17591930  0.81588519  1
  In  In56  1  0.18832911  0.33675691  0.16334321  1
  In  In57  1  0.30403809  0.03409508  -0.01488602  1
  In  In58  1  -0.01156516  0.84544153  0.14827678  1
  In  In59  1  0.66242638  0.32145994  0.66609467  1
  In  In60  1  0.67104762  0.03790128  0.63738062  1
  In  In61  1  0.85176716  0.16466349  0.31550152  1
  In  In62  1  0.00268785  -0.02013324  0.66875842  1
  In  In63  1  0.70964409  0.00592735  -0.00383383  1
  In  In64  1  0.86739765  0.00084668  0.83985672  1
  In  In65  1  0.02282842  0.64229579  0.00034831  1
  In  In66  1  0.85461049  0.49153757  0.01086349  1
  In  In67  1  -0.00703573  0.33395615  0.34302549  1
  In  In68  1  0.46202610  0.14885147  -0.01543603  1
  In  In69  1  0.18170592  0.00955836  0.17516103  1
  In  In70  1  0.49380255  0.84420745  -0.00814185  1
  In  In71  1  0.33759404  0.01833526  0.31012899  1
  Te  Te72  1  0.09749233  0.07755262  0.07440862  1
  Te  Te73  1  0.03127678  0.10283312  0.44967574  1
  Te  Te74  1  0.10407265  0.04137576  0.76031588  1
  Te  Te75  1  0.08455307  0.43201066  0.09400528  1
  Te  Te76  1  0.06070200  0.41066318  0.44960840  1
  Te  Te77  1  0.09092642  0.40242732  0.76366814  1
  Te  Te78  1  0.08787264  0.74456665  0.09056174  1
  Te  Te79  1  0.07348851  0.74661343  0.43697949  1
  Te  Te80  1  0.11319875  0.75735528  0.73456653  1
  Te  Te81  1  0.35913500  0.12405557  0.10130780  1
  Te  Te82  1  0.42863118  0.06417877  0.41375439  1
  Te  Te83  1  0.40624878  0.09189696  0.73095908  1
  Te  Te84  1  0.39847113  0.40762668  0.07677453  1
  Te  Te85  1  0.40763804  0.42043732  0.44150177  1
  Te  Te86  1  0.40399575  0.39432225  0.72858163  1
  Te  Te87  1  0.41116369  0.73839094  0.04768345  1
  Te  Te88  1  0.40264312  0.74629437  0.40504518  1
  Te  Te89  1  0.37078825  0.76389620  0.74055046  1
  Te  Te90  1  0.74213996  0.12016297  0.09410461  1
  Te  Te91  1  0.75965576  0.09154201  0.41304399  1
  Te  Te92  1  0.75631502  0.07195943  0.76163545  1
  Te  Te93  1  0.75290618  0.40560596  0.08730902  1
  Te  Te94  1  0.76836631  0.39610455  0.41693288  1
  Te  Te95  1  0.75568975  0.42667322  0.74802919  1
  Te  Te96  1  0.72827618  0.74105035  0.08033464  1
  Te  Te97  1  0.73591418  0.76634717  0.40283663  1
  Te  Te98  1  0.73370400  0.73476034  0.72743204  1
  Te  Te99  1  0.09176854  0.25974357  0.25251977  1
  Te  Te100  1  0.05793298  0.24519498  0.60674517  1
  Te  Te101  1  0.06385591  0.22636976  0.89171241  1
  Te  Te102  1  0.11341880  0.59164954  0.30600437  1
  Te  Te103  1  0.07972487  0.58410991  0.58932803  1
  Te  Te104  1  0.12816663  0.60645511  0.89435778  1
  Te  Te105  1  0.09211203  0.90566540  0.24199298  1
  Te  Te106  1  0.09628314  0.90332960  0.58540745  1
  Te  Te107  1  0.05763932  0.89861048  0.96558095  1
  Te  Te108  1  0.41488474  0.26085838  0.26236259  1
  Te  Te109  1  0.45861351  0.24059420  0.54333157  1
  Te  Te110  1  0.40380805  0.25068462  0.90159298  1
  Te  Te111  1  0.42324380  0.58303929  0.25015136  1
  Te  Te112  1  0.37404504  0.58399745  0.59168611  1
  Te  Te113  1  0.38870257  0.58596366  0.90498444  1
  Te  Te114  1  0.43004656  0.90882656  0.23407775  1
  Te  Te115  1  0.43054717  0.93226229  0.57224199  1
  Te  Te116  1  0.40926387  0.94316359  0.91290448  1
  Te  Te117  1  0.76197522  0.26758949  0.26085387  1
  Te  Te118  1  0.76948283  0.23967396  0.60757987  1
  Te  Te119  1  0.75347888  0.26218229  0.90501318  1
  Te  Te120  1  0.75182305  0.57981931  0.27135051  1
  Te  Te121  1  0.77637669  0.59867758  0.54624929  1
  Te  Te122  1  0.73993311  0.56521651  0.93434598  1
  Te  Te123  1  0.77697830  0.92697895  0.22899530  1
  Te  Te124  1  0.76452212  0.93679026  0.57222505  1
  Te  Te125  1  0.76603233  0.89885012  0.90959577  1
  Te  Te126  1  0.24463178  0.23504447  0.07509105  1
  Te  Te127  1  0.24279394  0.22280233  0.41275443  1
  Te  Te128  1  0.24734426  0.24428852  0.72477192  1
  Te  Te129  1  0.26092927  0.57954848  0.08460464  1
  Te  Te130  1  0.23185874  0.58814236  0.39968605  1
  Te  Te131  1  0.26785109  0.57605011  0.72243442  1
  Te  Te132  1  0.24677377  0.91899734  0.06728351  1
  Te  Te133  1  0.24410941  0.92951169  0.40354984  1
  Te  Te134  1  0.23733492  0.95418973  0.78999465  1
  Te  Te135  1  0.55677189  0.24435288  0.07995823  1
  Te  Te136  1  0.59593938  0.23436528  0.45617956  1
  Te  Te137  1  0.56047165  0.24065590  0.73539607  1
  Te  Te138  1  0.57180428  0.56515187  0.08595232  1
  Te  Te139  1  0.57871128  0.57830162  0.44409681  1
  Te  Te140  1  0.55690212  0.60091489  0.75417190  1
  Te  Te141  1  0.59876541  0.92907467  0.07562905  1
  Te  Te142  1  0.59170065  0.93235038  0.42657640  1
  Te  Te143  1  0.59309554  0.93748052  0.72791650  1
  Te  Te144  1  0.92578196  0.24210958  0.07831152  1
  Te  Te145  1  0.93301795  0.22281052  0.43251704  1
  Te  Te146  1  0.93123293  0.22064148  0.70430649  1
  Te  Te147  1  0.91925541  0.59156448  0.10544863  1
  Te  Te148  1  0.93039393  0.57290911  0.36954077  1
  Te  Te149  1  0.91385610  0.57166837  0.77073738  1
  Te  Te150  1  0.93403494  0.95082917  0.04343478  1
  Te  Te151  1  0.95412945  0.91462961  0.43143724  1
  Te  Te152  1  0.92610176  0.88718204  0.76326077  1
  Te  Te153  1  0.22401011  0.10642604  0.27990949  1
  Te  Te154  1  0.25477551  0.08129653  0.57004062  1
  Te  Te155  1  0.20351550  0.14191755  0.94285468  1
  Te  Te156  1  0.22789116  0.42688957  0.27945821  1
  Te  Te157  1  0.24243032  0.39868593  0.56507607  1
  Te  Te158  1  0.21606474  0.39462837  0.88746676  1
  Te  Te159  1  0.26502804  0.74997141  0.24734352  1
  Te  Te160  1  0.25854951  0.76743071  0.59592311  1
  Te  Te161  1  0.19533911  0.74830929  0.91015441  1
  Te  Te162  1  0.57134308  0.07471419  0.23912931  1
  Te  Te163  1  0.57461952  0.13294508  0.57346430  1
  Te  Te164  1  0.59394755  0.08471214  0.92512934  1
  Te  Te165  1  0.59576382  0.40663098  0.27780398  1
  Te  Te166  1  0.58092409  0.42139519  0.58759151  1
  Te  Te167  1  0.56547442  0.40549429  0.90059473  1
  Te  Te168  1  0.56318427  0.73993075  0.23613623  1
  Te  Te169  1  0.56681926  0.74694812  0.59122715  1
  Te  Te170  1  0.57487916  0.76942366  0.89384975  1
  Te  Te171  1  0.94869222  0.06113224  0.25979972  1
  Te  Te172  1  0.91090404  0.08898100  0.62137537  1
  Te  Te173  1  0.95777700  0.11058819  0.88914534  1
  Te  Te174  1  0.91245059  0.39786071  0.23777301  1
  Te  Te175  1  0.94509294  0.42847602  0.57488030  1
  Te  Te176  1  0.93408802  0.39785438  0.92346577  1
  Te  Te177  1  0.92890341  0.75840114  0.25894992  1
  Te  Te178  1  0.91072309  0.74773612  0.58830579  1
  Te  Te179  1  0.91634654  0.72302775  0.92617547  1
