# generated using pymatgen
data_In2Te3
_symmetry_space_group_name_H-M   'P 1'
_cell_length_a   18.93630727
_cell_length_b   18.95094840
_cell_length_c   18.95914925
_cell_angle_alpha   90.10901103
_cell_angle_beta   90.06070022
_cell_angle_gamma   90.00373446
_symmetry_Int_Tables_number   1
_chemical_formula_structural   In2Te3
_chemical_formula_sum   'In72 Te108'
_cell_volume   6803.68276967
_cell_formula_units_Z   36
loop_
 _symmetry_equiv_pos_site_id
 _symmetry_equiv_pos_as_xyz
  1  'x, y, z'
loop_
 _atom_site_type_symbol
 _atom_site_label
 _atom_site_symmetry_multiplicity
 _atom_site_fract_x
 _atom_site_fract_y
 _atom_site_fract_z
 _atom_site_occupancy
  In  In0  1  0.51735010  0.01086746  0.18284589  1
  In  In1  1  0.33859684  0.48881063  0.14960102  1
  In  In2  1  0.64382940  0.50150226  0.50528336  1
  In  In3  1  0.49484531  0.31083936  0.86181747  1
  In  In4  1  0.01880607  0.00842418  0.32216332  1
  In  In5  1  0.83011401  0.50277337  0.64801621  1
  In  In6  1  0.00030349  0.68847538  -0.01153206  1
  In  In7  1  0.50149962  0.01807750  0.49507751  1
  In  In8  1  0.65813765  0.17319846  0.50576971  1
  In  In9  1  0.47649568  0.50546907  -0.00101172  1
  In  In10  1  0.64781016  0.82181990  0.19174658  1
  In  In11  1  0.63827127  0.70047449  0.66946591  1
  In  In12  1  0.66310275  0.85961277  0.50204021  1
  In  In13  1  0.20122501  0.70807568  0.48576179  1
  In  In14  1  0.00643327  0.15577547  0.15243231  1
  In  In15  1  0.82626003  0.51489618  0.33030770  1
  In  In16  1  0.82821806  0.63441207  0.18827090  1
  In  In17  1  0.16943115  0.86407584  0.69361203  1
  In  In18  1  0.65504740  0.70560006  0.01666762  1
  In  In19  1  -0.01733572  0.47640922  0.14814611  1
  In  In20  1  0.00969945  0.15952743  0.83010531  1
  In  In21  1  0.00418188  0.19483128  0.49453082  1
  In  In22  1  0.84848268  0.83222321  -0.00489544  1
  In  In23  1  0.82048045  0.16615249  0.35619530  1
  In  In24  1  0.66884991  0.32040122  0.34126062  1
  In  In25  1  0.64058641  0.31218606  0.04347900  1
  In  In26  1  0.67189444  0.51990049  0.83857010  1
  In  In27  1  0.80338479  0.49081216  -0.01274262  1
  In  In28  1  -0.00382889  0.83763571  0.18312190  1
  In  In29  1  0.33499712  0.31103266  0.66289156  1
  In  In30  1  0.31490989  0.32296802  0.00248956  1
  In  In31  1  0.47742280  0.48500902  0.34912459  1
  In  In32  1  0.02431778  0.31929146  -0.02261124  1
  In  In33  1  0.01826401  0.65278825  0.36372269  1
  In  In34  1  0.48083411  0.64066122  0.85715179  1
  In  In35  1  0.19769381  -0.03231200  0.48146184  1
  In  In36  1  0.67542254  0.14829367  0.84208503  1
  In  In37  1  0.18390346  0.16500082  0.31865621  1
  In  In38  1  0.46888253  0.48129133  0.65394087  1
  In  In39  1  0.17584490  0.51852939  0.33053220  1
  In  In40  1  0.32820529  0.83166327  0.83176290  1
  In  In41  1  0.85277378  0.30732060  0.84083032  1
  In  In42  1  -0.02439086  0.90069180  0.81741183  1
  In  In43  1  0.83502564  -0.00677820  0.51319436  1
  In  In44  1  0.81231287  0.83015321  0.33956786  1
  In  In45  1  0.81772826  -0.00793873  0.14747867  1
  In  In46  1  0.17033600  0.67650778  0.82138582  1
  In  In47  1  -0.01772867  0.65083588  0.65158174  1
  In  In48  1  0.16347449  0.48121825  0.64218194  1
  In  In49  1  0.18226408  0.66003577  0.16953165  1
  In  In50  1  0.00421618  0.49010607  0.49321548  1
  In  In51  1  0.50670537  0.67635503  0.18187302  1
  In  In52  1  0.15472757  0.17221506  0.64757200  1
  In  In53  1  0.18087620  0.01012219  0.14485240  1
  In  In54  1  0.33712665  0.83706935  0.17429909  1
  In  In55  1  0.00048402  0.81731771  0.50546671  1
  In  In56  1  0.17716698  0.02259464  0.84760887  1
  In  In57  1  0.01977407  0.51138600  0.80342781  1
  In  In58  1  0.48571041  0.17344264  0.01962817  1
  In  In59  1  0.34143633  0.16145534  0.17201865  1
  In  In60  1  0.48646875  0.86094524  0.66813429  1
  In  In61  1  0.33938625  0.65184369  0.64633367  1
  In  In62  1  0.69063675  0.85416664  0.82862837  1
  In  In63  1  0.17415293  0.32510351  0.16783784  1
  In  In64  1  0.48233900  0.03009142  0.82250776  1
  In  In65  1  0.83091554  0.15267478  0.66158675  1
  In  In66  1  0.69015431  0.29866015  0.69069978  1
  In  In67  1  0.67143275  0.50048828  0.18529826  1
  In  In68  1  0.48401587  0.84213896  0.01512713  1
  In  In69  1  0.33392900  0.16018881  0.48481857  1
  In  In70  1  0.50605116  0.33028386  0.49860580  1
  In  In71  1  0.84909701  0.15781954  -0.00482519  1
  Te  Te72  1  0.08270297  0.07616123  0.05773745  1
  Te  Te73  1  0.10179044  0.08146327  0.42500287  1
  Te  Te74  1  0.08294494  0.06938655  0.73452379  1
  Te  Te75  1  0.09774737  0.41464443  0.07123862  1
  Te  Te76  1  0.09873511  0.41900074  0.40703858  1
  Te  Te77  1  0.09975109  0.40316264  0.75005461  1
  Te  Te78  1  0.08717094  0.75548340  0.09287603  1
  Te  Te79  1  0.09764636  0.77688315  0.39574506  1
  Te  Te80  1  0.07598765  0.74715188  0.72637953  1
  Te  Te81  1  0.41142917  0.05880916  0.08420856  1
  Te  Te82  1  0.40701388  0.07228339  0.39132989  1
  Te  Te83  1  0.44068721  0.12641259  0.72153717  1
  Te  Te84  1  0.43292453  0.38474768  0.08405621  1
  Te  Te85  1  0.39222108  0.40084518  0.43675574  1
  Te  Te86  1  0.41325427  0.39876464  0.76605472  1
  Te  Te87  1  0.41053785  0.72883935  0.07945112  1
  Te  Te88  1  0.33316962  0.75628177  0.41835252  1
  Te  Te89  1  0.42259105  0.74014089  0.75016491  1
  Te  Te90  1  0.74562213  0.09948381  0.07991805  1
  Te  Te91  1  0.73456977  0.06410084  0.42602235  1
  Te  Te92  1  0.78031109  0.06786771  0.77276943  1
  Te  Te93  1  0.75276291  0.40562035  0.09990862  1
  Te  Te94  1  0.74433663  0.42353586  0.42427402  1
  Te  Te95  1  0.75718205  0.41381047  0.76529927  1
  Te  Te96  1  0.76866090  0.75654629  0.10943195  1
  Te  Te97  1  0.74181813  0.75107905  0.43813323  1
  Te  Te98  1  0.74385367  0.73471338  0.76422092  1
  Te  Te99  1  0.07427514  0.24746255  0.25236845  1
  Te  Te100  1  0.11243277  0.27526790  0.55074484  1
  Te  Te101  1  0.11563692  0.24732467  0.88741560  1
  Te  Te102  1  0.06089913  0.58082032  0.23589677  1
  Te  Te103  1  0.09667715  0.59908602  0.56585180  1
  Te  Te104  1  0.08668074  0.58625901  0.91637181  1
  Te  Te105  1  0.10988299  0.91586317  0.24698657  1
  Te  Te106  1  0.08778216  0.91891313  0.57641381  1
  Te  Te107  1  0.09855009  0.90633961  0.89471319  1
  Te  Te108  1  0.42293617  0.27669623  0.21092210  1
  Te  Te109  1  0.43871007  0.22482167  0.58863747  1
  Te  Te110  1  0.38321165  0.21279742  0.90463358  1
  Te  Te111  1  0.41168324  0.57958946  0.24814206  1
  Te  Te112  1  0.43698297  0.58678365  0.55512804  1
  Te  Te113  1  0.36618781  0.55870638  0.91202641  1
  Te  Te114  1  0.44615162  0.90021418  0.25514892  1
  Te  Te115  1  0.39982018  0.93483763  0.57380151  1
  Te  Te116  1  0.41177861  0.92841733  0.91443800  1
  Te  Te117  1  0.75397970  0.24315432  0.24966289  1
  Te  Te118  1  0.76883376  0.25756809  0.56949958  1
  Te  Te119  1  0.73476711  0.26267283  0.92686356  1
  Te  Te120  1  0.71157917  0.60996128  0.28115389  1
  Te  Te121  1  0.72473428  0.59543511  0.59253744  1
  Te  Te122  1  0.74582490  0.61795774  0.92789171  1
  Te  Te123  1  0.73300665  0.92967477  0.25813317  1
  Te  Te124  1  0.75601943  0.91360609  0.61143415  1
  Te  Te125  1  0.74370739  0.92151748  0.94639344  1
  Te  Te126  1  0.23369599  0.21911182  0.07845433  1
  Te  Te127  1  0.26240343  0.25789705  0.40063701  1
  Te  Te128  1  0.23022003  0.25097078  0.74895938  1
  Te  Te129  1  0.23748327  0.56403651  0.07368627  1
  Te  Te130  1  0.27132584  0.59394146  0.41588137  1
  Te  Te131  1  0.24491412  0.57597262  0.73474906  1
  Te  Te132  1  0.26229598  0.91130120  0.07296502  1
  Te  Te133  1  0.32789404  0.90722396  0.43206088  1
  Te  Te134  1  0.27838603  0.94981928  0.75150985  1
  Te  Te135  1  0.56022418  0.22577906  0.14982047  1
  Te  Te136  1  0.56224041  0.22827203  0.40025273  1
  Te  Te137  1  0.57277190  0.22772679  0.75579947  1
  Te  Te138  1  0.59036213  0.58027567  0.07791123  1
  Te  Te139  1  0.55274190  0.58690428  0.42759487  1
  Te  Te140  1  0.56434519  0.57391383  0.74544502  1
  Te  Te141  1  0.59539250  0.91489501  0.08494086  1
  Te  Te142  1  0.56640997  0.91750811  0.40617222  1
  Te  Te143  1  0.58535602  0.93504537  0.75524045  1
  Te  Te144  1  0.92554235  0.26044564  0.07631336  1
  Te  Te145  1  0.91365623  0.26696051  0.40652591  1
  Te  Te146  1  0.93175024  0.24764917  0.73009680  1
  Te  Te147  1  0.91164621  0.58728699  0.06558201  1
  Te  Te148  1  0.90293534  0.59030332  0.43793524  1
  Te  Te149  1  0.89515203  0.58256777  0.76062524  1
  Te  Te150  1  0.93593234  0.92724692  0.07705847  1
  Te  Te151  1  0.92472537  0.92045930  0.40555685  1
  Te  Te152  1  0.87079755  0.92403792  0.71896209  1
  Te  Te153  1  0.27338084  0.05800962  0.26217283  1
  Te  Te154  1  0.25059462  0.07448347  0.57713735  1
  Te  Te155  1  0.27097344  0.10682558  0.92132738  1
  Te  Te156  1  0.25995905  0.41277245  0.25489458  1
  Te  Te157  1  0.28311363  0.42135150  0.57655354  1
  Te  Te158  1  0.27712266  0.43120250  0.91463136  1
  Te  Te159  1  0.26602129  0.73959898  0.26272473  1
  Te  Te160  1  0.26183093  0.77603440  0.60868311  1
  Te  Te161  1  0.24575130  0.75174156  0.92229061  1
  Te  Te162  1  0.59915812  0.11464987  0.24560774  1
  Te  Te163  1  0.60729192  0.06514048  0.58891874  1
  Te  Te164  1  0.57488146  0.08327961  0.93342711  1
  Te  Te165  1  0.57644486  0.41162214  0.25959570  1
  Te  Te166  1  0.59440180  0.39546620  0.61241172  1
  Te  Te167  1  0.58388347  0.42291818  0.91880269  1
  Te  Te168  1  0.54962595  0.76858242  0.29061718  1
  Te  Te169  1  0.55238597  0.76955004  0.56697620  1
  Te  Te170  1  0.56409520  0.75886988  0.90726640  1
  Te  Te171  1  0.90863088  0.07944020  0.24694779  1
  Te  Te172  1  0.93669990  0.08472644  0.57727618  1
  Te  Te173  1  0.91473322  0.06834445  0.89916451  1
  Te  Te174  1  0.90509277  0.41583109  0.25574326  1
  Te  Te175  1  0.93244107  0.41391315  0.59612069  1
  Te  Te176  1  0.92008679  0.42135187  0.91731208  1
  Te  Te177  1  0.92018968  0.73608496  0.26754312  1
  Te  Te178  1  0.89606733  0.74159551  0.57348714  1
  Te  Te179  1  0.92625035  0.76743478  0.88407290  1
