# generated using pymatgen
data_In2Te3
_symmetry_space_group_name_H-M   'P 1'
_cell_length_a   18.76991359
_cell_length_b   18.76809145
_cell_length_c   18.76829034
_cell_angle_alpha   90.08268833
_cell_angle_beta   90.02459533
_cell_angle_gamma   89.98323277
_symmetry_Int_Tables_number   1
_chemical_formula_structural   In2Te3
_chemical_formula_sum   'In72 Te108'
_cell_volume   6611.60023829
_cell_formula_units_Z   36
loop_
 _symmetry_equiv_pos_site_id
 _symmetry_equiv_pos_as_xyz
  1  'x, y, z'
loop_
 _atom_site_type_symbol
 _atom_site_label
 _atom_site_symmetry_multiplicity
 _atom_site_fract_x
 _atom_site_fract_y
 _atom_site_fract_z
 _atom_site_occupancy
  In  In0  1  0.66330078  0.16972194  0.82174408  1
  In  In1  1  0.63802910  -0.03093676  0.68837918  1
  In  In2  1  0.49857165  0.18327520  0.64493122  1
  In  In3  1  0.01630524  0.00500045  0.00209210  1
  In  In4  1  0.66650329  0.32099586  0.63856323  1
  In  In5  1  0.49079992  0.84940527  0.32944826  1
  In  In6  1  -0.01497097  0.67696856  0.00730701  1
  In  In7  1  0.15329916  0.16353540  0.00186866  1
  In  In8  1  0.35231962  0.66012479  0.68399067  1
  In  In9  1  0.17649491  0.48795276  0.32965954  1
  In  In10  1  -0.00188879  0.66382813  0.65344997  1
  In  In11  1  -0.01000504  0.16278931  0.81863186  1
  In  In12  1  0.67855375  0.00487286  -0.00116507  1
  In  In13  1  0.85317513  -0.01554013  0.83259275  1
  In  In14  1  0.67750657  0.49469242  0.83138178  1
  In  In15  1  0.17474932  0.17527582  0.32503765  1
  In  In16  1  0.83256051  0.00704117  0.19036696  1
  In  In17  1  0.16034766  0.64126026  0.47449568  1
  In  In18  1  0.81523210  0.84746730  0.33175063  1
  In  In19  1  0.52844871  0.66492540  0.51501475  1
  In  In20  1  0.34526454  0.17661242  0.19396246  1
  In  In21  1  0.00123054  0.63424969  0.33939436  1
  In  In22  1  0.84550230  0.32131268  0.13984919  1
  In  In23  1  0.33002891  -0.00663073  0.66187491  1
  In  In24  1  0.81824086  0.81939836  -0.01238914  1
  In  In25  1  -0.00394486  0.47939433  0.83740205  1
  In  In26  1  0.66169715  0.15355717  0.18372498  1
  In  In27  1  0.66500489  0.65540679  0.00594608  1
  In  In28  1  0.49303418  0.00762880  0.17217769  1
  In  In29  1  0.68568872  0.51834280  0.52717084  1
  In  In30  1  0.32952306  0.83623490  0.50240519  1
  In  In31  1  0.15992857  0.14942284  0.64748026  1
  In  In32  1  0.66965208  0.82976603  0.51395477  1
  In  In33  1  0.82135625  0.33352667  0.83112848  1
  In  In34  1  0.16558177  0.84265028  -0.00840876  1
  In  In35  1  0.49924243  0.66358603  0.15487165  1
  In  In36  1  0.48527654  0.34139405  0.19642417  1
  In  In37  1  0.67564481  0.35064146  -0.00518723  1
  In  In38  1  0.15863613  0.32656968  0.83900971  1
  In  In39  1  0.82165961  0.00909042  0.48922016  1
  In  In40  1  0.83238780  0.66521227  0.16924313  1
  In  In41  1  -0.00667147  -0.00164779  0.68031886  1
  In  In42  1  0.49649330  0.02516945  0.50008660  1
  In  In43  1  0.00901894  0.19065636  0.48523400  1
  In  In44  1  0.01104050  0.84536794  0.16469690  1
  In  In45  1  0.00133146  0.50751898  0.18034477  1
  In  In46  1  0.52028580  0.17160832  -0.00944220  1
  In  In47  1  0.18225635  0.66880031  0.82422465  1
  In  In48  1  0.17807902  0.34493955  0.48957309  1
  In  In49  1  0.18259256  0.01328411  0.50202290  1
  In  In50  1  0.17618389  0.49664164  0.00576986  1
  In  In51  1  0.82993391  0.49625203  0.33501432  1
  In  In52  1  0.34721435  0.33259036  0.65543092  1
  In  In53  1  0.50668892  0.48851283  0.67355898  1
  In  In54  1  0.35084361  0.66500554  -0.00851981  1
  In  In55  1  0.49394481  0.67143803  0.83002202  1
  In  In56  1  0.32912302  0.48953411  0.19133261  1
  In  In57  1  0.33854695  0.15304589  0.84292809  1
  In  In58  1  -0.03124425  0.83774337  0.51071654  1
  In  In59  1  0.82560870  0.18937076  0.66118168  1
  In  In60  1  0.65235157  0.66356426  0.33629002  1
  In  In61  1  0.81394567  0.67600316  0.81250160  1
  In  In62  1  0.17473895  0.84614622  0.33542678  1
  In  In63  1  0.31868012  0.66002016  0.32914146  1
  In  In64  1  0.14863486  0.33974299  0.18512853  1
  In  In65  1  0.33474074  0.33874785  -0.00231281  1
  In  In66  1  0.84435375  0.16534024  0.34335495  1
  In  In67  1  0.18288254  0.83365475  0.67394105  1
  In  In68  1  -0.02187677  0.46752819  0.52684246  1
  In  In69  1  0.64574898  0.32463858  0.35846043  1
  In  In70  1  0.50280585  0.82508547  -0.00842560  1
  In  In71  1  0.34184718  -0.02842319  0.00234175  1
  Te  Te72  1  0.08131014  0.08721433  0.10652846  1
  Te  Te73  1  0.08046442  0.07917200  0.41182713  1
  Te  Te74  1  0.09877228  0.06996982  0.76451344  1
  Te  Te75  1  0.07076376  0.41479833  0.07770061  1
  Te  Te76  1  0.06899593  0.41779863  0.40862932  1
  Te  Te77  1  0.09349602  0.41937472  0.74437283  1
  Te  Te78  1  0.09454961  0.74285604  0.08793930  1
  Te  Te79  1  0.06984403  0.75402454  0.42135332  1
  Te  Te80  1  0.07814584  0.75340173  0.75004660  1
  Te  Te81  1  0.41090073  0.10083919  0.07103485  1
  Te  Te82  1  0.44341781  0.09795497  0.38149156  1
  Te  Te83  1  0.42758859  0.08521035  0.73972297  1
  Te  Te84  1  0.42245540  0.42724086  0.08452620  1
  Te  Te85  1  0.38888732  0.43817044  0.35623890  1
  Te  Te86  1  0.41686250  0.41023172  0.76083275  1
  Te  Te87  1  0.40481220  0.76686173  0.09341958  1
  Te  Te88  1  0.42072432  0.74041678  0.42320830  1
  Te  Te89  1  0.42091611  0.77592332  0.74714437  1
  Te  Te90  1  0.76356353  0.09803878  0.08447365  1
  Te  Te91  1  0.73239898  0.08549990  0.40102424  1
  Te  Te92  1  0.76094064  0.07893029  0.74623846  1
  Te  Te93  1  0.75254780  0.42684489  0.09408995  1
  Te  Te94  1  0.74931011  0.41376774  0.43414621  1
  Te  Te95  1  0.75843743  0.42406133  0.71424536  1
  Te  Te96  1  0.73443860  0.75818240  0.09905940  1
  Te  Te97  1  0.75371170  0.73986716  0.42057946  1
  Te  Te98  1  0.72248427  0.73754617  0.71315317  1
  Te  Te99  1  0.06116916  0.24671467  0.25795011  1
  Te  Te100  1  0.08512678  0.26853157  0.59180509  1
  Te  Te101  1  0.05199689  0.25794401  0.93058409  1
  Te  Te102  1  0.11139017  0.59460987  0.24119865  1
  Te  Te103  1  0.08792057  0.56187597  0.58273056  1
  Te  Te104  1  0.08415491  0.59052346  0.92206663  1
  Te  Te105  1  0.08514702  0.93390092  0.25559750  1
  Te  Te106  1  0.09060120  0.91537689  0.57703105  1
  Te  Te107  1  0.06739711  0.90894883  0.90298970  1
  Te  Te108  1  0.44220989  0.23475700  0.29832973  1
  Te  Te109  1  0.43351028  0.27434055  0.54314306  1
  Te  Te110  1  0.42837188  0.25984655  0.90575497  1
  Te  Te111  1  0.43391897  0.57708756  0.26639660  1
  Te  Te112  1  0.42160779  0.57564138  0.57804786  1
  Te  Te113  1  0.42630808  0.56787703  0.91092131  1
  Te  Te114  1  0.39562126  0.92025412  0.24191524  1
  Te  Te115  1  0.43373053  0.91154652  0.58270427  1
  Te  Te116  1  0.43565153  0.92119603  0.89650544  1
  Te  Te117  1  0.74744113  0.25969272  0.25394669  1
  Te  Te118  1  0.74439000  0.23382232  0.54604087  1
  Te  Te119  1  0.75153137  0.23537351  0.92718107  1
  Te  Te120  1  0.73507380  0.57385748  0.24336484  1
  Te  Te121  1  0.75089283  0.62623946  0.60704843  1
  Te  Te122  1  0.76750354  0.57871887  0.92239387  1
  Te  Te123  1  0.72379653  0.92586481  0.24801407  1
  Te  Te124  1  0.75670737  0.92375954  0.59775854  1
  Te  Te125  1  0.73537051  0.90766839  0.89436630  1
  Te  Te126  1  0.24521440  0.25738075  0.09047372  1
  Te  Te127  1  0.25892807  0.23263173  0.43432801  1
  Te  Te128  1  0.24775208  0.23583953  0.74937183  1
  Te  Te129  1  0.26215877  0.58748955  0.09072919  1
  Te  Te130  1  0.27660175  0.55045653  0.43112259  1
  Te  Te131  1  0.25188392  0.56949932  0.74096650  1
  Te  Te132  1  0.23721005  0.92434376  0.09331710  1
  Te  Te133  1  0.27708867  0.94097275  0.40602084  1
  Te  Te134  1  0.25204648  0.92466431  0.76651447  1
  Te  Te135  1  0.58135621  0.25718123  0.10067278  1
  Te  Te136  1  0.54342215  0.24036913  0.42985425  1
  Te  Te137  1  0.57476251  0.26871979  0.74902498  1
  Te  Te138  1  0.57563919  0.56370243  0.07811379  1
  Te  Te139  1  0.58022563  0.55852940  0.41905770  1
  Te  Te140  1  0.59499101  0.58963359  0.74491508  1
  Te  Te141  1  0.58372957  0.92051767  0.08301389  1
  Te  Te142  1  0.58620366  0.92108816  0.42485341  1
  Te  Te143  1  0.53892356  0.89412755  0.76794876  1
  Te  Te144  1  0.94522022  0.26584691  0.04818289  1
  Te  Te145  1  0.89762027  0.27195718  0.43379019  1
  Te  Te146  1  0.92998784  0.27519734  0.73359345  1
  Te  Te147  1  0.90532737  0.56796794  0.07705474  1
  Te  Te148  1  0.90626476  0.57696522  0.44160305  1
  Te  Te149  1  0.91535382  0.57811750  0.75003583  1
  Te  Te150  1  0.90147625  0.91197054  0.07705340  1
  Te  Te151  1  0.92287699  0.93293057  0.40068788  1
  Te  Te152  1  0.90929385  0.89009279  0.73305108  1
  Te  Te153  1  0.24821748  0.07663213  0.24031364  1
  Te  Te154  1  0.28473920  0.10744645  0.56641904  1
  Te  Te155  1  0.24405900  0.06757506  0.92542940  1
  Te  Te156  1  0.27578221  0.37067100  0.28062143  1
  Te  Te157  1  0.25434957  0.42628911  0.58798816  1
  Te  Te158  1  0.25987676  0.42754379  0.89875179  1
  Te  Te159  1  0.24955273  0.75706647  0.24359102  1
  Te  Te160  1  0.24285011  0.73089416  0.57363394  1
  Te  Te161  1  0.26831952  0.76256319  0.90726785  1
  Te  Te162  1  0.57256037  0.07949118  0.27918474  1
  Te  Te163  1  0.60379072  0.08352414  0.59242433  1
  Te  Te164  1  0.57946617  0.06694178  0.89788208  1
  Te  Te165  1  0.59017495  0.42205085  0.26179448  1
  Te  Te166  1  0.57452824  0.41355372  0.55931189  1
  Te  Te167  1  0.57784215  0.41451450  0.90516941  1
  Te  Te168  1  0.58221363  0.75996731  0.24297827  1
  Te  Te169  1  0.58289522  0.76101532  0.61534818  1
  Te  Te170  1  0.60353915  0.75057017  0.90451181  1
  Te  Te171  1  0.93185698  0.10567348  0.23826806  1
  Te  Te172  1  0.92522502  0.09129306  0.58060600  1
  Te  Te173  1  0.91076520  0.08950444  0.92612080  1
  Te  Te174  1  0.91993610  0.40416788  0.25456656  1
  Te  Te175  1  0.88202412  0.40605247  0.61764413  1
  Te  Te176  1  0.90426680  0.40782532  0.93003341  1
  Te  Te177  1  0.92377372  0.74813514  0.25939016  1
  Te  Te178  1  0.88644433  0.73754994  0.58473676  1
  Te  Te179  1  0.92001759  0.75522319  0.89468641  1
