# generated using pymatgen
data_In2Te3
_symmetry_space_group_name_H-M   'P 1'
_cell_length_a   18.77847769
_cell_length_b   18.77496210
_cell_length_c   18.77536936
_cell_angle_alpha   89.92621107
_cell_angle_beta   89.94652937
_cell_angle_gamma   89.97372170
_symmetry_Int_Tables_number   1
_chemical_formula_structural   In2Te3
_chemical_formula_sum   'In72 Te108'
_cell_volume   6619.53291725
_cell_formula_units_Z   36
loop_
 _symmetry_equiv_pos_site_id
 _symmetry_equiv_pos_as_xyz
  1  'x, y, z'
loop_
 _atom_site_type_symbol
 _atom_site_label
 _atom_site_symmetry_multiplicity
 _atom_site_fract_x
 _atom_site_fract_y
 _atom_site_fract_z
 _atom_site_occupancy
  In  In0  1  0.00875500  0.84153103  0.18248707  1
  In  In1  1  0.83293509  0.31089361  0.80741014  1
  In  In2  1  0.67260383  0.33483578  0.66822435  1
  In  In3  1  0.49822745  0.04767069  0.16969238  1
  In  In4  1  0.01254481  0.34456372  0.00943387  1
  In  In5  1  0.70277791  0.00986469  0.37898157  1
  In  In6  1  0.85103375  0.82651753  0.65479479  1
  In  In7  1  0.51196999  0.49905248  0.68258716  1
  In  In8  1  0.31147843  0.66435198  0.65338157  1
  In  In9  1  0.51015039  0.82830921  0.66394756  1
  In  In10  1  -0.03242930  0.68405130  -0.02940755  1
  In  In11  1  0.84676214  0.15138955  0.00170623  1
  In  In12  1  0.64422471  0.36088139  -0.03773598  1
  In  In13  1  0.12574480  0.01002423  0.82713101  1
  In  In14  1  0.81485238  0.34679288  0.19773387  1
  In  In15  1  0.67244795  0.51010416  0.16503566  1
  In  In16  1  0.14675766  -0.01423894  0.50131599  1
  In  In17  1  -0.00442631  0.16783553  0.19564627  1
  In  In18  1  0.83334388  0.15201945  0.64989877  1
  In  In19  1  0.67326268  0.67169602  -0.02989645  1
  In  In20  1  0.15798168  0.49872482  0.00241495  1
  In  In21  1  0.85962614  0.50983012  0.36293394  1
  In  In22  1  -0.01781311  0.31533874  0.36844978  1
  In  In23  1  0.66418222  0.29288779  0.37024031  1
  In  In24  1  0.18421554  0.17726015  0.01296167  1
  In  In25  1  0.16357699  0.15331632  0.35009574  1
  In  In26  1  0.50827239  0.66726598  0.50376065  1
  In  In27  1  -0.02278603  0.17365033  0.81336531  1
  In  In28  1  0.67057215  0.14631715  0.81653069  1
  In  In29  1  0.15552334  0.66538487  0.18137145  1
  In  In30  1  0.51621576  0.00530118  0.52439684  1
  In  In31  1  0.51888065  0.66447616  0.15296610  1
  In  In32  1  0.48800483  0.49036047  0.32295410  1
  In  In33  1  0.16412330  0.84318828  -0.01991199  1
  In  In34  1  -0.00978317  0.83371157  0.50274361  1
  In  In35  1  0.49720983  0.85859091  0.34381863  1
  In  In36  1  0.32802195  0.81203151  0.18354202  1
  In  In37  1  0.32939987  0.18415711  0.83897967  1
  In  In38  1  -0.01975135  0.51181999  0.81651641  1
  In  In39  1  0.33660784  0.15398120  0.49613232  1
  In  In40  1  0.14575756  0.35061738  0.81151587  1
  In  In41  1  0.68019283  0.49616987  0.50701059  1
  In  In42  1  0.68246002  0.83088544  0.80979643  1
  In  In43  1  0.70208029  0.69613188  0.37586103  1
  In  In44  1  0.32254916  0.32071193  0.65817303  1
  In  In45  1  0.33527164  0.82395300  0.80563573  1
  In  In46  1  0.67333598  -0.00191541  -0.03342961  1
  In  In47  1  0.66526214  0.18690148  0.18002973  1
  In  In48  1  0.33113214  0.33339097  0.32049133  1
  In  In49  1  0.31522806  0.47391893  0.16852856  1
  In  In50  1  0.31524943  0.49497936  0.46966823  1
  In  In51  1  0.34934306  0.00618060  0.01806765  1
  In  In52  1  0.84957473  0.00377128  0.18100543  1
  In  In53  1  0.32345504  0.02243099  0.35713543  1
  In  In54  1  0.13255317  0.33034093  0.53142097  1
  In  In55  1  0.30502701  0.66404301  0.33698422  1
  In  In56  1  0.52411056  0.15692511  0.66961006  1
  In  In57  1  0.14840098  -0.00030143  0.19308115  1
  In  In58  1  0.82770701  0.52635607  -0.01230555  1
  In  In59  1  0.32774725  -0.00253315  0.64616832  1
  In  In60  1  0.14144278  0.80563807  0.66380823  1
  In  In61  1  0.54463681  0.83809112  -0.00949512  1
  In  In62  1  0.34531381  0.66450478  -0.02706623  1
  In  In63  1  0.00125227  0.66775273  0.35931693  1
  In  In64  1  0.32364125  0.51547555  0.80470910  1
  In  In65  1  0.49400331  0.33773138  0.17279231  1
  In  In66  1  0.67812562  0.82601348  0.16780012  1
  In  In67  1  0.33966963  0.32455056  0.00874938  1
  In  In68  1  0.01614243  -0.01566284  -0.02603542  1
  In  In69  1  0.85779448  0.66142955  0.16184473  1
  In  In70  1  0.85151023  0.51317029  0.64830637  1
  In  In71  1  0.51797302  -0.01485384  0.82871497  1
  Te  Te72  1  0.07327269  0.08535286  0.08108300  1
  Te  Te73  1  0.06097215  0.09043462  0.43592987  1
  Te  Te74  1  0.05897031  0.09014685  0.71892678  1
  Te  Te75  1  0.10642670  0.40535284  0.10573238  1
  Te  Te76  1  0.05832854  0.43017002  0.44015870  1
  Te  Te77  1  0.07252226  0.44197213  0.71849590  1
  Te  Te78  1  0.07501725  0.75068826  0.07040521  1
  Te  Te79  1  0.09763729  0.74591623  0.44357811  1
  Te  Te80  1  0.06012057  0.73975265  0.76859414  1
  Te  Te81  1  0.40880597  0.12498407  0.08137283  1
  Te  Te82  1  0.45291739  0.08972110  0.40852303  1
  Te  Te83  1  0.41230497  0.07501775  0.74962969  1
  Te  Te84  1  0.42748614  0.43473755  0.07495364  1
  Te  Te85  1  0.42630325  0.39825955  0.42491926  1
  Te  Te86  1  0.41235932  0.40212574  0.75068669  1
  Te  Te87  1  0.42442457  0.76305979  0.07360071  1
  Te  Te88  1  0.41626152  0.74537142  0.40925122  1
  Te  Te89  1  0.42576850  0.72235627  0.73765688  1
  Te  Te90  1  0.74413189  0.07790952  0.08913537  1
  Te  Te91  1  0.79090731  0.11549362  0.44388826  1
  Te  Te92  1  0.76901871  0.06118526  0.74793750  1
  Te  Te93  1  0.75523345  0.41204168  0.07183820  1
  Te  Te94  1  0.76243772  0.40512019  0.41790650  1
  Te  Te95  1  0.76126876  0.43015724  0.74694298  1
  Te  Te96  1  0.76425442  0.74470054  0.07361150  1
  Te  Te97  1  0.78812959  0.78323120  0.45999618  1
  Te  Te98  1  0.73892288  0.73771871  0.70691159  1
  Te  Te99  1  0.08839447  0.26179275  0.27055910  1
  Te  Te100  1  0.05833630  0.22956435  0.61039846  1
  Te  Te101  1  0.07987286  0.24092229  0.91279803  1
  Te  Te102  1  0.06628635  0.57855228  0.25840081  1
  Te  Te103  1  0.03594215  0.51763236  0.57131802  1
  Te  Te104  1  0.07516361  0.58807616  0.91175808  1
  Te  Te105  1  0.06216201  0.92914353  0.29136162  1
  Te  Te106  1  0.05876796  0.92167707  0.60894081  1
  Te  Te107  1  0.06176192  0.86634421  0.85938938  1
  Te  Te108  1  0.42894415  0.23968242  0.26193240  1
  Te  Te109  1  0.42818996  0.24073841  0.58298318  1
  Te  Te110  1  0.43125519  0.26059888  0.91172310  1
  Te  Te111  1  0.41189920  0.59363946  0.23775972  1
  Te  Te112  1  0.41255894  0.56957589  0.57338020  1
  Te  Te113  1  0.42651114  0.56672053  0.89965255  1
  Te  Te114  1  0.41038079  0.92921085  0.23860423  1
  Te  Te115  1  0.41266732  0.89828515  0.56894806  1
  Te  Te116  1  0.41011749  0.90823331  0.91385878  1
  Te  Te117  1  0.77550122  0.22566727  0.27848184  1
  Te  Te118  1  0.75832269  0.25754728  0.57367920  1
  Te  Te119  1  0.75105827  0.24037492  0.91985412  1
  Te  Te120  1  0.76160261  0.58997300  0.26065519  1
  Te  Te121  1  0.73682127  0.59855802  0.59860471  1
  Te  Te122  1  0.76682637  0.60142006  0.87716057  1
  Te  Te123  1  0.75422570  0.91528911  0.26383072  1
  Te  Te124  1  0.78008599  0.91472120  0.55551362  1
  Te  Te125  1  0.76293978  0.88962395  0.92294131  1
  Te  Te126  1  0.24123960  0.27411335  0.10872672  1
  Te  Te127  1  0.24249564  0.26155206  0.43454184  1
  Te  Te128  1  0.22462022  0.23812109  0.74263612  1
  Te  Te129  1  0.25690080  0.59859246  0.08313438  1
  Te  Te130  1  0.21499207  0.59974291  0.43677149  1
  Te  Te131  1  0.21545237  0.58693003  0.73534897  1
  Te  Te132  1  0.23963521  0.91527573  0.09314118  1
  Te  Te133  1  0.25543882  0.91475402  0.42885750  1
  Te  Te134  1  0.23561982  0.92180332  0.74326631  1
  Te  Te135  1  0.58933458  0.26638207  0.07504128  1
  Te  Te136  1  0.55918402  0.20888682  0.42535084  1
  Te  Te137  1  0.58206618  0.26005865  0.76668315  1
  Te  Te138  1  0.58817757  0.57220077  0.05358892  1
  Te  Te139  1  0.58713638  0.57646012  0.40323565  1
  Te  Te140  1  0.61110938  0.56676544  0.76800401  1
  Te  Te141  1  0.58609681  0.93181997  0.10174877  1
  Te  Te142  1  0.60203481  0.90649736  0.44126660  1
  Te  Te143  1  0.60832250  0.93296091  0.71971095  1
  Te  Te144  1  0.91271918  0.25296075  0.09543331  1
  Te  Te145  1  0.90475617  0.22496564  0.45883904  1
  Te  Te146  1  0.93974961  0.27740646  0.70215641  1
  Te  Te147  1  0.94181581  0.56719661  0.07855825  1
  Te  Te148  1  0.90160051  0.61435465  0.46055844  1
  Te  Te149  1  0.93567731  0.62237457  0.72193248  1
  Te  Te150  1  0.92368904  0.91601952  0.07834725  1
  Te  Te151  1  0.87963162  0.90797300  0.43172152  1
  Te  Te152  1  0.92169742  0.88495644  0.77337161  1
  Te  Te153  1  0.25645805  0.09667788  0.24140397  1
  Te  Te154  1  0.22857498  0.09271447  0.58331691  1
  Te  Te155  1  0.24573378  0.06962791  0.91434138  1
  Te  Te156  1  0.23870784  0.44657549  0.29093944  1
  Te  Te157  1  0.24135181  0.42651348  0.58688575  1
  Te  Te158  1  0.24580176  0.41060659  0.91140535  1
  Te  Te159  1  0.21346955  0.77334807  0.27364273  1
  Te  Te160  1  0.23911196  0.75737107  0.56295268  1
  Te  Te161  1  0.24051681  0.74008946  0.89312273  1
  Te  Te162  1  0.61023868  0.07487731  0.26873052  1
  Te  Te163  1  0.62173469  0.09557402  0.57725618  1
  Te  Te164  1  0.56484948  0.09326963  0.92443593  1
  Te  Te165  1  0.60683814  0.40673929  0.25909581  1
  Te  Te166  1  0.57492626  0.40903665  0.57477599  1
  Te  Te167  1  0.58383178  0.45943398  0.87005841  1
  Te  Te168  1  0.58461844  0.74887792  0.26280696  1
  Te  Te169  1  0.60573824  0.73756573  0.59168180  1
  Te  Te170  1  0.57117321  0.74253513  0.87863033  1
  Te  Te171  1  0.94352123  0.05876749  0.28360082  1
  Te  Te172  1  0.90780693  0.07785325  0.54194973  1
  Te  Te173  1  0.90715799  0.06183235  0.89548259  1
  Te  Te174  1  0.93000842  0.41984206  0.25931650  1
  Te  Te175  1  0.92152251  0.42416936  0.54950998  1
  Te  Te176  1  0.91233063  0.40297480  0.90962674  1
  Te  Te177  1  0.91208884  0.75749932  0.26571622  1
  Te  Te178  1  0.94368552  0.71826295  0.59320345  1
  Te  Te179  1  0.88963409  0.77715723  0.88345973  1
