# generated using pymatgen
data_In2Te3
_symmetry_space_group_name_H-M   'P 1'
_cell_length_a   18.77196898
_cell_length_b   18.76352743
_cell_length_c   18.76500237
_cell_angle_alpha   90.04349057
_cell_angle_beta   90.03577761
_cell_angle_gamma   90.06138779
_symmetry_Int_Tables_number   1
_chemical_formula_structural   In2Te3
_chemical_formula_sum   'In72 Te108'
_cell_volume   6609.55892652
_cell_formula_units_Z   36
loop_
 _symmetry_equiv_pos_site_id
 _symmetry_equiv_pos_as_xyz
  1  'x, y, z'
loop_
 _atom_site_type_symbol
 _atom_site_label
 _atom_site_symmetry_multiplicity
 _atom_site_fract_x
 _atom_site_fract_y
 _atom_site_fract_z
 _atom_site_occupancy
  In  In0  1  0.33041402  0.63424877  0.02517215  1
  In  In1  1  0.15362788  0.01495793  0.15838193  1
  In  In2  1  0.31140056  0.00525917  -0.01393011  1
  In  In3  1  0.66026399  0.49448502  0.49883388  1
  In  In4  1  0.13246623  0.05344574  0.80658215  1
  In  In5  1  0.50882749  0.00908602  0.85328929  1
  In  In6  1  0.49336662  0.82838983  0.66048803  1
  In  In7  1  0.65984456  0.65348798  0.69054065  1
  In  In8  1  0.50149932  0.63569921  0.48742797  1
  In  In9  1  0.31506317  0.01441407  0.66306177  1
  In  In10  1  0.66235362  0.34327692  0.68016614  1
  In  In11  1  0.83744001  0.48792004  0.32369985  1
  In  In12  1  0.49589008  0.19878532  0.00688730  1
  In  In13  1  -0.00277795  0.65873828  0.31739748  1
  In  In14  1  0.01671625  0.65586528  -0.01119421  1
  In  In15  1  0.15364038  0.64557139  0.83763485  1
  In  In16  1  0.67743570  0.81360667  0.84601491  1
  In  In17  1  0.50058056  0.63782102  0.14619796  1
  In  In18  1  0.85435381  0.18720206  0.00702358  1
  In  In19  1  0.15005732  0.31774891  0.49153368  1
  In  In20  1  0.00379020  0.02016764  0.30585747  1
  In  In21  1  0.01384619  0.46960195  0.48835227  1
  In  In22  1  0.17854102  0.02794176  0.50272447  1
  In  In23  1  0.67654914  0.32918223  0.02398199  1
  In  In24  1  0.17712298  0.64661233  0.16975664  1
  In  In25  1  0.86819566  0.30557140  0.48489265  1
  In  In26  1  0.32540439  0.83402395  0.48304179  1
  In  In27  1  0.15847084  0.49519603  0.66141355  1
  In  In28  1  0.01721769  0.85086914  0.48679809  1
  In  In29  1  0.33301350  0.46927916  0.84874190  1
  In  In30  1  0.49217886  0.01393149  0.18211179  1
  In  In31  1  0.31374852  0.20366120  0.15758345  1
  In  In32  1  0.64228475  0.64505956  0.02340147  1
  In  In33  1  0.68792554  0.03820281  0.01839871  1
  In  In34  1  0.36275061  0.63213011  0.63849353  1
  In  In35  1  0.69317570  0.00012099  0.66885875  1
  In  In36  1  0.84358129  0.46233136  0.00638388  1
  In  In37  1  0.65315194  0.82589740  0.17476686  1
  In  In38  1  0.68637624  0.00830634  0.34399528  1
  In  In39  1  0.84828456  0.85405011  0.00003600  1
  In  In40  1  0.85056201  0.03563458  0.15826935  1
  In  In41  1  0.15003865  0.19536732  0.30679625  1
  In  In42  1  0.16082940  0.84774999  0.64724759  1
  In  In43  1  -0.01652469  0.66605971  0.67623569  1
  In  In44  1  0.66214245  0.49633265  0.83115073  1
  In  In45  1  0.84637206  0.18281666  0.67695965  1
  In  In46  1  0.81565168  0.67129689  0.50789392  1
  In  In47  1  0.66170851  0.33525399  0.29749584  1
  In  In48  1  0.33272235  0.81988462  0.81449925  1
  In  In49  1  -0.01014260  0.86948475  0.83244567  1
  In  In50  1  0.47984989  0.47328233  0.01555376  1
  In  In51  1  0.31261486  0.19062795  0.84967577  1
  In  In52  1  0.17267774  0.83558008  0.01688384  1
  In  In53  1  0.49665180  0.19148597  0.66828966  1
  In  In54  1  0.33624215  0.35363062  0.32611712  1
  In  In55  1  0.00990127  0.48085978  0.86487524  1
  In  In56  1  0.50960993  0.80660266  0.01453433  1
  In  In57  1  0.66925444  0.84856969  0.49450267  1
  In  In58  1  0.18783443  0.65135131  0.47192379  1
  In  In59  1  0.34630968  -0.00780268  0.33678863  1
  In  In60  1  0.83194945  0.83431691  0.34658444  1
  In  In61  1  0.48504532  0.16854859  0.34410857  1
  In  In62  1  -0.00296262  0.02948354  0.01268486  1
  In  In63  1  0.33804263  0.63299583  0.31456502  1
  In  In64  1  0.01061092  0.47012604  0.16552340  1
  In  In65  1  0.00079712  0.34018291  0.66976146  1
  In  In66  1  0.66103307  0.18002566  0.47054460  1
  In  In67  1  0.85609765  0.03363060  0.82911862  1
  In  In68  1  0.33469530  0.33093931  0.67836950  1
  In  In69  1  0.52094568  0.01433846  0.46973427  1
  In  In70  1  0.81988725  0.65189187  0.17797054  1
  In  In71  1  0.81632068  0.65956915  0.81775860  1
  Te  Te72  1  0.06532596  0.12854059  0.10749461  1
  Te  Te73  1  0.08061570  0.10474152  0.41185707  1
  Te  Te74  1  0.04002223  0.11598869  0.70646282  1
  Te  Te75  1  0.06206418  0.38179629  0.05506076  1
  Te  Te76  1  0.08690889  0.39902784  0.38338077  1
  Te  Te77  1  0.10283300  0.40404569  0.76832444  1
  Te  Te78  1  0.07986503  0.74444931  0.09610397  1
  Te  Te79  1  0.09161233  0.74728516  0.40126676  1
  Te  Te80  1  0.08525565  0.75806667  0.75741982  1
  Te  Te81  1  0.40696357  0.08825488  0.07565718  1
  Te  Te82  1  0.39435390  0.09332504  0.44180222  1
  Te  Te83  1  0.40670588  0.08450292  0.76821754  1
  Te  Te84  1  0.37803131  0.42805098  0.11796651  1
  Te  Te85  1  0.40586198  0.45148300  0.41639266  1
  Te  Te86  1  0.43050550  0.42164799  0.74898703  1
  Te  Te87  1  0.39829597  0.74883948  0.09955321  1
  Te  Te88  1  0.41370438  0.73556616  0.40968311  1
  Te  Te89  1  0.42949494  0.72276524  0.74962854  1
  Te  Te90  1  0.74193179  0.14240272  0.11871562  1
  Te  Te91  1  0.77145482  0.08893721  0.43459825  1
  Te  Te92  1  0.73921597  0.10845538  0.76359178  1
  Te  Te93  1  0.77431512  0.39543404  0.11740730  1
  Te  Te94  1  0.75744531  0.39510529  0.41841475  1
  Te  Te95  1  0.76361523  0.41646063  0.76078760  1
  Te  Te96  1  0.75098322  0.75263104  0.07016016  1
  Te  Te97  1  0.72831699  0.73769945  0.40200999  1
  Te  Te98  1  0.75932790  0.76802183  0.72556350  1
  Te  Te99  1  0.07446064  0.27249098  0.20446568  1
  Te  Te100  1  0.06253149  0.23406170  0.58250660  1
  Te  Te101  1  0.11925393  0.28605129  0.94327479  1
  Te  Te102  1  0.09485165  0.55567957  0.26380280  1
  Te  Te103  1  0.07959922  0.59508813  0.57633055  1
  Te  Te104  1  0.11918883  0.54899245  0.94998978  1
  Te  Te105  1  0.08903023  0.91526507  0.24653238  1
  Te  Te106  1  0.07032199  0.95192375  0.59016860  1
  Te  Te107  1  0.08887987  0.93157838  0.92968241  1
  Te  Te108  1  0.43068618  0.26320716  0.23599795  1
  Te  Te109  1  0.40880058  0.25629162  0.57128602  1
  Te  Te110  1  0.40377038  0.28434664  0.92458819  1
  Te  Te111  1  0.42314177  0.53659973  0.23218150  1
  Te  Te112  1  0.42942284  0.52150587  0.55903942  1
  Te  Te113  1  0.42069887  0.57673076  0.91827470  1
  Te  Te114  1  0.42734881  0.90203766  0.25279060  1
  Te  Te115  1  0.41146528  0.92471854  0.57534053  1
  Te  Te116  1  0.41519925  0.90292646  0.91971264  1
  Te  Te117  1  0.74710582  0.22283798  0.25497157  1
  Te  Te118  1  0.74834412  0.25218765  0.57822651  1
  Te  Te119  1  0.75645513  0.25720788  0.92087009  1
  Te  Te120  1  0.73135132  0.57644802  0.26753757  1
  Te  Te121  1  0.75157650  0.56962718  0.60060350  1
  Te  Te122  1  0.75752005  0.57955465  0.93524946  1
  Te  Te123  1  0.75939091  0.92401777  0.23113775  1
  Te  Te124  1  0.76895130  0.93444543  0.56058900  1
  Te  Te125  1  0.74840310  0.93455449  0.91313875  1
  Te  Te126  1  0.22757643  0.26869847  0.05678951  1
  Te  Te127  1  0.25623575  0.24901949  0.40299536  1
  Te  Te128  1  0.22948401  0.24096351  0.73724614  1
  Te  Te129  1  0.24768802  0.53060835  0.09917386  1
  Te  Te130  1  0.27076181  0.54063994  0.41698079  1
  Te  Te131  1  0.25791407  0.57774505  0.74774191  1
  Te  Te132  1  0.26485114  0.91970458  0.10399363  1
  Te  Te133  1  0.22763004  0.91974597  0.40475785  1
  Te  Te134  1  0.23497977  0.92875936  0.76575731  1
  Te  Te135  1  0.56720468  0.27402706  0.11210704  1
  Te  Te136  1  0.56369210  0.27967953  0.41300561  1
  Te  Te137  1  0.57551459  0.26121339  0.76983937  1
  Te  Te138  1  0.60368854  0.52158657  0.10719000  1
  Te  Te139  1  0.58172151  0.55754161  0.38754564  1
  Te  Te140  1  0.56071922  0.55429429  0.73785953  1
  Te  Te141  1  0.58684411  0.93133923  0.07210723  1
  Te  Te142  1  0.57558020  0.90216461  0.38608224  1
  Te  Te143  1  0.58111634  0.91478532  0.75253463  1
  Te  Te144  1  0.95341310  0.24288506  0.10515769  1
  Te  Te145  1  0.94369658  0.21869684  0.39314458  1
  Te  Te146  1  0.91444741  0.27491420  0.77428653  1
  Te  Te147  1  0.92251579  0.58034895  0.08780711  1
  Te  Te148  1  0.91603199  0.58507144  0.42547802  1
  Te  Te149  1  0.91969317  0.55980831  0.76295487  1
  Te  Te150  1  0.93839853  0.91973636  0.10264463  1
  Te  Te151  1  0.91906916  0.94020778  0.41109481  1
  Te  Te152  1  0.89663513  0.92575003  0.73534050  1
  Te  Te153  1  0.25959936  0.09081646  0.25002835  1
  Te  Te154  1  0.24053670  0.12480192  0.59905327  1
  Te  Te155  1  0.21222949  0.10442221  0.93035395  1
  Te  Te156  1  0.25268844  0.40991055  0.21384414  1
  Te  Te157  1  0.24252850  0.40927850  0.57241270  1
  Te  Te158  1  0.25544607  0.36997001  0.93075559  1
  Te  Te159  1  0.25022350  0.73840212  0.25944976  1
  Te  Te160  1  0.25609071  0.74120178  0.59263436  1
  Te  Te161  1  0.24962254  0.73932355  0.92307299  1
  Te  Te162  1  0.59222179  0.09775382  0.25965000  1
  Te  Te163  1  0.58632306  0.08456401  0.58740788  1
  Te  Te164  1  0.59419904  0.11416369  0.92271155  1
  Te  Te165  1  0.57622679  0.44448439  0.24337722  1
  Te  Te166  1  0.57160029  0.40716499  0.57950992  1
  Te  Te167  1  0.58309267  0.40535632  0.92422665  1
  Te  Te168  1  0.57574441  0.72231437  0.24352000  1
  Te  Te169  1  0.58571230  0.74043343  0.57556873  1
  Te  Te170  1  0.57482501  0.71901200  0.90561078  1
  Te  Te171  1  0.89969872  0.12915501  0.27066938  1
  Te  Te172  1  0.93700331  0.09917512  0.59590513  1
  Te  Te173  1  0.95506419  0.12383145  0.90194237  1
  Te  Te174  1  0.91763683  0.38862964  0.25010118  1
  Te  Te175  1  0.90525900  0.42180244  0.58135854  1
  Te  Te176  1  0.91929649  0.37048159  0.91460091  1
  Te  Te177  1  0.91180862  0.75858305  0.23993680  1
  Te  Te178  1  0.92296420  0.76062133  0.57203990  1
  Te  Te179  1  0.91763633  0.74491145  0.90751516  1
