# generated using pymatgen
data_In2Te3
_symmetry_space_group_name_H-M   'P 1'
_cell_length_a   18.76052874
_cell_length_b   18.77719078
_cell_length_c   18.77382418
_cell_angle_alpha   89.96210417
_cell_angle_beta   90.00079126
_cell_angle_gamma   90.01696377
_symmetry_Int_Tables_number   1
_chemical_formula_structural   In2Te3
_chemical_formula_sum   'In72 Te108'
_cell_volume   6613.45381720
_cell_formula_units_Z   36
loop_
 _symmetry_equiv_pos_site_id
 _symmetry_equiv_pos_as_xyz
  1  'x, y, z'
loop_
 _atom_site_type_symbol
 _atom_site_label
 _atom_site_symmetry_multiplicity
 _atom_site_fract_x
 _atom_site_fract_y
 _atom_site_fract_z
 _atom_site_occupancy
  In  In0  1  0.68063515  -0.01856151  0.66922118  1
  In  In1  1  0.50602436  0.49838425  0.34097706  1
  In  In2  1  -0.01996553  0.50565766  0.14694278  1
  In  In3  1  0.17526588  0.34663736  0.78496317  1
  In  In4  1  0.16705714  0.35773522  0.55725228  1
  In  In5  1  0.32122747  -0.00868483  0.66052613  1
  In  In6  1  0.52586089  0.03526278  0.83204196  1
  In  In7  1  0.69044826  0.16740772  0.14329328  1
  In  In8  1  -0.00614895  -0.01130959  0.66965825  1
  In  In9  1  0.68573183  0.81201249  0.16081430  1
  In  In10  1  0.00008639  0.34089772  0.35611881  1
  In  In11  1  0.66339646  0.48845008  0.82606052  1
  In  In12  1  0.84832211  0.69111968  0.85735217  1
  In  In13  1  0.81582245  0.56781687  0.32934516  1
  In  In14  1  0.16739713  0.52323142  -0.01834868  1
  In  In15  1  0.81165801  0.78863506  0.34042270  1
  In  In16  1  0.34767533  0.83249540  0.82181224  1
  In  In17  1  0.68138912  0.83043649  0.84922799  1
  In  In18  1  0.65460739  0.49852539  0.50143607  1
  In  In19  1  0.53265165  0.53562433  0.00898776  1
  In  In20  1  0.49996325  0.64610636  0.52405616  1
  In  In21  1  0.33654834  0.82005239  0.15535805  1
  In  In22  1  0.49340190  0.35529736  0.54001838  1
  In  In23  1  0.15310653  0.01085091  0.83501718  1
  In  In24  1  0.84582939  0.50116908  -0.01279881  1
  In  In25  1  0.82833387  0.50209179  0.66505946  1
  In  In26  1  0.34711832  0.67255159  -0.00209380  1
  In  In27  1  0.15598503  0.68140252  0.16804159  1
  In  In28  1  0.84138021  0.14182130  -0.01143265  1
  In  In29  1  0.51793217  0.82590804  0.35010905  1
  In  In30  1  0.84303185  -0.01572903  0.83568561  1
  In  In31  1  0.85076196  0.34067758  0.51953460  1
  In  In32  1  0.32285503  0.34353838  0.35339151  1
  In  In33  1  0.13244783  0.17202584  -0.01468191  1
  In  In34  1  0.48494987  0.67677387  0.81487963  1
  In  In35  1  0.01241694  0.19466636  0.51849255  1
  In  In36  1  0.12990717  0.82936619  0.35987658  1
  In  In37  1  0.68440009  0.65245948  0.67002566  1
  In  In38  1  0.33347860  0.15565322  0.51118449  1
  In  In39  1  0.50589931  0.16602848  -0.04086219  1
  In  In40  1  0.30313860  0.01084139  0.34201259  1
  In  In41  1  0.68000445  0.16098042  0.52162327  1
  In  In42  1  0.15214855  0.64470980  0.80516954  1
  In  In43  1  0.16586413  0.15699925  0.33730969  1
  In  In44  1  0.68028979  0.18132323  0.83702294  1
  In  In45  1  0.83475242  0.00234268  0.50659413  1
  In  In46  1  0.50654043  -0.02184973  0.16723581  1
  In  In47  1  -0.03290966  0.81298940  0.16092494  1
  In  In48  1  0.49291856  0.17175328  0.66347766  1
  In  In49  1  0.32905739  0.15957508  0.17180820  1
  In  In50  1  0.34718112  0.65333833  0.34126785  1
  In  In51  1  0.34751433  0.34479519  -0.00558182  1
  In  In52  1  0.47635243  0.36007887  0.79793376  1
  In  In53  1  0.50914061  0.81659212  0.00426736  1
  In  In54  1  -0.00939748  0.13697085  0.14288970  1
  In  In55  1  0.51296360  0.35994832  0.16271148  1
  In  In56  1  0.17406135  -0.00263895  0.50927525  1
  In  In57  1  0.67152027  -0.02745667  0.33007352  1
  In  In58  1  0.82958359  0.33833333  0.16588144  1
  In  In59  1  0.69140519  0.32207331  -0.02083590  1
  In  In60  1  0.16775869  0.49181673  0.34515583  1
  In  In61  1  -0.00146637  0.81397623  0.50101611  1
  In  In62  1  0.31768202  0.00789026  -0.01374063  1
  In  In63  1  0.49172907  0.15979917  0.33995653  1
  In  In64  1  0.48497026  0.81447469  0.66695394  1
  In  In65  1  0.66502110  0.33688541  0.35066721  1
  In  In66  1  0.14179336  0.83992680  -0.02294175  1
  In  In67  1  0.17648400  0.33702509  0.18870327  1
  In  In68  1  -0.00768452  -0.01080599  0.30765204  1
  In  In69  1  0.18165979  0.67410806  0.54756474  1
  In  In70  1  0.00965598  0.34694865  -0.03070419  1
  In  In71  1  -0.00490251  0.67821182  0.66609474  1
  Te  Te72  1  0.08623002  0.05715229  0.06615730  1
  Te  Te73  1  0.06882476  0.07156890  0.42336197  1
  Te  Te74  1  0.07435308  0.09278845  0.73908439  1
  Te  Te75  1  0.09220371  0.41318762  0.08491723  1
  Te  Te76  1  0.07414433  0.43149038  0.45040059  1
  Te  Te77  1  0.06565217  0.41973919  0.71302266  1
  Te  Te78  1  0.06508753  0.73742028  0.06148654  1
  Te  Te79  1  0.07245009  0.70330424  0.42257572  1
  Te  Te80  1  0.07874275  0.76214308  0.75682837  1
  Te  Te81  1  0.42521282  0.08224291  0.07846068  1
  Te  Te82  1  0.42083020  0.05997148  0.43032144  1
  Te  Te83  1  0.40539087  0.08318467  0.75286754  1
  Te  Te84  1  0.42125690  0.44768029  0.07958874  1
  Te  Te85  1  0.40738219  0.43586949  0.44029719  1
  Te  Te86  1  0.38929412  0.45905872  0.72304697  1
  Te  Te87  1  0.44351356  0.72356713  0.10691268  1
  Te  Te88  1  0.42033810  0.74615771  0.43725392  1
  Te  Te89  1  0.36652655  0.71617275  0.71691073  1
  Te  Te90  1  0.78023649  0.05989902  0.09762657  1
  Te  Te91  1  0.74600075  0.08436527  0.40999604  1
  Te  Te92  1  0.75958158  0.08228443  0.74960880  1
  Te  Te93  1  0.74271513  0.42721267  0.07746833  1
  Te  Te94  1  0.76866990  0.42854413  0.41684171  1
  Te  Te95  1  0.75877166  0.39647236  0.75049390  1
  Te  Te96  1  0.75938061  0.70695558  0.08289354  1
  Te  Te97  1  0.72899338  0.70303142  0.42697705  1
  Te  Te98  1  0.76585486  0.75959328  0.74390733  1
  Te  Te99  1  0.06879835  0.24664719  0.24982774  1
  Te  Te100  1  0.06989631  0.27044717  0.63526544  1
  Te  Te101  1  0.07331361  0.25219361  0.87120682  1
  Te  Te102  1  0.08320352  0.56977618  0.24244910  1
  Te  Te103  1  0.08604337  0.57642252  0.60323978  1
  Te  Te104  1  0.05814264  0.58317604  0.90448070  1
  Te  Te105  1  0.08293696  0.89583504  0.23115609  1
  Te  Te106  1  0.09083806  0.89852205  0.58938461  1
  Te  Te107  1  0.04689283  0.92899117  0.90385324  1
  Te  Te108  1  0.41679575  0.26661500  0.25097576  1
  Te  Te109  1  0.38025599  0.26917777  0.60769036  1
  Te  Te110  1  0.40493737  0.25436319  0.88500020  1
  Te  Te111  1  0.42831754  0.57871745  0.24325632  1
  Te  Te112  1  0.41068440  0.54997245  0.59448129  1
  Te  Te113  1  0.42020479  0.57284484  0.90911662  1
  Te  Te114  1  0.40235248  0.91736789  0.25973145  1
  Te  Te115  1  0.41276898  0.90925105  0.57826069  1
  Te  Te116  1  0.42764049  0.92156827  0.92164587  1
  Te  Te117  1  0.75085152  0.24671897  0.25996057  1
  Te  Te118  1  0.76262185  0.25253794  0.60760408  1
  Te  Te119  1  0.80520844  0.26272395  0.89201112  1
  Te  Te120  1  0.73753734  0.61822220  0.21337189  1
  Te  Te121  1  0.77029579  0.59434873  0.55636396  1
  Te  Te122  1  0.74414561  0.58607604  0.90755034  1
  Te  Te123  1  0.77585079  0.90323593  0.24463826  1
  Te  Te124  1  0.75549272  0.89785625  0.57388113  1
  Te  Te125  1  0.77328885  0.90125059  0.94446250  1
  Te  Te126  1  0.24777499  0.25277578  0.07556730  1
  Te  Te127  1  0.22592117  0.25871164  0.43603863  1
  Te  Te128  1  0.26360746  0.25218319  0.71403739  1
  Te  Te129  1  0.25229657  0.59171818  0.08819712  1
  Te  Te130  1  0.24815534  0.58553678  0.43461943  1
  Te  Te131  1  0.24731151  0.55151019  0.73835155  1
  Te  Te132  1  0.24235440  0.90835830  0.07437573  1
  Te  Te133  1  0.25153367  0.89478405  0.42757802  1
  Te  Te134  1  0.23357699  0.90757354  0.75332513  1
  Te  Te135  1  0.57755052  0.24943550  0.07665406  1
  Te  Te136  1  0.56711927  0.25371358  0.43648427  1
  Te  Te137  1  0.58381118  0.26073218  0.74710158  1
  Te  Te138  1  0.62835577  0.60844876  0.09736875  1
  Te  Te139  1  0.59822268  0.60499204  0.40404247  1
  Te  Te140  1  0.57225841  0.57458713  0.73801694  1
  Te  Te141  1  0.60586283  0.91283541  0.07402061  1
  Te  Te142  1  0.59183983  0.91648320  0.43936540  1
  Te  Te143  1  0.57250572  0.90346067  0.76144436  1
  Te  Te144  1  0.92144051  0.26021337  0.07208584  1
  Te  Te145  1  0.90538403  0.23812224  0.41760591  1
  Te  Te146  1  0.85710608  0.27528253  0.73761899  1
  Te  Te147  1  0.89542284  0.60890146  0.08114772  1
  Te  Te148  1  0.93563029  0.61561913  0.39952103  1
  Te  Te149  1  0.91040518  0.58848595  0.76046829  1
  Te  Te150  1  0.90322510  0.89957824  0.05725111  1
  Te  Te151  1  0.91162251  0.90360736  0.40703301  1
  Te  Te152  1  0.90858225  0.89075744  0.74088396  1
  Te  Te153  1  0.22019140  0.06673884  0.22551366  1
  Te  Te154  1  0.22429526  0.10415168  0.60529961  1
  Te  Te155  1  0.24947044  0.11225929  0.90251928  1
  Te  Te156  1  0.27334153  0.43995075  0.24434259  1
  Te  Te157  1  0.26497478  0.45946869  0.61180150  1
  Te  Te158  1  0.24750742  0.41873928  0.90503507  1
  Te  Te159  1  0.24900387  0.75523305  0.26526471  1
  Te  Te160  1  0.27859810  0.77056994  0.60138871  1
  Te  Te161  1  0.24954710  0.74721006  0.90848149  1
  Te  Te162  1  0.58574689  0.08682528  0.24402821  1
  Te  Te163  1  0.57940799  0.06916417  0.58926561  1
  Te  Te164  1  0.62840651  0.07484598  0.93691916  1
  Te  Te165  1  0.61356344  0.43663083  0.24628497  1
  Te  Te166  1  0.60637195  0.41528687  0.61333448  1
  Te  Te167  1  0.57347747  0.40630512  0.92202634  1
  Te  Te168  1  0.58706361  0.74436381  0.24961225  1
  Te  Te169  1  0.59568688  0.74845071  0.58713895  1
  Te  Te170  1  0.59232887  0.72530959  0.91618699  1
  Te  Te171  1  0.89822567  0.08404566  0.24452585  1
  Te  Te172  1  0.91569053  0.09903338  0.59164810  1
  Te  Te173  1  0.94172412  0.07754216  0.90109842  1
  Te  Te174  1  0.91159816  0.42651451  0.26139239  1
  Te  Te175  1  0.94384151  0.42239836  0.60673858  1
  Te  Te176  1  0.93084042  0.43666881  0.88298041  1
  Te  Te177  1  0.92543138  0.71637085  0.26971837  1
  Te  Te178  1  0.89386948  0.74946607  0.58225567  1
  Te  Te179  1  0.91357637  0.79568911  0.94374800  1
