# generated using pymatgen
data_In2Te3
_symmetry_space_group_name_H-M   'P 1'
_cell_length_a   18.74876953
_cell_length_b   18.75276022
_cell_length_c   18.75133803
_cell_angle_alpha   90.07315753
_cell_angle_beta   89.98953082
_cell_angle_gamma   90.10917908
_symmetry_Int_Tables_number   1
_chemical_formula_structural   In2Te3
_chemical_formula_sum   'In72 Te108'
_cell_volume   6592.78760169
_cell_formula_units_Z   36
loop_
 _symmetry_equiv_pos_site_id
 _symmetry_equiv_pos_as_xyz
  1  'x, y, z'
loop_
 _atom_site_type_symbol
 _atom_site_label
 _atom_site_symmetry_multiplicity
 _atom_site_fract_x
 _atom_site_fract_y
 _atom_site_fract_z
 _atom_site_occupancy
  In  In0  1  0.00866715  0.80569442  0.52892109  1
  In  In1  1  0.50783325  0.49352182  0.66512694  1
  In  In2  1  0.81162496  0.17829413  0.32423192  1
  In  In3  1  0.32773723  0.66899027  0.36031111  1
  In  In4  1  0.83682230  0.50185164  0.36791362  1
  In  In5  1  0.18306590  0.19186465  0.33274393  1
  In  In6  1  0.63701676  0.19166538  0.50159905  1
  In  In7  1  0.66581330  0.35068102  -0.00506177  1
  In  In8  1  0.67018750  0.66491479  0.66133918  1
  In  In9  1  0.48264230  0.00240881  0.82296065  1
  In  In10  1  0.83413215  0.15728228  0.65330637  1
  In  In11  1  0.00370300  0.51965075  0.81567432  1
  In  In12  1  0.00052606  0.15993612  0.50931701  1
  In  In13  1  0.66486653  0.82180051  0.83076834  1
  In  In14  1  0.01147301  0.34151237  0.35124563  1
  In  In15  1  0.01529490  0.32895050  -0.02246916  1
  In  In16  1  0.65325682  0.48508359  0.16185914  1
  In  In17  1  0.85524185  0.80549068  -0.04544933  1
  In  In18  1  0.32592146  0.85407704  0.14946575  1
  In  In19  1  0.82272830  0.67159898  0.15887175  1
  In  In20  1  0.79952736  0.31294393  0.19455449  1
  In  In21  1  0.81576477  0.17311572  -0.00053203  1
  In  In22  1  0.20547785  0.33932253  0.17310220  1
  In  In23  1  0.02095320  -0.02307851  0.32181799  1
  In  In24  1  0.35988502  0.49249998  0.82186320  1
  In  In25  1  0.81507189  0.82897637  0.35166046  1
  In  In26  1  0.34926588  0.32495081  0.33672934  1
  In  In27  1  -0.00243891  0.65599195  0.35183933  1
  In  In28  1  0.49115326  0.15634420  -0.00620826  1
  In  In29  1  0.02384172  0.83491113  0.16606106  1
  In  In30  1  0.83258732  0.01279719  0.14884635  1
  In  In31  1  0.65934093  0.80535640  0.50950603  1
  In  In32  1  0.47612680  0.82668871  0.33633729  1
  In  In33  1  0.47632214  0.33484679  0.17320377  1
  In  In34  1  0.82111386  0.50037129  0.66516869  1
  In  In35  1  0.16209753  0.50486690  0.64760764  1
  In  In36  1  0.18487836  -0.00613612  0.51314413  1
  In  In37  1  0.18738366  -0.01769004  0.84005986  1
  In  In38  1  0.01292066  -0.00844435  -0.01278795  1
  In  In39  1  0.17216973  0.34159438  0.50011503  1
  In  In40  1  0.17707557  0.14944905  0.66407395  1
  In  In41  1  0.34980145  0.00837663  0.35067167  1
  In  In42  1  0.80123606  0.54737518  -0.03690721  1
  In  In43  1  0.33639768  0.82341382  0.51185898  1
  In  In44  1  0.01096781  0.14613499  0.13577890  1
  In  In45  1  0.84864954  -0.02909860  0.80066733  1
  In  In46  1  0.65698968  0.65894178  0.35786143  1
  In  In47  1  0.34279578  0.66409162  0.67017729  1
  In  In48  1  0.16346154  0.50526722  -0.00145049  1
  In  In49  1  0.49209605  0.50260950  0.37591130  1
  In  In50  1  0.66669067  0.85359393  0.14998721  1
  In  In51  1  0.16342850  0.66683779  0.50232670  1
  In  In52  1  0.62781085  0.03177988  0.32300136  1
  In  In53  1  0.82604888  0.34507401  0.82292936  1
  In  In54  1  0.33912313  0.16410488  0.82591728  1
  In  In55  1  0.51448942  0.50241775  -0.03230189  1
  In  In56  1  0.35086538  0.30562800  -0.00363201  1
  In  In57  1  0.65473312  0.01330859  -0.00438105  1
  In  In58  1  0.49728082  0.67098836  0.15251297  1
  In  In59  1  0.14844405  0.68833105  0.16723365  1
  In  In60  1  0.32264033  0.47589333  0.19745653  1
  In  In61  1  0.81566945  0.35573495  0.52167655  1
  In  In62  1  0.16850824  0.31839049  0.83352592  1
  In  In63  1  0.34257473  0.83424579  0.81833592  1
  In  In64  1  -0.00689859  0.17601604  0.82160088  1
  In  In65  1  0.32933157  0.66497953  -0.00896408  1
  In  In66  1  -0.01100982  0.52392457  0.17366743  1
  In  In67  1  0.48956547  -0.01471453  0.51028032  1
  In  In68  1  0.83253294  0.00009325  0.51873586  1
  In  In69  1  0.66813929  0.00011157  0.66399413  1
  In  In70  1  0.34711405  0.16559207  0.15571365  1
  In  In71  1  0.16360755  0.70065387  0.81814328  1
  Te  Te72  1  0.11448787  0.04953844  0.08420433  1
  Te  Te73  1  0.09188976  0.08613145  0.41030970  1
  Te  Te74  1  0.08473036  0.07299882  0.75829309  1
  Te  Te75  1  0.08385190  0.41435341  0.09449319  1
  Te  Te76  1  0.06728274  0.43595805  0.44895194  1
  Te  Te77  1  0.08218111  0.40928228  0.74765421  1
  Te  Te78  1  0.07804556  0.75298244  0.05514973  1
  Te  Te79  1  0.09164879  0.76369603  0.40540307  1
  Te  Te80  1  0.04566206  0.76623702  0.75394549  1
  Te  Te81  1  0.39977997  0.06193386  0.06284618  1
  Te  Te82  1  0.43208918  0.09946672  0.43425952  1
  Te  Te83  1  0.41020660  0.08509371  0.72165667  1
  Te  Te84  1  0.41429495  0.43542847  0.07172907  1
  Te  Te85  1  0.41760038  0.39570141  0.44743826  1
  Te  Te86  1  0.42034149  0.38783444  0.73486920  1
  Te  Te87  1  0.42178857  0.76624946  0.06358485  1
  Te  Te88  1  0.44049664  0.72823245  0.44537346  1
  Te  Te89  1  0.43980335  0.74237714  0.75076377  1
  Te  Te90  1  0.72268708  0.10567413  0.10015212  1
  Te  Te91  1  0.74017832  0.08679336  0.43437032  1
  Te  Te92  1  0.75191124  0.08536954  0.75967106  1
  Te  Te93  1  0.76862828  0.42575348  0.08070697  1
  Te  Te94  1  0.73158178  0.40030838  0.40509919  1
  Te  Te95  1  0.72423757  0.43376310  0.76029066  1
  Te  Te96  1  0.74622476  0.75857886  0.06065024  1
  Te  Te97  1  0.77079406  0.71953275  0.44502960  1
  Te  Te98  1  0.76397190  0.75545563  0.73904113  1
  Te  Te99  1  0.07290074  0.24976711  0.24221441  1
  Te  Te100  1  0.08644542  0.25175249  0.59328941  1
  Te  Te101  1  0.10133331  0.21455099  0.92424039  1
  Te  Te102  1  0.09797404  0.57894520  0.26463573  1
  Te  Te103  1  0.06524300  0.60387386  0.59583655  1
  Te  Te104  1  0.08517866  0.60271353  0.91650274  1
  Te  Te105  1  0.12794676  0.91961433  0.23463561  1
  Te  Te106  1  0.08660031  0.91599460  0.59190555  1
  Te  Te107  1  0.07398805  0.89731093  0.89184617  1
  Te  Te108  1  0.44158716  0.21574218  0.26934684  1
  Te  Te109  1  0.46714620  0.27846129  0.60520084  1
  Te  Te110  1  0.44678955  0.26208014  0.88996698  1
  Te  Te111  1  0.42621466  0.58140952  0.25437789  1
  Te  Te112  1  0.40462418  0.56287292  0.58138682  1
  Te  Te113  1  0.43157632  0.60827689  0.89292808  1
  Te  Te114  1  0.42650509  0.93074389  0.24010300  1
  Te  Te115  1  0.40442384  0.91371780  0.60837802  1
  Te  Te116  1  0.41354856  0.91605803  0.92169678  1
  Te  Te117  1  0.68739838  0.23816960  0.26366066  1
  Te  Te118  1  0.73066794  0.26077301  0.60911964  1
  Te  Te119  1  0.73254647  0.24829148  0.89754409  1
  Te  Te120  1  0.74747215  0.57832004  0.25446323  1
  Te  Te121  1  0.72612816  0.56179232  0.56515808  1
  Te  Te122  1  0.70222050  0.62662225  0.87770341  1
  Te  Te123  1  0.75136711  0.93245591  0.25752889  1
  Te  Te124  1  0.75355095  0.89440817  0.59466774  1
  Te  Te125  1  0.75660706  0.92519179  0.91918822  1
  Te  Te126  1  0.23711817  0.23399700  0.06948228  1
  Te  Te127  1  0.27306704  0.23769977  0.44424522  1
  Te  Te128  1  0.26253757  0.25977176  0.73124090  1
  Te  Te129  1  0.25401824  0.58225401  0.09810095  1
  Te  Te130  1  0.25955969  0.56941395  0.44313249  1
  Te  Te131  1  0.24325063  0.57622988  0.76739961  1
  Te  Te132  1  0.21312544  0.92424375  0.08506189  1
  Te  Te133  1  0.25489487  0.90372237  0.41056176  1
  Te  Te134  1  0.25675935  0.91406719  0.72645958  1
  Te  Te135  1  0.57055989  0.26274824  0.07581865  1
  Te  Te136  1  0.60459403  0.29348217  0.39941076  1
  Te  Te137  1  0.58133087  0.27348296  0.69903331  1
  Te  Te138  1  0.59595031  0.58991014  0.06769707  1
  Te  Te139  1  0.59860136  0.56703976  0.46140663  1
  Te  Te140  1  0.59268362  0.57818636  0.75924112  1
  Te  Te141  1  0.56461736  0.92401512  0.07155015  1
  Te  Te142  1  0.59200426  0.90953022  0.41237231  1
  Te  Te143  1  0.57576484  0.90764222  0.74194413  1
  Te  Te144  1  0.91435407  0.25878540  0.08008665  1
  Te  Te145  1  0.90575503  0.24977963  0.42923647  1
  Te  Te146  1  0.91657121  0.26619773  0.72756670  1
  Te  Te147  1  0.91648825  0.59774248  0.06354385  1
  Te  Te148  1  0.92590456  0.58067884  0.45717058  1
  Te  Te149  1  0.88659540  0.59774397  0.76332329  1
  Te  Te150  1  0.91230511  0.90491859  0.07879777  1
  Te  Te151  1  0.92211088  0.91462191  0.42473341  1
  Te  Te152  1  0.93275074  0.87628560  0.72140378  1
  Te  Te153  1  0.25808017  0.08677286  0.25343266  1
  Te  Te154  1  0.28198991  0.08477136  0.58011421  1
  Te  Te155  1  0.27521229  0.07155307  0.92314588  1
  Te  Te156  1  0.22775649  0.41700565  0.30126356  1
  Te  Te157  1  0.26599768  0.41962138  0.58673236  1
  Te  Te158  1  0.25803565  0.41228692  0.92256386  1
  Te  Te159  1  0.26587884  0.74919654  0.24858768  1
  Te  Te160  1  0.23699602  0.75373690  0.60548732  1
  Te  Te161  1  0.24327442  0.77112730  0.92627497  1
  Te  Te162  1  0.55049972  0.10832091  0.22760124  1
  Te  Te163  1  0.56822092  0.09083919  0.59461047  1
  Te  Te164  1  0.58628134  0.09704276  0.88846793  1
  Te  Te165  1  0.56807894  0.41740500  0.26562088  1
  Te  Te166  1  0.58141295  0.38333877  0.58569963  1
  Te  Te167  1  0.59948416  0.41760978  0.87851503  1
  Te  Te168  1  0.59221180  0.75190953  0.25218559  1
  Te  Te169  1  0.56034174  0.74962176  0.60352912  1
  Te  Te170  1  0.60327177  0.73097364  0.92995163  1
  Te  Te171  1  0.92067842  0.08237001  0.25706578  1
  Te  Te172  1  0.94206438  0.05875701  0.60779537  1
  Te  Te173  1  0.90871176  0.08411573  0.91643443  1
  Te  Te174  1  0.91060060  0.41757371  0.25319822  1
  Te  Te175  1  0.92656062  0.42269505  0.59275081  1
  Te  Te176  1  0.91633474  0.42923214  0.91743833  1
  Te  Te177  1  0.91382211  0.75084461  0.25382745  1
  Te  Te178  1  0.89442904  0.76504620  0.61635329  1
  Te  Te179  1  0.93062757  0.72236078  0.85670097  1
