# generated using pymatgen
data_In2Te3
_symmetry_space_group_name_H-M   'P 1'
_cell_length_a   18.91112743
_cell_length_b   18.93692369
_cell_length_c   18.93470937
_cell_angle_alpha   90.07768555
_cell_angle_beta   89.98705146
_cell_angle_gamma   89.96620667
_symmetry_Int_Tables_number   1
_chemical_formula_structural   In2Te3
_chemical_formula_sum   'In72 Te108'
_cell_volume   6780.86358749
_cell_formula_units_Z   36
loop_
 _symmetry_equiv_pos_site_id
 _symmetry_equiv_pos_as_xyz
  1  'x, y, z'
loop_
 _atom_site_type_symbol
 _atom_site_label
 _atom_site_symmetry_multiplicity
 _atom_site_fract_x
 _atom_site_fract_y
 _atom_site_fract_z
 _atom_site_occupancy
  In  In0  1  0.82085823  0.32248428  0.51704483  1
  In  In1  1  0.14849182  0.15954205  0.34628687  1
  In  In2  1  0.15070655  0.53786534  -0.00649843  1
  In  In3  1  0.51253555  0.48399008  0.66580685  1
  In  In4  1  -0.01723281  0.33563869  -0.00818736  1
  In  In5  1  0.50505311  0.17394843  -0.00491975  1
  In  In6  1  0.84670175  0.81363629  0.64835960  1
  In  In7  1  0.15990991  0.86217081  0.31269619  1
  In  In8  1  0.31677879  0.53645252  0.81096382  1
  In  In9  1  -0.00557345  -0.00304769  -0.00706111  1
  In  In10  1  0.48824159  -0.00352898  0.83906581  1
  In  In11  1  0.49836865  0.51218500  0.34894408  1
  In  In12  1  0.15383468  0.35367527  0.82839802  1
  In  In13  1  0.00848569  0.34579546  0.33305050  1
  In  In14  1  0.14095463  0.66190668  0.53757057  1
  In  In15  1  0.85218943  0.15439944  -0.01003704  1
  In  In16  1  0.69226669  -0.00956294  0.33303770  1
  In  In17  1  0.00054260  0.51823886  0.17174199  1
  In  In18  1  0.17043829  0.34312454  0.17715788  1
  In  In19  1  0.86351337  0.18239400  0.68843680  1
  In  In20  1  0.66185174  0.16748868  0.16745621  1
  In  In21  1  0.83966475  0.81383490  0.33448678  1
  In  In22  1  0.31759216  0.82761520  0.49049070  1
  In  In23  1  0.84389199  0.51195061  0.00569893  1
  In  In24  1  0.68163886  -0.02441217  0.67674614  1
  In  In25  1  0.50580481  0.00201042  0.49583366  1
  In  In26  1  0.52252407  0.34218734  0.49963710  1
  In  In27  1  0.83296500  0.15228292  0.32523677  1
  In  In28  1  0.02128096  0.66245874  0.32684744  1
  In  In29  1  0.17500668  0.81882383  0.69076214  1
  In  In30  1  0.68395752  0.49893994  0.17562097  1
  In  In31  1  0.66911027  0.16893875  0.81693580  1
  In  In32  1  0.85520185  0.52365819  0.33787067  1
  In  In33  1  0.52660638  0.15933274  0.69622530  1
  In  In34  1  0.33222797  0.81776809  0.85219236  1
  In  In35  1  0.00866280  0.84144024  0.83916085  1
  In  In36  1  0.82256727  0.69784247  0.12490685  1
  In  In37  1  0.32963588  0.17349714  0.16838048  1
  In  In38  1  0.67175941  0.65000794  0.66631252  1
  In  In39  1  0.51619980  0.68376445  0.19168879  1
  In  In40  1  0.65557024  0.52251506  0.49684938  1
  In  In41  1  0.67006238  -0.04026497  0.01008908  1
  In  In42  1  0.48943369  0.17979323  0.33152399  1
  In  In43  1  -0.01478850  0.83008722  0.48726190  1
  In  In44  1  0.66292447  0.85226739  0.84836773  1
  In  In45  1  0.30354326  0.49858490  0.14118291  1
  In  In46  1  0.34621496  0.33901369  -0.01382174  1
  In  In47  1  0.50639768  0.50458468  -0.00344138  1
  In  In48  1  0.66464188  0.32731047  0.33453296  1
  In  In49  1  0.81402672  0.47411371  0.68885973  1
  In  In50  1  0.14332591  0.33156830  0.50173488  1
  In  In51  1  0.15475439  0.16113825  -0.02457273  1
  In  In52  1  0.33619784  0.50509916  0.50802920  1
  In  In53  1  0.51621072  -0.03081681  0.16002908  1
  In  In54  1  0.12045552  0.19025790  0.68183296  1
  In  In55  1  0.35423082  0.82415261  0.16459473  1
  In  In56  1  0.32067283  0.17994317  0.49898143  1
  In  In57  1  0.00397813  0.49865709  0.82305311  1
  In  In58  1  0.49940274  0.68730708  0.83721631  1
  In  In59  1  0.00356766  0.01131371  0.66517895  1
  In  In60  1  0.15061192  0.00790628  0.15512907  1
  In  In61  1  0.31283076  0.67444883  0.32855521  1
  In  In62  1  0.13053522  0.80153815  0.01214642  1
  In  In63  1  0.84250522  -0.02690357  0.16673450  1
  In  In64  1  0.68904955  0.81682852  0.48976390  1
  In  In65  1  0.34384208  0.32794747  0.67455628  1
  In  In66  1  0.49442762  0.66882564  0.49401136  1
  In  In67  1  0.66808020  0.32278675  0.00417548  1
  In  In68  1  0.32771434  -0.01167457  0.64659066  1
  In  In69  1  0.83338716  0.67611445  0.86116707  1
  In  In70  1  0.15212189  -0.00378333  0.49440038  1
  In  In71  1  0.32603146  -0.00153548  -0.00476705  1
  Te  Te72  1  0.06247257  0.10515564  0.08050285  1
  Te  Te73  1  0.05549958  0.09012491  0.43576997  1
  Te  Te74  1  0.10060760  0.06940401  0.75918503  1
  Te  Te75  1  0.08552002  0.41750558  0.07225140  1
  Te  Te76  1  0.06945906  0.43938983  0.43012532  1
  Te  Te77  1  0.06265289  0.40509075  0.72055161  1
  Te  Te78  1  0.04862400  0.72673923  0.10737900  1
  Te  Te79  1  0.10850240  0.76352030  0.41822107  1
  Te  Te80  1  0.07482385  0.73440090  0.75947589  1
  Te  Te81  1  0.42500093  0.08092281  0.08776663  1
  Te  Te82  1  0.40559777  0.08459497  0.41586502  1
  Te  Te83  1  0.40657820  0.08065480  0.74362214  1
  Te  Te84  1  0.42187157  0.41673772  0.09050817  1
  Te  Te85  1  0.41294466  0.40810949  0.41967191  1
  Te  Te86  1  0.41250485  0.42685843  0.76598587  1
  Te  Te87  1  0.42665061  0.72563591  0.08361317  1
  Te  Te88  1  0.41868233  0.75876578  0.39809493  1
  Te  Te89  1  0.40729769  0.75104607  0.74445067  1
  Te  Te90  1  0.74626442  0.07313725  0.08597227  1
  Te  Te91  1  0.74116880  0.09326017  0.42348997  1
  Te  Te92  1  0.76527734  0.07232296  0.75431743  1
  Te  Te93  1  0.76498632  0.40915645  0.08658581  1
  Te  Te94  1  0.74771881  0.43184531  0.40536462  1
  Te  Te95  1  0.70395874  0.39345075  0.74306897  1
  Te  Te96  1  0.71290822  0.75398026  0.04362235  1
  Te  Te97  1  0.78176740  0.71975291  0.43080241  1
  Te  Te98  1  0.74501785  0.75707075  0.75116487  1
  Te  Te99  1  0.07597338  0.24468863  0.24162876  1
  Te  Te100  1  0.04812761  0.23695504  0.56400095  1
  Te  Te101  1  0.05283674  0.24554704  0.88907959  1
  Te  Te102  1  0.11087811  0.56748598  0.25496615  1
  Te  Te103  1  0.10288737  0.54965031  0.62462662  1
  Te  Te104  1  0.07227747  0.61178744  0.89229627  1
  Te  Te105  1  0.05441026  0.93950376  0.24489545  1
  Te  Te106  1  0.08740545  0.89752040  0.59158840  1
  Te  Te107  1  0.10732465  0.92271600  0.92309539  1
  Te  Te108  1  0.40722924  0.26744001  0.24918618  1
  Te  Te109  1  0.43746641  0.24419413  0.58332388  1
  Te  Te110  1  0.42249889  0.24843721  0.90045697  1
  Te  Te111  1  0.40662202  0.58013983  0.25113865  1
  Te  Te112  1  0.42161155  0.58794442  0.60057564  1
  Te  Te113  1  0.40940357  0.59338085  0.91605537  1
  Te  Te114  1  0.41230927  0.92640798  0.25328656  1
  Te  Te115  1  0.42629225  0.89916780  0.57403637  1
  Te  Te116  1  0.42739973  0.90100669  0.93916219  1
  Te  Te117  1  0.75881073  0.25617821  0.23931608  1
  Te  Te118  1  0.74853632  0.23891188  0.61338919  1
  Te  Te119  1  0.76014645  0.24677562  0.90947038  1
  Te  Te120  1  0.77535558  0.60488449  0.23491843  1
  Te  Te121  1  0.77005509  0.57773838  0.57678816  1
  Te  Te122  1  0.74120914  0.58061905  0.92490874  1
  Te  Te123  1  0.73557963  0.88066535  0.23350173  1
  Te  Te124  1  0.76999307  0.91883927  0.56741345  1
  Te  Te125  1  0.77604223  0.91964731  0.91552323  1
  Te  Te126  1  0.24304451  0.25115743  0.06953303  1
  Te  Te127  1  0.24154928  0.26541129  0.40409232  1
  Te  Te128  1  0.24207204  0.25235215  0.75650955  1
  Te  Te129  1  0.25177911  0.61506846  0.06883336  1
  Te  Te130  1  0.24113752  0.59418301  0.43406530  1
  Te  Te131  1  0.19569050  0.58038654  0.74360955  1
  Te  Te132  1  0.24597617  0.91016651  0.08900689  1
  Te  Te133  1  0.25798592  0.93649267  0.40354860  1
  Te  Te134  1  0.25874706  0.92116205  0.76427782  1
  Te  Te135  1  0.56437300  0.26295024  0.10224667  1
  Te  Te136  1  0.59620757  0.22983975  0.42874584  1
  Te  Te137  1  0.58438439  0.27947000  0.76192162  1
  Te  Te138  1  0.58865950  0.58387177  0.09554166  1
  Te  Te139  1  0.59734875  0.61777448  0.39312174  1
  Te  Te140  1  0.58081188  0.57880526  0.76273167  1
  Te  Te141  1  0.58552516  0.86053118  0.08353934  1
  Te  Te142  1  0.59189793  0.90920979  0.41256991  1
  Te  Te143  1  0.56379096  0.90693371  0.74439674  1
  Te  Te144  1  0.91147218  0.24884579  0.08554487  1
  Te  Te145  1  0.90620103  0.26034552  0.40734112  1
  Te  Te146  1  0.95473138  0.26596175  0.76846248  1
  Te  Te147  1  0.94301063  0.61465161  0.06338666  1
  Te  Te148  1  0.96239669  0.56953284  0.42751103  1
  Te  Te149  1  0.89782480  0.58784529  0.75632608  1
  Te  Te150  1  0.92114069  0.89206639  0.07007566  1
  Te  Te151  1  0.91224025  0.92282298  0.40178192  1
  Te  Te152  1  0.91614373  0.91206786  0.74042719  1
  Te  Te153  1  0.24115920  0.08271648  0.25104500  1
  Te  Te154  1  0.23062824  0.09395562  0.58558912  1
  Te  Te155  1  0.26729698  0.09845585  0.90690495  1
  Te  Te156  1  0.23986265  0.44096697  0.26144866  1
  Te  Te157  1  0.25096638  0.40714869  0.58573596  1
  Te  Te158  1  0.24735627  0.43390335  0.92052064  1
  Te  Te159  1  0.22935304  0.75503358  0.23217236  1
  Te  Te160  1  0.26084805  0.73542446  0.59604612  1
  Te  Te161  1  0.23850832  0.73741084  0.93446926  1
  Te  Te162  1  0.58065079  0.07506684  0.25462967  1
  Te  Te163  1  0.59687785  0.07320492  0.59347319  1
  Te  Te164  1  0.59512448  0.07237950  0.92179833  1
  Te  Te165  1  0.57877590  0.42268387  0.25460123  1
  Te  Te166  1  0.62407378  0.40508854  0.59348708  1
  Te  Te167  1  0.59716490  0.41870265  0.91853417  1
  Te  Te168  1  0.61227524  0.78234233  0.24120165  1
  Te  Te169  1  0.59015166  0.74812362  0.58244915  1
  Te  Te170  1  0.61587410  0.72875306  0.92279263  1
  Te  Te171  1  0.92379178  0.06776458  0.24354402  1
  Te  Te172  1  0.91941498  0.09655303  0.57998111  1
  Te  Te173  1  0.92566013  0.07702310  0.89041529  1
  Te  Te174  1  0.91060206  0.41973723  0.24169612  1
  Te  Te175  1  0.90900393  0.40364242  0.60119013  1
  Te  Te176  1  0.89692544  0.41924198  0.89797142  1
  Te  Te177  1  0.93209179  0.74371852  0.23538578  1
  Te  Te178  1  0.94769508  0.72761761  0.58550212  1
  Te  Te179  1  0.90150764  0.79003682  0.93124742  1
