# generated using pymatgen
data_In2Te3
_symmetry_space_group_name_H-M   'P 1'
_cell_length_a   18.79640775
_cell_length_b   18.79394913
_cell_length_c   18.79690840
_cell_angle_alpha   90.00245549
_cell_angle_beta   89.99154996
_cell_angle_gamma   90.03634610
_symmetry_Int_Tables_number   1
_chemical_formula_structural   In2Te3
_chemical_formula_sum   'In72 Te108'
_cell_volume   6640.17059406
_cell_formula_units_Z   36
loop_
 _symmetry_equiv_pos_site_id
 _symmetry_equiv_pos_as_xyz
  1  'x, y, z'
loop_
 _atom_site_type_symbol
 _atom_site_label
 _atom_site_symmetry_multiplicity
 _atom_site_fract_x
 _atom_site_fract_y
 _atom_site_fract_z
 _atom_site_occupancy
  In  In0  1  0.35060826  0.49057072  0.15231394  1
  In  In1  1  0.35345873  0.65580557  0.67739310  1
  In  In2  1  0.33205115  0.85820143  0.50409180  1
  In  In3  1  0.66833472  0.81908260  0.49563279  1
  In  In4  1  0.49064216  0.84544539  0.67134493  1
  In  In5  1  0.65666884  0.32023183  0.67776499  1
  In  In6  1  0.31773903  0.01083398  0.34275201  1
  In  In7  1  0.16980642  0.32161918  0.84076163  1
  In  In8  1  0.34610746  0.31392478  0.32476993  1
  In  In9  1  0.17740997  0.35509070  0.50954549  1
  In  In10  1  0.81533611  0.32648494  0.48154552  1
  In  In11  1  0.85313705  0.16564103  0.04892796  1
  In  In12  1  0.49868199  0.17016365  0.67727701  1
  In  In13  1  0.51401795  0.66387460  0.83513340  1
  In  In14  1  0.82331943  0.15638899  0.30155179  1
  In  In15  1  0.13321023  0.69011635  0.15584330  1
  In  In16  1  0.03119153  0.34356475  0.67052523  1
  In  In17  1  0.48201869  0.86625314  -0.03623006  1
  In  In18  1  0.51772188  0.48496217  -0.00643082  1
  In  In19  1  0.82344892  0.48621674  0.00558242  1
  In  In20  1  0.82904549  0.66101625  0.50147721  1
  In  In21  1  0.15093837  0.52272328  -0.00498767  1
  In  In22  1  0.01770453  0.01824437  0.66545579  1
  In  In23  1  0.84396562  0.68036489  0.18343093  1
  In  In24  1  0.53783206  0.45377103  0.30932008  1
  In  In25  1  0.18643374  0.65755249  0.86039597  1
  In  In26  1  0.34288441  0.49239870  0.81709310  1
  In  In27  1  0.15684898  0.17851925  0.00937963  1
  In  In28  1  0.17506918  -0.00888419  0.83134418  1
  In  In29  1  0.68807835  -0.00993447  0.34196416  1
  In  In30  1  0.67955021  0.81974072  0.84229598  1
  In  In31  1  0.15832599  0.50021464  0.35075945  1
  In  In32  1  -0.01510523  0.49480545  0.17244371  1
  In  In33  1  0.83269532  0.65674755  0.85956314  1
  In  In34  1  0.50610171  0.48065485  0.68781040  1
  In  In35  1  0.00347904  0.17027771  0.49456076  1
  In  In36  1  0.83768585  0.15324130  0.65737143  1
  In  In37  1  0.66091293  0.32361340  -0.00883919  1
  In  In38  1  0.81971637  -0.00274267  0.84150409  1
  In  In39  1  0.34314586  0.18304903  0.82573674  1
  In  In40  1  0.82395872  0.51375902  0.66453383  1
  In  In41  1  0.14496783  -0.01230772  0.16892454  1
  In  In42  1  -0.02279822  0.85741657  0.44934009  1
  In  In43  1  0.48285993  0.03267120  0.13092867  1
  In  In44  1  0.14653402  0.16355783  0.31174092  1
  In  In45  1  0.31742933  0.68869927  -0.00646498  1
  In  In46  1  0.14364564  0.84534060  0.02601641  1
  In  In47  1  0.15364516  0.32120486  0.17245282  1
  In  In48  1  0.64620715  0.02371337  -0.01099471  1
  In  In49  1  0.51070527  0.32075490  0.49198602  1
  In  In50  1  0.83098812  0.48759901  0.32950100  1
  In  In51  1  -0.01616671  0.65145210  0.66027162  1
  In  In52  1  0.17270948  0.01719265  0.50256022  1
  In  In53  1  -0.00161746  0.15790901  0.83742314  1
  In  In54  1  0.82331042  0.83814163  0.68021653  1
  In  In55  1  0.51385251  0.83981298  0.33207340  1
  In  In56  1  0.51567857  0.62816068  0.15184787  1
  In  In57  1  0.67646284  0.65831260  0.33963623  1
  In  In58  1  0.36191548  0.32487731  -0.01267628  1
  In  In59  1  0.01036358  0.81483952  0.84843557  1
  In  In60  1  0.30186637  0.66080852  0.32886970  1
  In  In61  1  0.49332896  0.66091658  0.50581512  1
  In  In62  1  0.68814690  0.84636894  0.16316549  1
  In  In63  1  0.67522017  0.17065977  0.16460130  1
  In  In64  1  0.14382015  0.67151716  0.50761916  1
  In  In65  1  0.51082578  0.17356699  0.33019210  1
  In  In66  1  0.82964570  0.33444101  0.85380199  1
  In  In67  1  0.32787623  0.83743567  0.16118586  1
  In  In68  1  0.33364640  0.16877307  0.51617528  1
  In  In69  1  0.17748952  0.84988861  0.67597999  1
  In  In70  1  -0.00889527  0.48777564  0.48177690  1
  In  In71  1  0.65046364  0.00176283  0.65117307  1
  Te  Te72  1  0.06428482  0.08867876  0.08639004  1
  Te  Te73  1  0.07057657  0.06732795  0.40114931  1
  Te  Te74  1  0.11001726  0.10446628  0.74836725  1
  Te  Te75  1  0.07937965  0.41762680  0.07952838  1
  Te  Te76  1  0.07145490  0.38584512  0.40114304  1
  Te  Te77  1  0.09169850  0.42857228  0.77347172  1
  Te  Te78  1  0.02590135  0.77078451  0.08693584  1
  Te  Te79  1  0.06495780  0.74564790  0.40776684  1
  Te  Te80  1  0.08628747  0.74117256  0.73723443  1
  Te  Te81  1  0.39572397  0.10957821  0.04306298  1
  Te  Te82  1  0.42234810  0.08700694  0.42276230  1
  Te  Te83  1  0.42644616  0.06909021  0.76704615  1
  Te  Te84  1  0.45106218  0.39386644  0.09717247  1
  Te  Te85  1  0.42401054  0.41576856  0.40585523  1
  Te  Te86  1  0.43638279  0.38440326  0.77850336  1
  Te  Te87  1  0.42330028  0.74067230  0.09221545  1
  Te  Te88  1  0.41115939  0.75205454  0.40946629  1
  Te  Te89  1  0.41196249  0.75885742  0.77196094  1
  Te  Te90  1  0.75313547  0.05844100  0.09511357  1
  Te  Te91  1  0.75301545  0.09701795  0.41893229  1
  Te  Te92  1  0.73831751  0.08474374  0.75021193  1
  Te  Te93  1  0.74427823  0.39370178  0.09617543  1
  Te  Te94  1  0.73494223  0.43867317  0.43035264  1
  Te  Te95  1  0.74678779  0.41633620  0.75598088  1
  Te  Te96  1  0.76477111  0.75281394  0.07987084  1
  Te  Te97  1  0.77123354  0.76147134  0.39832581  1
  Te  Te98  1  0.74916595  0.72461954  0.74511969  1
  Te  Te99  1  0.04425313  0.23182744  0.22460469  1
  Te  Te100  1  0.10475537  0.24116736  0.58455531  1
  Te  Te101  1  0.05694620  0.26306380  0.93087408  1
  Te  Te102  1  0.07671322  0.58552359  0.25495688  1
  Te  Te103  1  0.07865724  0.55747868  0.58631011  1
  Te  Te104  1  0.06213167  0.62078359  0.93098361  1
  Te  Te105  1  0.05165274  0.89370248  0.24257573  1
  Te  Te106  1  0.07828036  0.90854748  0.57460880  1
  Te  Te107  1  0.06840652  0.93418507  0.92402489  1
  Te  Te108  1  0.42782132  0.23986483  0.22816480  1
  Te  Te109  1  0.41170389  0.27113382  0.59647199  1
  Te  Te110  1  0.45529476  0.20993217  0.93850037  1
  Te  Te111  1  0.41495263  0.58147697  0.26026470  1
  Te  Te112  1  0.41560635  0.55290889  0.58383610  1
  Te  Te113  1  0.40957537  0.58348773  0.92926624  1
  Te  Te114  1  0.41488151  0.92651433  0.25245142  1
  Te  Te115  1  0.42358836  0.94212123  0.58191925  1
  Te  Te116  1  0.40869777  0.96361719  0.88288956  1
  Te  Te117  1  0.72250362  0.27141788  0.26846326  1
  Te  Te118  1  0.73767850  0.23626704  0.57815504  1
  Te  Te119  1  0.76649972  0.22361814  0.93326869  1
  Te  Te120  1  0.74608833  0.57344947  0.23509841  1
  Te  Te121  1  0.72896104  0.58423874  0.57616675  1
  Te  Te122  1  0.72926559  0.57161202  0.92529624  1
  Te  Te123  1  0.78547155  0.90810913  0.25845169  1
  Te  Te124  1  0.75595655  0.92055238  0.57183938  1
  Te  Te125  1  0.74714789  0.91218602  0.94375813  1
  Te  Te126  1  0.26256932  0.25800421  0.08608926  1
  Te  Te127  1  0.24334161  0.23719480  0.40926877  1
  Te  Te128  1  0.26075225  0.26954398  0.73763985  1
  Te  Te129  1  0.24962568  0.59554669  0.10177918  1
  Te  Te130  1  0.25459521  0.57268921  0.44512704  1
  Te  Te131  1  0.23917669  0.57659868  0.74287108  1
  Te  Te132  1  0.25912571  0.93650958  0.07095440  1
  Te  Te133  1  0.22596055  0.90734257  0.40658934  1
  Te  Te134  1  0.28095586  0.92532920  0.74910605  1
  Te  Te135  1  0.57570885  0.22755110  0.06974571  1
  Te  Te136  1  0.61116081  0.25901004  0.39960297  1
  Te  Te137  1  0.59686445  0.22585505  0.77952275  1
  Te  Te138  1  0.61865344  0.57260113  0.06190652  1
  Te  Te139  1  0.57142196  0.57305922  0.40754737  1
  Te  Te140  1  0.59721721  0.57823148  0.75090277  1
  Te  Te141  1  0.56806880  0.91321305  0.08420010  1
  Te  Te142  1  0.57723423  0.92685051  0.43669446  1
  Te  Te143  1  0.59100766  0.91596003  0.76412406  1
  Te  Te144  1  0.91319792  0.27091732  0.13426521  1
  Te  Te145  1  0.91326302  0.24521062  0.39917681  1
  Te  Te146  1  0.92014650  0.25113400  0.74050212  1
  Te  Te147  1  0.91350841  0.58871047  0.07822550  1
  Te  Te148  1  0.91956231  0.59314521  0.39905546  1
  Te  Te149  1  0.92164987  0.56679552  0.76986289  1
  Te  Te150  1  0.97153950  0.96195288  0.13121646  1
  Te  Te151  1  0.89634423  0.95415148  0.36972209  1
  Te  Te152  1  0.92894459  0.92585166  0.75241983  1
  Te  Te153  1  0.25147218  0.08854374  0.23139501  1
  Te  Te154  1  0.26223109  0.07361804  0.60384454  1
  Te  Te155  1  0.24566473  0.10108725  0.91350510  1
  Te  Te156  1  0.24898704  0.42214837  0.25048185  1
  Te  Te157  1  0.25888346  0.45426112  0.57531722  1
  Te  Te158  1  0.25736226  0.42769725  0.93577199  1
  Te  Te159  1  0.22611880  0.76801908  0.25146242  1
  Te  Te160  1  0.26174202  0.74576138  0.58468978  1
  Te  Te161  1  0.23957281  0.78908027  0.91273486  1
  Te  Te162  1  0.58835252  0.06212042  0.24740226  1
  Te  Te163  1  0.57717324  0.10166672  0.57213888  1
  Te  Te164  1  0.57654909  0.10927424  0.89070203  1
  Te  Te165  1  0.63125155  0.39281765  0.21336353  1
  Te  Te166  1  0.59329680  0.41644636  0.57783628  1
  Te  Te167  1  0.57652999  0.39698718  0.89020293  1
  Te  Te168  1  0.58784670  0.74336385  0.23961116  1
  Te  Te169  1  0.58140588  0.74514160  0.59788609  1
  Te  Te170  1  0.58167018  0.75256364  0.93905734  1
  Te  Te171  1  0.92269281  0.05523078  0.24788234  1
  Te  Te172  1  0.91517819  0.06389104  0.56193494  1
  Te  Te173  1  0.91148993  0.07752279  0.93249772  1
  Te  Te174  1  0.90518094  0.38838002  0.24355389  1
  Te  Te175  1  0.91034965  0.40559623  0.58487570  1
  Te  Te176  1  0.92795156  0.41209054  0.92951908  1
  Te  Te177  1  0.95760214  0.76565758  0.23493435  1
  Te  Te178  1  0.91678571  0.76301802  0.57945483  1
  Te  Te179  1  0.89066391  0.77749398  0.92566948  1
