# generated using pymatgen
data_In2Te3
_symmetry_space_group_name_H-M   'P 1'
_cell_length_a   18.79173043
_cell_length_b   18.78922593
_cell_length_c   18.78494219
_cell_angle_alpha   90.05793235
_cell_angle_beta   89.95470273
_cell_angle_gamma   90.03660143
_symmetry_Int_Tables_number   1
_chemical_formula_structural   In2Te3
_chemical_formula_sum   'In72 Te108'
_cell_volume   6632.61943514
_cell_formula_units_Z   36
loop_
 _symmetry_equiv_pos_site_id
 _symmetry_equiv_pos_as_xyz
  1  'x, y, z'
loop_
 _atom_site_type_symbol
 _atom_site_label
 _atom_site_symmetry_multiplicity
 _atom_site_fract_x
 _atom_site_fract_y
 _atom_site_fract_z
 _atom_site_occupancy
  In  In0  1  0.82407532  0.01645015  0.82803060  1
  In  In1  1  -0.01735543  0.00260665  -0.01813293  1
  In  In2  1  0.84647297  0.34025025  0.50432988  1
  In  In3  1  0.81154778  0.02199167  0.18231208  1
  In  In4  1  0.16473903  -0.00537658  0.16413909  1
  In  In5  1  0.17473947  0.17431869  0.64283815  1
  In  In6  1  0.47718393  0.83699290  0.34208536  1
  In  In7  1  0.67294919  0.50284854  0.82202325  1
  In  In8  1  0.33630001  0.17820937  0.19124028  1
  In  In9  1  0.64993750  0.15755456  0.16785837  1
  In  In10  1  0.64663584  0.35219582  0.65647100  1
  In  In11  1  0.01812109  0.18216552  0.18224754  1
  In  In12  1  0.64770956  0.64712680  -0.01704910  1
  In  In13  1  0.30844816  0.15023449  0.82881894  1
  In  In14  1  0.00880059  0.16844911  0.50976739  1
  In  In15  1  0.51052393  0.15306932  -0.00794362  1
  In  In16  1  -0.01262397  0.86452101  0.47957946  1
  In  In17  1  0.51190604  0.84864338  0.00030886  1
  In  In18  1  0.02125387  0.80894780  0.81618957  1
  In  In19  1  0.32848909  0.50542513  0.81987006  1
  In  In20  1  0.32878667  0.66935088  0.34589011  1
  In  In21  1  0.00583635  0.48796771  0.83570337  1
  In  In22  1  0.50649197  0.31728399  0.20046909  1
  In  In23  1  0.50583873  0.48896166  0.02111986  1
  In  In24  1  0.48476695  0.19774685  0.63796359  1
  In  In25  1  0.48445127  0.65216424  0.18182701  1
  In  In26  1  0.83694783  0.84389718  0.01372338  1
  In  In27  1  0.71418526  0.31257047  -0.01664199  1
  In  In28  1  0.32239086  0.67443592  0.01805462  1
  In  In29  1  0.82188553  0.84140308  0.65737858  1
  In  In30  1  0.83261310  0.35323848  0.16376128  1
  In  In31  1  0.85157747  0.66084108  0.17777084  1
  In  In32  1  0.64682511  0.83662448  0.51780913  1
  In  In33  1  0.32205282  0.33155660  0.00319839  1
  In  In34  1  0.17023739  -0.00212925  0.49709175  1
  In  In35  1  0.82419567  0.65505214  0.50355651  1
  In  In36  1  0.33897419  0.84439355  0.82362275  1
  In  In37  1  0.01133911  0.50983137  0.17882800  1
  In  In38  1  0.67407762  0.84043135  0.17527740  1
  In  In39  1  0.65006245  0.33184139  0.36029473  1
  In  In40  1  0.02172218  0.65404842  0.65605534  1
  In  In41  1  0.84589352  0.49648601  0.32992949  1
  In  In42  1  0.35704446  -0.01824298  0.66783996  1
  In  In43  1  0.00469689  0.62813688  -0.00125625  1
  In  In44  1  0.18228401  0.65285888  0.50985812  1
  In  In45  1  0.81285385  0.69010139  0.83091252  1
  In  In46  1  0.49019595  0.65566709  0.81581526  1
  In  In47  1  0.00637074  0.00632578  0.65487770  1
  In  In48  1  0.64165348  0.64651130  0.37253364  1
  In  In49  1  -0.00409549  0.33241284  0.00079547  1
  In  In50  1  0.84210759  0.16415974  0.67967735  1
  In  In51  1  0.00319299  0.64985177  0.33017229  1
  In  In52  1  0.00692009  0.18055689  0.81079073  1
  In  In53  1  0.17992065  0.82800266  -0.01442585  1
  In  In54  1  0.83476991  0.17181057  0.33972096  1
  In  In55  1  0.34940669  0.01916789  0.34857454  1
  In  In56  1  0.17591790  0.33828951  0.18100302  1
  In  In57  1  0.15014579  0.65546592  0.19092294  1
  In  In58  1  0.82490968  0.50166531  0.65967743  1
  In  In59  1  0.50020853  0.33158453  0.80890195  1
  In  In60  1  0.20018518  0.32898360  0.47638306  1
  In  In61  1  0.15753683  0.33524417  0.82280789  1
  In  In62  1  0.33852988  0.00081814  -0.00699776  1
  In  In63  1  0.19106171  0.83447454  0.34777349  1
  In  In64  1  0.64807645  0.01293425  0.32114345  1
  In  In65  1  0.64385615  0.16575597  0.49798369  1
  In  In66  1  0.64227672  0.85814608  0.77675700  1
  In  In67  1  0.48267099  0.49228732  0.62745513  1
  In  In68  1  0.32804897  0.52115149  0.19381227  1
  In  In69  1  0.66193029  -0.00666220  -0.01068087  1
  In  In70  1  0.01393094  0.82537256  0.19709910  1
  In  In71  1  0.33251201  0.65192735  0.65489749  1
  Te  Te72  1  0.07427962  0.08133850  0.07717871  1
  Te  Te73  1  0.08847895  0.08823243  0.41494190  1
  Te  Te74  1  0.10260088  0.08221266  0.74455171  1
  Te  Te75  1  0.09122287  0.42083314  0.08275944  1
  Te  Te76  1  0.11661549  0.42887120  0.40390164  1
  Te  Te77  1  0.08910062  0.42666276  0.72928202  1
  Te  Te78  1  0.07977441  0.74723418  0.08105499  1
  Te  Te79  1  0.08492227  0.74709070  0.41756610  1
  Te  Te80  1  0.11743659  0.74307015  0.72729032  1
  Te  Te81  1  0.41609303  0.08843009  0.09197918  1
  Te  Te82  1  0.41815262  0.12304210  0.43187993  1
  Te  Te83  1  0.42158777  0.09936743  0.74388845  1
  Te  Te84  1  0.40506592  0.41149338  0.10495111  1
  Te  Te85  1  0.40012650  0.40489139  0.48329658  1
  Te  Te86  1  0.39982392  0.40842663  0.72638789  1
  Te  Te87  1  0.42449291  0.76104330  0.09129578  1
  Te  Te88  1  0.42334602  0.73839137  0.44073158  1
  Te  Te89  1  0.42610241  0.76218099  0.72945726  1
  Te  Te90  1  0.74686792  0.09535041  0.06696745  1
  Te  Te91  1  0.74436046  0.08019886  0.42019743  1
  Te  Te92  1  0.73503209  0.07278286  0.72636317  1
  Te  Te93  1  0.73052672  0.42037004  0.08162383  1
  Te  Te94  1  0.74899980  0.42885455  0.42752651  1
  Te  Te95  1  0.75746215  0.39793357  0.75242611  1
  Te  Te96  1  0.74474724  0.74096203  0.08064684  1
  Te  Te97  1  0.73874272  0.75283413  0.42445827  1
  Te  Te98  1  0.72418592  0.74056904  0.71903527  1
  Te  Te99  1  0.10204753  0.25554941  0.27931651  1
  Te  Te100  1  0.08555685  0.27786524  0.58056424  1
  Te  Te101  1  0.09165914  0.24104949  0.92313671  1
  Te  Te102  1  0.11472456  0.54200433  0.29526225  1
  Te  Te103  1  0.08733647  0.55327416  0.56918445  1
  Te  Te104  1  0.09973672  0.58634517  0.89688193  1
  Te  Te105  1  0.08919577  0.92723060  0.28057011  1
  Te  Te106  1  0.09106260  0.90056513  0.58592577  1
  Te  Te107  1  0.08635805  0.91823132  0.90551468  1
  Te  Te108  1  0.38341636  0.28870881  0.28366169  1
  Te  Te109  1  0.37721258  0.27107994  0.55802072  1
  Te  Te110  1  0.41391568  0.25197502  0.91027371  1
  Te  Te111  1  0.43645548  0.56298937  0.29358965  1
  Te  Te112  1  0.42173755  0.60052949  0.53878270  1
  Te  Te113  1  0.42049425  0.58143286  0.93338875  1
  Te  Te114  1  0.40505323  0.92484551  0.24919930  1
  Te  Te115  1  0.45391210  0.89898813  0.58586946  1
  Te  Te116  1  0.43874178  0.93460491  0.89780105  1
  Te  Te117  1  0.74053312  0.25632296  0.25088037  1
  Te  Te118  1  0.74481056  0.25238902  0.57852863  1
  Te  Te119  1  0.77288992  0.21119912  0.89906772  1
  Te  Te120  1  0.74728607  0.59196629  0.26519655  1
  Te  Te121  1  0.72355607  0.58018086  0.58322952  1
  Te  Te122  1  0.76571876  0.57397426  0.92078224  1
  Te  Te123  1  0.76423246  0.91048297  0.27655622  1
  Te  Te124  1  0.74495056  0.93431835  0.57413875  1
  Te  Te125  1  0.74877211  0.89663679  0.90075488  1
  Te  Te126  1  0.24047431  0.23400710  0.08531840  1
  Te  Te127  1  0.28770209  0.20887679  0.44101521  1
  Te  Te128  1  0.25978455  0.26085439  0.73693040  1
  Te  Te129  1  0.23206784  0.57420140  0.08671146  1
  Te  Te130  1  0.25194070  0.56030596  0.41382290  1
  Te  Te131  1  0.23268315  0.56895899  0.72793905  1
  Te  Te132  1  0.26262122  0.90532517  0.08756518  1
  Te  Te133  1  0.28359414  0.91094745  0.43962239  1
  Te  Te134  1  0.24511976  0.92938120  0.74933009  1
  Te  Te135  1  0.58047264  0.26439266  0.07403902  1
  Te  Te136  1  0.54823782  0.22620101  0.39885386  1
  Te  Te137  1  0.59656731  0.23661825  0.74362389  1
  Te  Te138  1  0.59618527  0.57522447  0.10782223  1
  Te  Te139  1  0.56823971  0.57065004  0.47589953  1
  Te  Te140  1  0.57843083  0.57257987  0.72544111  1
  Te  Te141  1  0.57960840  0.93746159  0.10639860  1
  Te  Te142  1  0.56773080  0.93106540  0.42075039  1
  Te  Te143  1  0.56554426  0.94715696  0.68751018  1
  Te  Te144  1  0.91015334  0.24351403  0.09216873  1
  Te  Te145  1  0.93620117  0.26124366  0.40964225  1
  Te  Te146  1  0.92423253  0.27384063  0.73350462  1
  Te  Te147  1  0.90083680  0.55355125  0.08130343  1
  Te  Te148  1  0.92991962  0.56732924  0.43577316  1
  Te  Te149  1  0.90897002  0.60132440  0.75137662  1
  Te  Te150  1  0.92487181  0.92312409  0.10878968  1
  Te  Te151  1  0.90008258  0.92766695  0.38446668  1
  Te  Te152  1  0.92497536  0.91573046  0.75684036  1
  Te  Te153  1  0.23747029  0.08631153  0.26282362  1
  Te  Te154  1  0.27209008  0.07685693  0.57924549  1
  Te  Te155  1  0.23130623  0.08077316  0.93182170  1
  Te  Te156  1  0.27572647  0.40454128  0.27550565  1
  Te  Te157  1  0.27725792  0.42364694  0.56448122  1
  Te  Te158  1  0.24033014  0.42607640  0.91736347  1
  Te  Te159  1  0.25884629  0.75210455  0.23788308  1
  Te  Te160  1  0.26093895  0.75763723  0.57877816  1
  Te  Te161  1  0.25714765  0.73322192  0.89391150  1
  Te  Te162  1  0.54740477  0.10253806  0.25883432  1
  Te  Te163  1  0.55770236  0.07673358  0.58260451  1
  Te  Te164  1  0.58744954  0.07639290  0.89297526  1
  Te  Te165  1  0.57844797  0.42527276  0.27028080  1
  Te  Te166  1  0.56290312  0.39753588  0.53945787  1
  Te  Te167  1  0.58193387  0.41367919  0.91058538  1
  Te  Te168  1  0.58434053  0.74817417  0.25841172  1
  Te  Te169  1  0.54041570  0.76800563  0.59507576  1
  Te  Te170  1  0.58233233  0.75545245  0.89772621  1
  Te  Te171  1  0.92830612  0.08124429  0.25996392  1
  Te  Te172  1  0.90327148  0.07475070  0.56899396  1
  Te  Te173  1  0.90090063  0.11722881  0.91540832  1
  Te  Te174  1  0.94063855  0.40026747  0.26010136  1
  Te  Te175  1  0.93161685  0.42959323  0.58627722  1
  Te  Te176  1  0.90737920  0.40610573  0.90905417  1
  Te  Te177  1  0.90547663  0.75780770  0.28177514  1
  Te  Te178  1  0.92227811  0.75385163  0.57889335  1
  Te  Te179  1  0.92386689  0.74920696  0.92909624  1
