# generated using pymatgen
data_In2Te3
_symmetry_space_group_name_H-M   'P 1'
_cell_length_a   19.01117854
_cell_length_b   18.96666940
_cell_length_c   18.97579748
_cell_angle_alpha   90.00385588
_cell_angle_beta   89.94595470
_cell_angle_gamma   90.37423890
_symmetry_Int_Tables_number   1
_chemical_formula_structural   In2Te3
_chemical_formula_sum   'In72 Te108'
_cell_volume   6842.12010451
_cell_formula_units_Z   36
loop_
 _symmetry_equiv_pos_site_id
 _symmetry_equiv_pos_as_xyz
  1  'x, y, z'
loop_
 _atom_site_type_symbol
 _atom_site_label
 _atom_site_symmetry_multiplicity
 _atom_site_fract_x
 _atom_site_fract_y
 _atom_site_fract_z
 _atom_site_occupancy
  In  In0  1  0.00674075  0.02012330  0.68824257  1
  In  In1  1  0.31403194  0.54933208  0.14354984  1
  In  In2  1  0.18511663  0.19552446  0.30296424  1
  In  In3  1  0.49205550  0.34452983  0.84246463  1
  In  In4  1  0.33633652  0.14824937  0.17429939  1
  In  In5  1  0.81592546  -0.02476306  0.48749125  1
  In  In6  1  0.68434749  0.49230732  0.82835389  1
  In  In7  1  0.50977017  0.34051569  0.13980173  1
  In  In8  1  0.14404970  0.34022548  0.15617039  1
  In  In9  1  0.34463452  0.68361554  0.66534409  1
  In  In10  1  0.48799590  0.82415729  0.32653310  1
  In  In11  1  0.32754117  0.80698954  0.83938486  1
  In  In12  1  0.14256645  0.36279931  0.47954173  1
  In  In13  1  0.33501733  0.00275556  0.33662934  1
  In  In14  1  0.03118331  0.52228998  0.16685082  1
  In  In15  1  0.30465063  0.33494792  0.66654327  1
  In  In16  1  0.01266098  0.85787255  0.90543184  1
  In  In17  1  0.86534464  0.49967226  0.33385247  1
  In  In18  1  -0.02227315  0.34583225  0.67404472  1
  In  In19  1  0.15886221  0.50177917  0.65475904  1
  In  In20  1  0.52095868  0.12799486  0.64852347  1
  In  In21  1  0.00592613  0.17395588  0.84249476  1
  In  In22  1  0.79819178  0.15341145  0.66245699  1
  In  In23  1  0.01796092  0.82060645  0.50711983  1
  In  In24  1  0.66743718  0.17762934  0.85522844  1
  In  In25  1  0.17022169  0.14117734  0.02798073  1
  In  In26  1  0.35112163  -0.04271822  0.66124300  1
  In  In27  1  0.52363249  -0.00771987  0.17414318  1
  In  In28  1  0.49236256  0.33544820  0.49019923  1
  In  In29  1  0.32132900  0.66163626  0.32848184  1
  In  In30  1  0.66299176  0.30913651  0.34903611  1
  In  In31  1  0.33558087  0.15174405  0.50411351  1
  In  In32  1  0.84897702  0.47437139  -0.01146041  1
  In  In33  1  0.87110537  0.16993740  0.31704799  1
  In  In34  1  0.67380527  0.50489553  0.48951239  1
  In  In35  1  0.65402859  -0.00327095  0.00795467  1
  In  In36  1  -0.00489793  0.02592528  0.30231617  1
  In  In37  1  0.67965099  0.69039791  0.00796628  1
  In  In38  1  0.50471728  0.53054442  -0.00938752  1
  In  In39  1  0.82111738  0.66742947  0.49143820  1
  In  In40  1  0.65364400  0.83639081  0.83521609  1
  In  In41  1  -0.00689407  0.64660521  0.70488353  1
  In  In42  1  0.86295939  0.32850881  0.52368363  1
  In  In43  1  0.79871162  0.83832848  0.66663692  1
  In  In44  1  0.14806392  0.66122640  0.83755953  1
  In  In45  1  -0.00173882  0.16871345  0.50640882  1
  In  In46  1  0.67606326  0.33102747  0.68206364  1
  In  In47  1  0.64971188  0.69297629  0.33173610  1
  In  In48  1  0.68625454  0.49885161  0.15855664  1
  In  In49  1  0.18890042  0.33823750  0.85695613  1
  In  In50  1  0.82249824  0.01646843  0.83849395  1
  In  In51  1  0.45653240  -0.02504546  0.84799143  1
  In  In52  1  0.82166079  0.67626788  0.17783257  1
  In  In53  1  -0.00103383  0.82749557  0.14489458  1
  In  In54  1  0.65529496  0.68722838  0.66550026  1
  In  In55  1  0.14110165  0.16410379  0.70115585  1
  In  In56  1  0.17081840  0.81047042  0.69304842  1
  In  In57  1  0.82813414  0.18270354  -0.01251181  1
  In  In58  1  -0.00823037  0.65733530  -0.01593867  1
  In  In59  1  0.49436905  0.52163564  0.66512913  1
  In  In60  1  0.16368880  0.81373965  0.32598532  1
  In  In61  1  0.52039636  0.52543487  0.32982803  1
  In  In62  1  0.33677588  0.35169587  0.31816546  1
  In  In63  1  0.70146031  -0.00215599  0.31542642  1
  In  In64  1  0.32004485  0.50518429  0.86689637  1
  In  In65  1  0.47954492  0.12814804  0.33492839  1
  In  In66  1  0.86086313  0.32373280  0.15010893  1
  In  In67  1  0.86073702  0.85780144  0.29979549  1
  In  In68  1  0.64799751  0.82844484  0.49195192  1
  In  In69  1  0.17615831  0.00053897  0.49059457  1
  In  In70  1  0.27454075  -0.04292917  0.01316317  1
  In  In71  1  0.49563068  0.18511246  -0.00455364  1
  Te  Te72  1  0.07664095  0.03164116  0.07403421  1
  Te  Te73  1  0.09062827  0.09650936  0.40932530  1
  Te  Te74  1  0.09876940  0.05810331  0.80175414  1
  Te  Te75  1  0.07530507  0.43002643  0.06232196  1
  Te  Te76  1  0.10729245  0.45758977  0.37155107  1
  Te  Te77  1  0.09921299  0.39756299  0.74628044  1
  Te  Te78  1  0.08426152  0.72018388  0.08490794  1
  Te  Te79  1  0.08988745  0.72881793  0.42079092  1
  Te  Te80  1  0.04720620  0.77336591  0.77432071  1
  Te  Te81  1  0.43381973  0.07890845  0.08597870  1
  Te  Te82  1  0.43009931  0.04025008  0.45906000  1
  Te  Te83  1  0.41174096  0.07537878  0.73662056  1
  Te  Te84  1  0.42040204  0.44478767  0.08329559  1
  Te  Te85  1  0.42073582  0.43946212  0.40940887  1
  Te  Te86  1  0.40210436  0.42289437  0.74740974  1
  Te  Te87  1  0.32545253  0.65732443  0.03154076  1
  Te  Te88  1  0.41073646  0.73836005  0.41512759  1
  Te  Te89  1  0.43497533  0.77415535  0.74197642  1
  Te  Te90  1  0.72151921  0.11532886  0.06681529  1
  Te  Te91  1  0.77209176  0.09555884  0.40937769  1
  Te  Te92  1  0.71063363  0.07228346  0.75458778  1
  Te  Te93  1  0.74908924  0.39418542  0.07377986  1
  Te  Te94  1  0.76241425  0.40793721  0.41417098  1
  Te  Te95  1  0.77506028  0.42402092  0.73500201  1
  Te  Te96  1  0.77382398  0.77725625  0.08357093  1
  Te  Te97  1  0.76640272  0.77730387  0.39974668  1
  Te  Te98  1  0.75520155  0.73756359  0.76839781  1
  Te  Te99  1  0.06830143  0.23563046  0.22813602  1
  Te  Te100  1  0.09392701  0.25743440  0.58597495  1
  Te  Te101  1  0.09679967  0.24731342  0.93669787  1
  Te  Te102  1  0.11980801  0.58041270  0.27222093  1
  Te  Te103  1  0.07846233  0.60691666  0.59400058  1
  Te  Te104  1  0.06019400  0.55338256  0.89560665  1
  Te  Te105  1  0.07988066  0.91262907  0.24811378  1
  Te  Te106  1  0.08681640  0.92885469  0.59630473  1
  Te  Te107  1  0.12883005  0.91597352  0.97546203  1
  Te  Te108  1  0.43058427  0.25110062  0.24991334  1
  Te  Te109  1  0.41306458  0.25202501  0.59061260  1
  Te  Te110  1  0.39923432  0.26893146  0.92558758  1
  Te  Te111  1  0.42981942  0.59514759  0.23784130  1
  Te  Te112  1  0.40041260  0.58227014  0.57407773  1
  Te  Te113  1  0.41850809  0.61096801  0.89853302  1
  Te  Te114  1  0.40352232  0.91731286  0.23105662  1
  Te  Te115  1  0.42877601  0.91586338  0.54841536  1
  Te  Te116  1  0.39797975  0.88277463  0.95139172  1
  Te  Te117  1  0.76305341  0.25577078  0.25097240  1
  Te  Te118  1  0.73711875  0.25245173  0.56729424  1
  Te  Te119  1  0.77306417  0.27289601  0.88424207  1
  Te  Te120  1  0.74247581  0.57925732  0.27734454  1
  Te  Te121  1  0.74722555  0.58418429  0.59492035  1
  Te  Te122  1  0.75266292  0.57776890  0.93287320  1
  Te  Te123  1  0.76035420  0.91449781  0.20980854  1
  Te  Te124  1  0.70818637  0.93643496  0.59304096  1
  Te  Te125  1  0.75041339  0.91510690  0.92413760  1
  Te  Te126  1  0.25834213  0.24793763  0.09727001  1
  Te  Te127  1  0.26172279  0.25800788  0.41821052  1
  Te  Te128  1  0.25835485  0.23411585  0.76842711  1
  Te  Te129  1  0.19334298  0.59983339  0.06452381  1
  Te  Te130  1  0.23053879  0.55622651  0.38211085  1
  Te  Te131  1  0.24603064  0.58389156  0.75240479  1
  Te  Te132  1  0.26638247  0.88065580  0.13766687  1
  Te  Te133  1  0.25708007  0.89933050  0.41716971  1
  Te  Te134  1  0.24883081  0.91719643  0.76437115  1
  Te  Te135  1  0.60276981  0.24667711  0.07622938  1
  Te  Te136  1  0.56607681  0.22171095  0.42472141  1
  Te  Te137  1  0.56838336  0.24622362  0.75005326  1
  Te  Te138  1  0.59240754  0.59651202  0.09715098  1
  Te  Te139  1  0.57983119  0.61129318  0.44025248  1
  Te  Te140  1  0.58650079  0.58880591  0.76163459  1
  Te  Te141  1  0.57979470  0.89286335  0.08189183  1
  Te  Te142  1  0.59224124  0.92106734  0.38801430  1
  Te  Te143  1  0.54687027  0.90151490  0.75484009  1
  Te  Te144  1  0.94161383  0.24696305  0.05727652  1
  Te  Te145  1  0.94365624  0.27114961  0.40930062  1
  Te  Te146  1  0.91128829  0.22638090  0.73727779  1
  Te  Te147  1  0.90054101  0.57786926  0.09345542  1
  Te  Te148  1  0.92886393  0.59200169  0.42709051  1
  Te  Te149  1  0.92374674  0.55365269  0.79376545  1
  Te  Te150  1  0.94377054  0.95370409  0.09371667  1
  Te  Te151  1  0.94226372  0.92655939  0.41701204  1
  Te  Te152  1  0.89867134  0.92751308  0.74283456  1
  Te  Te153  1  0.23142309  0.06465556  0.24410996  1
  Te  Te154  1  0.23411982  0.09076005  0.59857772  1
  Te  Te155  1  0.27676632  0.08568773  0.94486466  1
  Te  Te156  1  0.25536755  0.42443962  0.21737382  1
  Te  Te157  1  0.25453291  0.42903395  0.55940476  1
  Te  Te158  1  0.24611211  0.42387383  0.96239643  1
  Te  Te159  1  0.26021339  0.75357985  0.22646222  1
  Te  Te160  1  0.24420512  0.75155958  0.58380001  1
  Te  Te161  1  0.22346392  0.74846763  0.93012707  1
  Te  Te162  1  0.60156173  0.09681553  0.25145504  1
  Te  Te163  1  0.61570732  0.05993481  0.56610788  1
  Te  Te164  1  0.56054777  0.07312335  0.90546451  1
  Te  Te165  1  0.59219280  0.41085556  0.25676915  1
  Te  Te166  1  0.58376441  0.41745009  0.58323718  1
  Te  Te167  1  0.58966362  0.42175787  0.92621922  1
  Te  Te168  1  0.58164889  0.76637717  0.22731906  1
  Te  Te169  1  0.55744068  0.76361230  0.58798227  1
  Te  Te170  1  0.57551614  0.75033235  0.92540121  1
  Te  Te171  1  0.89630695  0.07408741  0.20441437  1
  Te  Te172  1  0.90341770  0.07154901  0.57841073  1
  Te  Te173  1  0.92586370  0.07743270  0.92761279  1
  Te  Te174  1  0.94378267  0.41569173  0.23880973  1
  Te  Te175  1  0.93988828  0.44355501  0.57258127  1
  Te  Te176  1  0.94475457  0.43043842  0.88658416  1
  Te  Te177  1  0.93696408  0.73563515  0.25576692  1
  Te  Te178  1  0.90127573  0.76021812  0.58657049  1
  Te  Te179  1  0.90449537  0.76378148  0.93418739  1
