# generated using pymatgen
data_In2Te3
_symmetry_space_group_name_H-M   'P 1'
_cell_length_a   18.89492508
_cell_length_b   18.89215091
_cell_length_c   18.88967369
_cell_angle_alpha   89.96137937
_cell_angle_beta   89.95238755
_cell_angle_gamma   90.09790021
_symmetry_Int_Tables_number   1
_chemical_formula_structural   In2Te3
_chemical_formula_sum   'In72 Te108'
_cell_volume   6742.95331945
_cell_formula_units_Z   36
loop_
 _symmetry_equiv_pos_site_id
 _symmetry_equiv_pos_as_xyz
  1  'x, y, z'
loop_
 _atom_site_type_symbol
 _atom_site_label
 _atom_site_symmetry_multiplicity
 _atom_site_fract_x
 _atom_site_fract_y
 _atom_site_fract_z
 _atom_site_occupancy
  In  In0  1  0.16818451  0.31049534  0.18403476  1
  In  In1  1  0.50115272  -0.01009596  0.49811394  1
  In  In2  1  0.33321162  0.14357669  0.15868149  1
  In  In3  1  0.16298700  0.84410015  0.66251244  1
  In  In4  1  0.50405251  0.67307793  0.82527122  1
  In  In5  1  0.63618722  0.12549942  0.83039849  1
  In  In6  1  0.84558356  0.52256403  -0.00763652  1
  In  In7  1  0.35165847  0.48979831  0.51389044  1
  In  In8  1  0.33583221  0.83843138  0.19396997  1
  In  In9  1  0.20399369  0.12124866  0.63979677  1
  In  In10  1  0.18874452  0.51044177  0.66857188  1
  In  In11  1  0.16865053  -0.01003472  0.83993431  1
  In  In12  1  0.65414567  0.33547336  0.33504636  1
  In  In13  1  0.00059122  0.15956444  0.49073514  1
  In  In14  1  0.66603022  0.68020306  0.35961476  1
  In  In15  1  -0.05185811  0.76454693  0.67576654  1
  In  In16  1  0.52406351  0.31781638  0.16398920  1
  In  In17  1  0.14024134  0.02244081  0.15889286  1
  In  In18  1  0.82410172  0.85689236  0.00328978  1
  In  In19  1  0.79205985  0.11402881  -0.02661662  1
  In  In20  1  0.66829662  -0.00177198  0.66046195  1
  In  In21  1  0.18379845  0.83199398  0.33954255  1
  In  In22  1  0.66723057  0.87146841  0.15769198  1
  In  In23  1  0.49034535  0.16454458  0.34941952  1
  In  In24  1  0.36429288  0.33965488  0.67004951  1
  In  In25  1  0.34659561  -0.00919166  -0.00496299  1
  In  In26  1  0.52423144  0.50730626  0.64591418  1
  In  In27  1  -0.04004986  0.29360849  0.00639778  1
  In  In28  1  0.81293384  0.36160410  0.81808959  1
  In  In29  1  0.67338311  -0.00538053  0.34281661  1
  In  In30  1  0.14933505  0.49536477  0.34401959  1
  In  In31  1  0.13995355  0.84927393  0.00174528  1
  In  In32  1  0.16876620  0.66509583  0.49672532  1
  In  In33  1  0.35980286  0.13796920  0.82982396  1
  In  In34  1  0.34416640  0.68972543  0.01651897  1
  In  In35  1  0.50768587  0.49591165  -0.01002227  1
  In  In36  1  0.16376696  0.65463393  0.83020292  1
  In  In37  1  0.49813890  0.84911138  0.34681576  1
  In  In38  1  0.84281789  0.51753452  0.35245894  1
  In  In39  1  0.80413628  0.17672064  0.65613886  1
  In  In40  1  -0.00602741  -0.02503643  0.68222731  1
  In  In41  1  0.19190720  0.46840295  0.01707905  1
  In  In42  1  0.00319024  0.67961883  0.00218329  1
  In  In43  1  0.01880600  0.49198518  0.49571986  1
  In  In44  1  0.65413808  0.84055909  0.81985732  1
  In  In45  1  0.79565155  0.53607816  0.63183981  1
  In  In46  1  0.48674740  0.67901599  0.17240480  1
  In  In47  1  0.18938235  0.16029449  0.35499593  1
  In  In48  1  0.34338381  0.83366921  0.51827570  1
  In  In49  1  0.16808516  0.31588623  0.82101866  1
  In  In50  1  0.82132723  0.00151738  0.49683383  1
  In  In51  1  0.33720222  0.30567449  -0.03385000  1
  In  In52  1  0.01030104  0.31492667  0.64471837  1
  In  In53  1  -0.00179528  0.50240214  0.16007765  1
  In  In54  1  0.65804403  0.34252136  -0.01503855  1
  In  In55  1  0.67665077  0.50070704  0.18049259  1
  In  In56  1  -0.01050237  0.32033991  0.32272333  1
  In  In57  1  0.51492177  0.69232918  0.51004781  1
  In  In58  1  0.80800332  0.67137536  0.83570723  1
  In  In59  1  0.34032227  0.35022596  0.35092544  1
  In  In60  1  0.67811064  0.67468726  -0.01637949  1
  In  In61  1  -0.02049645  0.82710212  0.16928251  1
  In  In62  1  -0.01249402  0.15780208  0.84251592  1
  In  In63  1  -0.02511094  0.01474236  0.32293916  1
  In  In64  1  -0.01704126  0.69516385  0.34100375  1
  In  In65  1  0.81395748  0.34059195  0.50981544  1
  In  In66  1  -0.00214273  0.53435817  0.81736240  1
  In  In67  1  0.84206391  0.29292397  0.13225786  1
  In  In68  1  0.36117073  0.51114317  0.15807171  1
  In  In69  1  0.66118079  0.15501071  0.16797718  1
  In  In70  1  0.34507218  0.83806222  0.82752336  1
  In  In71  1  0.50509442  0.16424866  0.66105059  1
  Te  Te72  1  0.07673251  0.11111799  0.06335591  1
  Te  Te73  1  0.08957050  0.06300770  0.41790053  1
  Te  Te74  1  0.09051146  0.09244370  0.74724080  1
  Te  Te75  1  0.07347622  0.39065323  0.08839698  1
  Te  Te76  1  0.09041396  0.37954073  0.42190936  1
  Te  Te77  1  0.07660629  0.41415427  0.74751044  1
  Te  Te78  1  0.09339970  0.74662194  0.10344112  1
  Te  Te79  1  0.07936553  0.76890415  0.43306693  1
  Te  Te80  1  0.08047211  0.75641080  0.75914811  1
  Te  Te81  1  0.43441437  0.07863269  0.07598566  1
  Te  Te82  1  0.39799539  0.07846674  0.43275182  1
  Te  Te83  1  0.42149796  0.05888608  0.72362400  1
  Te  Te84  1  0.41857878  0.39725754  0.07323945  1
  Te  Te85  1  0.44722894  0.41017137  0.43334350  1
  Te  Te86  1  0.44247048  0.43456311  0.74861997  1
  Te  Te87  1  0.43442874  0.79048321  0.08347498  1
  Te  Te88  1  0.40924573  0.74565731  0.41240189  1
  Te  Te89  1  0.41759850  0.75072630  0.73444046  1
  Te  Te90  1  0.74197438  0.04929917  0.09833170  1
  Te  Te91  1  0.74209819  0.09921854  0.42161431  1
  Te  Te92  1  0.75904780  0.07413542  0.75812773  1
  Te  Te93  1  0.75841503  0.42051759  0.07830353  1
  Te  Te94  1  0.73498631  0.43468664  0.41994610  1
  Te  Te95  1  0.72595283  0.42890170  0.71621528  1
  Te  Te96  1  0.74797276  0.75598825  0.08859515  1
  Te  Te97  1  0.76528758  0.74259555  0.45125475  1
  Te  Te98  1  0.73215832  0.74694407  0.73066817  1
  Te  Te99  1  0.07959098  0.21597296  0.26024595  1
  Te  Te100  1  0.10963686  0.22698182  0.57465193  1
  Te  Te101  1  0.08406492  0.24283273  0.92474826  1
  Te  Te102  1  0.06872597  0.59223850  0.26077817  1
  Te  Te103  1  0.08146484  0.58932619  0.59698594  1
  Te  Te104  1  0.08979291  0.56553040  0.94403771  1
  Te  Te105  1  0.08342169  0.91329018  0.25295055  1
  Te  Te106  1  0.08085699  0.92716809  0.57442400  1
  Te  Te107  1  0.05521899  0.92961209  0.91313174  1
  Te  Te108  1  0.40967159  0.25459361  0.24301276  1
  Te  Te109  1  0.42400213  0.24989095  0.57049749  1
  Te  Te110  1  0.44625127  0.23813306  0.89611680  1
  Te  Te111  1  0.42249172  0.58691685  0.26652247  1
  Te  Te112  1  0.41697748  0.60150365  0.59005637  1
  Te  Te113  1  0.41170276  0.59244137  0.92227782  1
  Te  Te114  1  0.42417498  0.93753625  0.25660478  1
  Te  Te115  1  0.45019749  0.89509719  0.60294360  1
  Te  Te116  1  0.44120682  0.92669656  0.89936537  1
  Te  Te117  1  0.74605832  0.25244688  0.24771115  1
  Te  Te118  1  0.70725343  0.26544005  0.58579154  1
  Te  Te119  1  0.76179271  0.25050690  0.91577422  1
  Te  Te120  1  0.75667373  0.60103961  0.25894982  1
  Te  Te121  1  0.71354707  0.61833340  0.53486564  1
  Te  Te122  1  0.72932284  0.55795489  0.90093712  1
  Te  Te123  1  0.76499310  0.90927930  0.26202916  1
  Te  Te124  1  0.76647161  0.90435795  0.59711789  1
  Te  Te125  1  0.73121918  0.92920045  0.91146952  1
  Te  Te126  1  0.25084342  0.24196383  0.07651287  1
  Te  Te127  1  0.27552441  0.24844814  0.43529541  1
  Te  Te128  1  0.26304614  0.22992664  0.73950684  1
  Te  Te129  1  0.25104630  0.58996946  0.08805042  1
  Te  Te130  1  0.25692415  0.57043912  0.41955862  1
  Te  Te131  1  0.27186584  0.58432656  0.76270053  1
  Te  Te132  1  0.24383017  0.92079690  0.08780539  1
  Te  Te133  1  0.25853697  0.92265886  0.43381406  1
  Te  Te134  1  0.26336491  0.93083710  0.73726330  1
  Te  Te135  1  0.58507959  0.22879092  0.05805794  1
  Te  Te136  1  0.56241475  0.26631109  0.42815121  1
  Te  Te137  1  0.58243526  0.24213905  0.76219349  1
  Te  Te138  1  0.58744732  0.58612973  0.08578808  1
  Te  Te139  1  0.57880668  0.58249188  0.43074524  1
  Te  Te140  1  0.60197628  0.60575977  0.73292065  1
  Te  Te141  1  0.59853540  0.96581445  0.06644545  1
  Te  Te142  1  0.60746841  0.89561069  0.43999604  1
  Te  Te143  1  0.56332688  0.91354749  0.72531111  1
  Te  Te144  1  0.94105408  0.17234705  0.10836737  1
  Te  Te145  1  0.89774048  0.24797697  0.42104490  1
  Te  Te146  1  0.91023549  0.25773988  0.74712730  1
  Te  Te147  1  0.90721296  0.60905008  0.09997925  1
  Te  Te148  1  0.92354129  0.60115120  0.44849657  1
  Te  Te149  1  0.90056717  0.60557165  0.72703301  1
  Te  Te150  1  0.92597505  0.93023793  0.08073810  1
  Te  Te151  1  0.91754226  0.91861474  0.42030411  1
  Te  Te152  1  0.90199065  0.88344780  0.75036220  1
  Te  Te153  1  0.25255418  0.06216332  0.25694713  1
  Te  Te154  1  0.28297714  0.04914567  0.53818019  1
  Te  Te155  1  0.25071822  0.08599564  0.92335376  1
  Te  Te156  1  0.24575594  0.42734102  0.24359349  1
  Te  Te157  1  0.24755433  0.40316590  0.58337092  1
  Te  Te158  1  0.26072258  0.41584036  0.89268990  1
  Te  Te159  1  0.25671216  0.73378369  0.25825705  1
  Te  Te160  1  0.25273271  0.73949564  0.59885236  1
  Te  Te161  1  0.24134717  0.76212117  0.92222770  1
  Te  Te162  1  0.57106498  0.07311438  0.25943785  1
  Te  Te163  1  0.59851325  0.08745265  0.56071805  1
  Te  Te164  1  0.57643525  0.02812515  0.92410728  1
  Te  Te165  1  0.56439682  0.43265131  0.25551239  1
  Te  Te166  1  0.62146027  0.40490693  0.59876651  1
  Te  Te167  1  0.57481581  0.41450117  0.88693869  1
  Te  Te168  1  0.58951863  0.76256179  0.24974265  1
  Te  Te169  1  0.61826683  0.71750048  0.61729265  1
  Te  Te170  1  0.57236117  0.76441171  0.92815449  1
  Te  Te171  1  0.90002472  0.11358984  0.24748558  1
  Te  Te172  1  0.91744909  0.09000266  0.59900620  1
  Te  Te173  1  0.91234284  0.05257357  0.91327314  1
  Te  Te174  1  0.90203370  0.41712017  0.24417484  1
  Te  Te175  1  0.91364516  0.42382035  0.59209398  1
  Te  Te176  1  0.92491175  0.41895705  0.91305881  1
  Te  Te177  1  0.88190321  0.77704180  0.27007413  1
  Te  Te178  1  0.88054896  0.79117956  0.54709363  1
  Te  Te179  1  0.90720535  0.75478707  0.91535573  1
