# generated using pymatgen
data_In2Te3
_symmetry_space_group_name_H-M   'P 1'
_cell_length_a   18.78849205
_cell_length_b   18.80820608
_cell_length_c   18.80323785
_cell_angle_alpha   90.13789805
_cell_angle_beta   90.00186336
_cell_angle_gamma   90.02775783
_symmetry_Int_Tables_number   1
_chemical_formula_structural   In2Te3
_chemical_formula_sum   'In72 Te108'
_cell_volume   6644.62736735
_cell_formula_units_Z   36
loop_
 _symmetry_equiv_pos_site_id
 _symmetry_equiv_pos_as_xyz
  1  'x, y, z'
loop_
 _atom_site_type_symbol
 _atom_site_label
 _atom_site_symmetry_multiplicity
 _atom_site_fract_x
 _atom_site_fract_y
 _atom_site_fract_z
 _atom_site_occupancy
  In  In0  1  0.68253672  0.85675339  0.86321963  1
  In  In1  1  0.17728531  0.00487778  0.16453442  1
  In  In2  1  0.67374956  0.14236713  0.85355186  1
  In  In3  1  0.83625726  0.50159210  0.01127773  1
  In  In4  1  0.34718003  0.50659152  0.51079940  1
  In  In5  1  0.33265107  0.52209531  0.16361283  1
  In  In6  1  0.32970272  0.67625834  0.31981776  1
  In  In7  1  0.01223495  0.82435263  0.13122463  1
  In  In8  1  0.34333303  0.01244947  0.00120732  1
  In  In9  1  0.35253849  0.51377720  0.81590369  1
  In  In10  1  -0.00433264  0.30521687  0.00396457  1
  In  In11  1  0.49879039  -0.00791795  0.49087521  1
  In  In12  1  -0.01251226  -0.02442242  -0.01523514  1
  In  In13  1  0.18335172  0.82417359  0.68622863  1
  In  In14  1  0.81860040  0.31664939  0.82330778  1
  In  In15  1  0.31457013  0.82861662  0.85169820  1
  In  In16  1  0.15344162  -0.00540577  0.50816008  1
  In  In17  1  0.82174671  0.00980062  0.52447460  1
  In  In18  1  0.65975540  0.31699381  -0.00857609  1
  In  In19  1  0.81764729  0.68267825  0.15633463  1
  In  In20  1  0.52773019  0.82541797  0.32773861  1
  In  In21  1  0.83176746  0.64120938  0.49867752  1
  In  In22  1  0.85022810  0.17035263  0.31932847  1
  In  In23  1  0.16602001  0.65156709  0.52125011  1
  In  In24  1  0.01618146  0.67449481  0.68064551  1
  In  In25  1  0.00073607  0.65242372  0.32923276  1
  In  In26  1  0.65107640  0.53264670  0.79240443  1
  In  In27  1  0.67672288  0.50464149  0.16408992  1
  In  In28  1  0.49901653  0.52096573  -0.01839295  1
  In  In29  1  0.35285252  -0.00000243  0.68934659  1
  In  In30  1  0.00291183  0.16272523  0.49422556  1
  In  In31  1  0.50825081  0.68429411  0.49793201  1
  In  In32  1  0.16595524  0.52628251  -0.00023629  1
  In  In33  1  -0.00633025  0.15434597  0.16749961  1
  In  In34  1  0.67752537  -0.01112821  0.67635035  1
  In  In35  1  -0.01903402  0.50767969  0.16912448  1
  In  In36  1  0.52848750  0.85211847  0.01411688  1
  In  In37  1  0.64631931  0.02065157  0.30813590  1
  In  In38  1  0.83245589  0.17279826  0.66435561  1
  In  In39  1  0.51840253  0.82223703  0.67097837  1
  In  In40  1  -0.00186888  0.81200588  0.50841946  1
  In  In41  1  0.50788078  0.31064923  0.15940005  1
  In  In42  1  0.82163166  0.85933405  0.32013865  1
  In  In43  1  -0.02537063  -0.02918859  0.73418041  1
  In  In44  1  0.84397597  0.72137185  0.84008330  1
  In  In45  1  0.66419984  0.18990193  0.49870697  1
  In  In46  1  0.67898468  0.32379907  0.34242553  1
  In  In47  1  0.16463367  0.31440227  0.83510813  1
  In  In48  1  0.34876521  0.32462736  0.33935957  1
  In  In49  1  0.31653281  0.33351771  0.01247267  1
  In  In50  1  0.48746556  0.16763356  0.67301886  1
  In  In51  1  0.33193284  0.65352766  0.66271688  1
  In  In52  1  0.15355600  0.15563310  0.68827348  1
  In  In53  1  0.47549020  0.51309765  0.32176783  1
  In  In54  1  0.01546328  0.50657970  0.84429227  1
  In  In55  1  0.63996002  0.46227102  0.53034771  1
  In  In56  1  0.67092394  0.67245065  0.32174963  1
  In  In57  1  0.34049688  0.17909144  0.50123736  1
  In  In58  1  0.33185203  0.01404960  0.32237238  1
  In  In59  1  0.82943840  0.50217559  0.66342514  1
  In  In60  1  0.50663122  0.15329594  0.01027383  1
  In  In61  1  0.18363539  0.85578142  0.32525039  1
  In  In62  1  0.68436644  0.68383517  -0.00915904  1
  In  In63  1  0.16645946  0.32126661  0.15794843  1
  In  In64  1  -0.01602781  0.02804909  0.32995373  1
  In  In65  1  0.13507144  0.49408028  0.32317653  1
  In  In66  1  -0.00889710  0.34767105  0.34310385  1
  In  In67  1  0.18027331  0.50964807  0.65594768  1
  In  In68  1  0.32053575  0.16637255  0.84156422  1
  In  In69  1  -0.02100893  0.32766329  0.65859953  1
  In  In70  1  0.50900000  0.32623493  0.81179984  1
  In  In71  1  0.33966259  0.83789688  0.15042681  1
  Te  Te72  1  0.07724177  0.07292367  0.07201964  1
  Te  Te73  1  0.10353156  0.09245889  0.40247164  1
  Te  Te74  1  0.07726493  0.06689485  0.77830841  1
  Te  Te75  1  0.08035416  0.42032767  0.07516870  1
  Te  Te76  1  0.09407208  0.40726957  0.43280680  1
  Te  Te77  1  0.08390668  0.41285667  0.74522453  1
  Te  Te78  1  0.10688346  0.75163615  0.04437051  1
  Te  Te79  1  0.10050714  0.74933755  0.41285958  1
  Te  Te80  1  0.08454783  0.76238271  0.78084006  1
  Te  Te81  1  0.42207985  0.07787352  0.11218194  1
  Te  Te82  1  0.43011561  0.09787956  0.40671914  1
  Te  Te83  1  0.43652838  0.08180465  0.78716015  1
  Te  Te84  1  0.42526638  0.42235709  0.07929476  1
  Te  Te85  1  0.43697750  0.41299934  0.42826988  1
  Te  Te86  1  0.42032296  0.41301034  0.72962491  1
  Te  Te87  1  0.43157331  0.75516914  0.06975874  1
  Te  Te88  1  0.41202883  0.76554262  0.41186956  1
  Te  Te89  1  0.40552426  0.75485369  0.75056018  1
  Te  Te90  1  0.70524236  0.04157067  0.03714420  1
  Te  Te91  1  0.75261327  0.08321541  0.41093837  1
  Te  Te92  1  0.77596639  0.06856568  0.76184291  1
  Te  Te93  1  0.75319165  0.39870038  0.08585345  1
  Te  Te94  1  0.73717649  0.43073386  0.42481629  1
  Te  Te95  1  0.73398482  0.41091314  0.74160641  1
  Te  Te96  1  0.76455654  0.78445907  0.06394599  1
  Te  Te97  1  0.76458889  0.75185691  0.41236030  1
  Te  Te98  1  0.71927934  0.74890007  0.76585156  1
  Te  Te99  1  0.07420361  0.25007174  0.25541036  1
  Te  Te100  1  0.08966694  0.24892856  0.58555903  1
  Te  Te101  1  0.08711616  0.22436941  0.92166788  1
  Te  Te102  1  0.09494064  0.59768161  0.21985760  1
  Te  Te103  1  0.05785166  0.56542630  0.58065491  1
  Te  Te104  1  0.06721005  0.61497857  0.93089866  1
  Te  Te105  1  0.06956383  0.92145211  0.24766547  1
  Te  Te106  1  0.07424761  0.90596030  0.60482888  1
  Te  Te107  1  0.06800276  0.87138655  0.90839125  1
  Te  Te108  1  0.39712799  0.24100004  0.22704477  1
  Te  Te109  1  0.44301702  0.26823734  0.57149977  1
  Te  Te110  1  0.42806202  0.25833378  0.92539651  1
  Te  Te111  1  0.43464948  0.62098496  0.22346421  1
  Te  Te112  1  0.45647679  0.58040903  0.60064775  1
  Te  Te113  1  0.40094831  0.61026341  0.91698778  1
  Te  Te114  1  0.42303089  0.91241418  0.25385086  1
  Te  Te115  1  0.41827335  0.90737216  0.58822578  1
  Te  Te116  1  0.42263112  0.91392762  0.91738161  1
  Te  Te117  1  0.74221171  0.23459869  0.24209970  1
  Te  Te118  1  0.75651363  0.26876616  0.58247450  1
  Te  Te119  1  0.77170047  0.22678516  0.93743086  1
  Te  Te120  1  0.77270125  0.57683462  0.25768111  1
  Te  Te121  1  0.72162924  0.58135734  0.58826361  1
  Te  Te122  1  0.74853418  0.57145986  0.90888939  1
  Te  Te123  1  0.71275505  0.90795864  0.23034225  1
  Te  Te124  1  0.75715730  0.89666193  0.59182658  1
  Te  Te125  1  0.77933297  0.95708580  0.92622046  1
  Te  Te126  1  0.24540984  0.22400252  0.07894234  1
  Te  Te127  1  0.24545184  0.25996371  0.42303163  1
  Te  Te128  1  0.26349716  0.25629204  0.73324155  1
  Te  Te129  1  0.27788554  0.60824633  0.05506644  1
  Te  Te130  1  0.25062804  0.57910565  0.40784931  1
  Te  Te131  1  0.23114583  0.60104804  0.76496392  1
  Te  Te132  1  0.24071044  0.91282748  0.06187494  1
  Te  Te133  1  0.26647974  0.92498526  0.43149640  1
  Te  Te134  1  0.24075353  0.93787090  0.77134722  1
  Te  Te135  1  0.61523425  0.21859273  0.09976063  1
  Te  Te136  1  0.57043920  0.23998226  0.39734878  1
  Te  Te137  1  0.60880820  0.23062502  0.74685310  1
  Te  Te138  1  0.59203060  0.59595767  0.07799984  1
  Te  Te139  1  0.58262756  0.58140301  0.40918129  1
  Te  Te140  1  0.52856723  0.59174146  0.74088774  1
  Te  Te141  1  0.59586373  0.95508547  0.10339352  1
  Te  Te142  1  0.60870837  0.91584793  0.42034859  1
  Te  Te143  1  0.57663111  0.92473662  0.76779040  1
  Te  Te144  1  0.89806732  0.23740713  0.08997373  1
  Te  Te145  1  0.90206948  0.25739074  0.43269619  1
  Te  Te146  1  0.93241387  0.23220630  0.76688227  1
  Te  Te147  1  0.92320253  0.61102018  0.07025522  1
  Te  Te148  1  0.92318438  0.56105051  0.41390206  1
  Te  Te149  1  0.90948045  0.58871088  0.76402279  1
  Te  Te150  1  0.90587190  0.92206091  0.09985872  1
  Te  Te151  1  0.92519581  0.92107188  0.42605097  1
  Te  Te152  1  0.88727580  0.85855091  0.77514498  1
  Te  Te153  1  0.24103560  0.10555261  0.25145155  1
  Te  Te154  1  0.25838013  0.07841151  0.59351101  1
  Te  Te155  1  0.23519522  0.07978072  0.92350441  1
  Te  Te156  1  0.25353711  0.42088429  0.24479903  1
  Te  Te157  1  0.25582736  0.41186175  0.57650365  1
  Te  Te158  1  0.24873523  0.42273986  0.90812214  1
  Te  Te159  1  0.23531444  0.75181028  0.22720818  1
  Te  Te160  1  0.26187415  0.75719728  0.57289021  1
  Te  Te161  1  0.22905029  0.75431304  0.94512983  1
  Te  Te162  1  0.54389972  0.07380726  0.21531267  1
  Te  Te163  1  0.58726132  0.07855959  0.58538930  1
  Te  Te164  1  0.58744711  0.04703216  0.93477244  1
  Te  Te165  1  0.57474549  0.42183394  0.24480059  1
  Te  Te166  1  0.55025117  0.37846204  0.61121677  1
  Te  Te167  1  0.59222333  0.42385178  0.90548686  1
  Te  Te168  1  0.60443083  0.75701989  0.22052345  1
  Te  Te169  1  0.61007664  0.76296574  0.57101948  1
  Te  Te170  1  0.57834403  0.74981562  0.90544782  1
  Te  Te171  1  0.88148833  0.05512710  0.22092705  1
  Te  Te172  1  0.93937025  0.07156281  0.60071498  1
  Te  Te173  1  0.89512611  0.05751383  0.90057188  1
  Te  Te174  1  0.90233165  0.40771956  0.24128975  1
  Te  Te175  1  0.90563052  0.41750187  0.56915510  1
  Te  Te176  1  0.91446005  0.41054879  0.90937637  1
  Te  Te177  1  0.92173592  0.75858695  0.25337201  1
  Te  Te178  1  0.90229545  0.73809841  0.59834541  1
  Te  Te179  1  0.92929989  0.80984670  0.92889607  1
