# generated using pymatgen
data_In2Te3
_symmetry_space_group_name_H-M   'P 1'
_cell_length_a   18.94913239
_cell_length_b   18.95463154
_cell_length_c   18.93493349
_cell_angle_alpha   90.06621811
_cell_angle_beta   90.12170723
_cell_angle_gamma   89.97178837
_symmetry_Int_Tables_number   1
_chemical_formula_structural   In2Te3
_chemical_formula_sum   'In72 Te108'
_cell_volume   6800.91173788
_cell_formula_units_Z   36
loop_
 _symmetry_equiv_pos_site_id
 _symmetry_equiv_pos_as_xyz
  1  'x, y, z'
loop_
 _atom_site_type_symbol
 _atom_site_label
 _atom_site_symmetry_multiplicity
 _atom_site_fract_x
 _atom_site_fract_y
 _atom_site_fract_z
 _atom_site_occupancy
  In  In0  1  0.54098509  0.32980799  0.80064387  1
  In  In1  1  0.83719327  0.32473123  0.50700681  1
  In  In2  1  0.85289174  -0.00546293  0.16458776  1
  In  In3  1  0.67512907  0.82387706  0.19137696  1
  In  In4  1  -0.03226154  0.49952395  0.50159077  1
  In  In5  1  0.34103936  0.85690719  0.18473738  1
  In  In6  1  0.30518643  0.16286620  0.83142845  1
  In  In7  1  0.81282543  0.48357771  0.68099949  1
  In  In8  1  0.85639863  0.32101890  0.84279913  1
  In  In9  1  0.58947691  0.02653557  0.47516840  1
  In  In10  1  0.82401934  0.67571468  0.15130829  1
  In  In11  1  0.67935527  0.17002238  0.80757290  1
  In  In12  1  0.31121521  0.00763993  0.65882455  1
  In  In13  1  0.32922500  0.33242572  0.66276130  1
  In  In14  1  0.13300080  0.33539561  0.12957728  1
  In  In15  1  0.71368380  0.38397038  -0.03950581  1
  In  In16  1  0.33306865  0.50319092  0.84208417  1
  In  In17  1  0.17162676  0.15977490  0.33697027  1
  In  In18  1  0.32830991  0.67176679  0.00035684  1
  In  In19  1  0.17828264  0.84001813  0.68366964  1
  In  In20  1  0.80344293  0.01218727  0.47177709  1
  In  In21  1  0.35098063  0.68775934  0.32734649  1
  In  In22  1  0.82179271  0.85063497  0.63693628  1
  In  In23  1  0.00733557  0.01204454  0.34609942  1
  In  In24  1  0.51266534  0.35043016  0.47829683  1
  In  In25  1  0.00463262  0.83332250  0.52030622  1
  In  In26  1  0.52882987  0.53044166  0.36378780  1
  In  In27  1  0.16065034  0.49944724  0.31659796  1
  In  In28  1  -0.02342438  0.17269086  0.14886009  1
  In  In29  1  0.50541964  0.82544697  0.64865433  1
  In  In30  1  0.52486338  0.19161274  -0.03871258  1
  In  In31  1  0.32837546  0.32306750  0.01052698  1
  In  In32  1  0.69070095  0.17200904  0.17477576  1
  In  In33  1  0.12902404  0.30992821  0.87119643  1
  In  In34  1  0.15045522  0.47354744  0.69607034  1
  In  In35  1  0.66732187  0.49351323  0.15305290  1
  In  In36  1  0.32067254  0.15230968  0.17707571  1
  In  In37  1  -0.04311523  0.66066411  0.68044228  1
  In  In38  1  0.33082765  0.16682003  0.48183781  1
  In  In39  1  0.80956118  0.63774777  0.86197971  1
  In  In40  1  0.31717859  0.85964683  0.46792483  1
  In  In41  1  0.47952404  -0.00761293  0.82480653  1
  In  In42  1  0.15828434  0.65434786  0.50886369  1
  In  In43  1  0.35260594  0.51742346  0.51130038  1
  In  In44  1  0.67981293  0.32890694  0.31819810  1
  In  In45  1  0.35219527  0.65726604  0.67119795  1
  In  In46  1  0.12565414  0.00685301  0.84710941  1
  In  In47  1  0.13538028  0.22209200  0.52929124  1
  In  In48  1  0.80928124  0.81168087  0.35331926  1
  In  In49  1  0.68031003  0.85359813  0.81479915  1
  In  In50  1  0.50265823  0.16970844  0.32925772  1
  In  In51  1  0.00532075  0.00594721  0.66423043  1
  In  In52  1  0.68055368  -0.01089578  0.01309697  1
  In  In53  1  0.48378573  0.33036163  0.16487024  1
  In  In54  1  0.14039236  0.68260223  0.84877817  1
  In  In55  1  -0.02066295  0.63873047  0.00225496  1
  In  In56  1  0.33212031  0.49346708  0.16522607  1
  In  In57  1  0.02183023  0.66553048  0.32551310  1
  In  In58  1  0.18142027  0.65910058  0.16891423  1
  In  In59  1  0.86767243  0.02231492  0.83091099  1
  In  In60  1  0.34018362  0.00415262  0.00205216  1
  In  In61  1  -0.00404411  0.33586339  0.34769946  1
  In  In62  1  0.01418183  0.85509270  0.17419879  1
  In  In63  1  0.15843710  0.85310105  0.00615347  1
  In  In64  1  0.53696843  0.49383513  0.65164323  1
  In  In65  1  0.47008836  0.01308101  0.18366464  1
  In  In66  1  0.51961585  0.81114951  0.01612435  1
  In  In67  1  0.83766419  0.16775546  0.65929973  1
  In  In68  1  0.67515082  0.65995075  0.65284734  1
  In  In69  1  0.51627605  0.67770737  0.80412366  1
  In  In70  1  0.55222112  0.66288983  0.18655832  1
  In  In71  1  0.84195483  0.50007801  0.30752196  1
  Te  Te72  1  0.03954175  0.07316225  0.06012418  1
  Te  Te73  1  0.07869318  0.10525441  0.44313483  1
  Te  Te74  1  0.08620517  0.10527138  0.74117334  1
  Te  Te75  1  0.05570034  0.41777279  0.03521000  1
  Te  Te76  1  0.08282012  0.43204711  0.42903952  1
  Te  Te77  1  0.05753246  0.41117823  0.78874995  1
  Te  Te78  1  0.08550412  0.74260161  0.08527642  1
  Te  Te79  1  0.09460862  0.75993406  0.42025757  1
  Te  Te80  1  0.06556512  0.75381679  0.73820599  1
  Te  Te81  1  0.42773160  0.11085320  0.06667604  1
  Te  Te82  1  0.44055406  0.07964951  0.43128313  1
  Te  Te83  1  0.40615433  0.09522518  0.74045956  1
  Te  Te84  1  0.42527994  0.42834849  0.06434141  1
  Te  Te85  1  0.41090223  0.43327138  0.40126800  1
  Te  Te86  1  0.41996481  0.43116956  0.73825565  1
  Te  Te87  1  0.41253515  0.74645769  0.10407283  1
  Te  Te88  1  0.41271532  0.75094063  0.44321105  1
  Te  Te89  1  0.40821533  0.77164872  0.75367469  1
  Te  Te90  1  0.77247446  0.09210117  0.07499272  1
  Te  Te91  1  0.70571069  0.10438094  0.41273044  1
  Te  Te92  1  0.75629605  0.06261179  0.73564212  1
  Te  Te93  1  0.74765301  0.37788463  0.10730649  1
  Te  Te94  1  0.76424970  0.41651592  0.40755133  1
  Te  Te95  1  0.74493814  0.38822870  0.77100489  1
  Te  Te96  1  0.74291910  0.76991538  0.07399276  1
  Te  Te97  1  0.71033820  0.72537827  0.41870891  1
  Te  Te98  1  0.76342357  0.74785264  0.74326518  1
  Te  Te99  1  0.08137071  0.24131969  0.24477344  1
  Te  Te100  1  0.04203164  0.23002360  0.64178215  1
  Te  Te101  1  0.04987976  0.20859794  0.95111408  1
  Te  Te102  1  0.06774643  0.56799938  0.21795195  1
  Te  Te103  1  0.06551197  0.57826495  0.60205676  1
  Te  Te104  1  0.08438028  0.57089146  0.92297897  1
  Te  Te105  1  0.10104670  0.93217131  0.26490259  1
  Te  Te106  1  0.10706090  0.92704057  0.58138264  1
  Te  Te107  1  0.05517010  0.89612249  0.91123356  1
  Te  Te108  1  0.39549535  0.25427358  0.26166196  1
  Te  Te109  1  0.41766180  0.26383422  0.56260762  1
  Te  Te110  1  0.41093176  0.26197663  0.89117023  1
  Te  Te111  1  0.42574812  0.58351333  0.24416947  1
  Te  Te112  1  0.45865636  0.60179449  0.57834871  1
  Te  Te113  1  0.42634760  0.60308478  0.90746196  1
  Te  Te114  1  0.43827615  0.91059754  0.28839930  1
  Te  Te115  1  0.40381207  0.91987692  0.57902695  1
  Te  Te116  1  0.42448091  0.89980588  0.93243975  1
  Te  Te117  1  0.78625144  0.27028378  0.23263454  1
  Te  Te118  1  0.73901929  0.25234929  0.59026957  1
  Te  Te119  1  0.75096868  0.23690497  0.91936116  1
  Te  Te120  1  0.73807541  0.59219093  0.24526172  1
  Te  Te121  1  0.75321186  0.56406327  0.57060455  1
  Te  Te122  1  0.76133599  0.53190130  0.95299010  1
  Te  Te123  1  0.75855879  0.92498562  0.26587042  1
  Te  Te124  1  0.72194137  0.91960329  0.55375551  1
  Te  Te125  1  0.77257750  0.92711727  0.91028271  1
  Te  Te126  1  0.23225031  0.22913925  0.07995063  1
  Te  Te127  1  0.23533943  0.26965573  0.42171371  1
  Te  Te128  1  0.22880955  0.26861098  0.75540517  1
  Te  Te129  1  0.24245415  0.56551682  0.06582435  1
  Te  Te130  1  0.25029106  0.58810306  0.40387916  1
  Te  Te131  1  0.24119547  0.59045615  0.75204072  1
  Te  Te132  1  0.24432008  0.93909262  0.09994442  1
  Te  Te133  1  0.23478121  0.95080871  0.39126334  1
  Te  Te134  1  0.24767940  0.93692592  0.77571481  1
  Te  Te135  1  0.58451448  0.24649796  0.08910678  1
  Te  Te136  1  0.60534212  0.24223330  0.41763336  1
  Te  Te137  1  0.57196423  0.21422147  0.71085633  1
  Te  Te138  1  0.59384811  0.58985714  0.06897970  1
  Te  Te139  1  0.63878151  0.58847619  0.44053507  1
  Te  Te140  1  0.61145445  0.56877992  0.76071099  1
  Te  Te141  1  0.57335442  0.92501894  0.10262791  1
  Te  Te142  1  0.56446638  0.91696671  0.37982632  1
  Te  Te143  1  0.58053350  0.93019788  0.73009889  1
  Te  Te144  1  0.94510586  0.28198146  0.04747365  1
  Te  Te145  1  0.92291061  0.23727373  0.42618073  1
  Te  Te146  1  0.93652734  0.22593404  0.75794533  1
  Te  Te147  1  0.87274645  0.55924205  0.07084476  1
  Te  Te148  1  0.91068753  0.59974838  0.40496194  1
  Te  Te149  1  0.90763726  0.55732827  0.77661293  1
  Te  Te150  1  0.92092905  0.90321298  0.07303059  1
  Te  Te151  1  0.91816899  0.90744218  0.41826924  1
  Te  Te152  1  0.91797731  0.90864951  0.73951192  1
  Te  Te153  1  0.27381925  0.06039993  0.28645252  1
  Te  Te154  1  0.23397486  0.11313757  0.58515927  1
  Te  Te155  1  0.23012269  0.08312047  0.93379273  1
  Te  Te156  1  0.23519243  0.39933429  0.23082057  1
  Te  Te157  1  0.24803519  0.43428588  0.58379610  1
  Te  Te158  1  0.24410365  0.40736164  0.91682502  1
  Te  Te159  1  0.24138828  0.76580544  0.25792240  1
  Te  Te160  1  0.25270727  0.74310970  0.58949851  1
  Te  Te161  1  0.24799547  0.76647938  0.91430091  1
  Te  Te162  1  0.59251683  0.08106234  0.24470979  1
  Te  Te163  1  0.58957873  0.10739538  0.59760529  1
  Te  Te164  1  0.58968148  0.06436493  0.90926021  1
  Te  Te165  1  0.56978569  0.41706224  0.25801685  1
  Te  Te166  1  0.61391385  0.39615217  0.57498285  1
  Te  Te167  1  0.57218037  0.40532184  0.92071537  1
  Te  Te168  1  0.57951140  0.76440105  0.29023652  1
  Te  Te169  1  0.61186720  0.76390726  0.56602766  1
  Te  Te170  1  0.60374122  0.75493479  0.90252544  1
  Te  Te171  1  0.90990449  0.09372943  0.26471726  1
  Te  Te172  1  0.90707741  0.06995226  0.56554963  1
  Te  Te173  1  0.94364193  0.09339127  0.93862383  1
  Te  Te174  1  0.94315539  0.41916916  0.23912937  1
  Te  Te175  1  0.92163426  0.40400002  0.60741159  1
  Te  Te176  1  0.92705667  0.40152461  0.94831577  1
  Te  Te177  1  0.91919472  0.75433587  0.25235413  1
  Te  Te178  1  0.89566940  0.73765277  0.56481998  1
  Te  Te179  1  0.90702412  0.73185549  0.91543613  1
