# generated using pymatgen
data_In2Te3
_symmetry_space_group_name_H-M   'P 1'
_cell_length_a   19.04098368
_cell_length_b   19.03638492
_cell_length_c   19.02829782
_cell_angle_alpha   89.95481773
_cell_angle_beta   89.70637328
_cell_angle_gamma   89.69751934
_symmetry_Int_Tables_number   1
_chemical_formula_structural   In2Te3
_chemical_formula_sum   'In72 Te108'
_cell_volume   6897.02686709
_cell_formula_units_Z   36
loop_
 _symmetry_equiv_pos_site_id
 _symmetry_equiv_pos_as_xyz
  1  'x, y, z'
loop_
 _atom_site_type_symbol
 _atom_site_label
 _atom_site_symmetry_multiplicity
 _atom_site_fract_x
 _atom_site_fract_y
 _atom_site_fract_z
 _atom_site_occupancy
  In  In0  1  0.32433666  0.52985446  0.83144618  1
  In  In1  1  0.51337009  0.82516320  -0.02552853  1
  In  In2  1  0.81791550  0.01668038  0.48896425  1
  In  In3  1  0.16961948  0.83696146  0.65597675  1
  In  In4  1  0.50050570  -0.02188418  0.82662210  1
  In  In5  1  0.32598187  0.48425402  0.17722205  1
  In  In6  1  0.85902862  0.49283274  0.33086939  1
  In  In7  1  0.16369955  0.52472181  -0.01069639  1
  In  In8  1  0.00760065  0.83203527  0.81125489  1
  In  In9  1  0.34948398  -0.00406773  0.31627635  1
  In  In10  1  0.49190359  0.14624750  0.35597256  1
  In  In11  1  0.66369397  0.35095707  0.01390336  1
  In  In12  1  0.82873019  -0.00540353  0.85969301  1
  In  In13  1  0.66002089  -0.00090843  0.34130309  1
  In  In14  1  0.16648359  0.35479952  0.16293895  1
  In  In15  1  0.68474537  0.52613960  0.82749962  1
  In  In16  1  0.15297058  0.79652061  0.32393934  1
  In  In17  1  -0.02031166  0.15679789  0.15338488  1
  In  In18  1  0.01505639  -0.01659586  0.33387224  1
  In  In19  1  0.65587620  0.83446014  0.16743913  1
  In  In20  1  0.32308202  0.35302899  -0.00113107  1
  In  In21  1  0.13479694  0.16226804  -0.02748112  1
  In  In22  1  0.67610882  0.84212955  0.49971937  1
  In  In23  1  0.81070138  0.17787458  0.02572526  1
  In  In24  1  0.00186927  0.33212772  0.34092607  1
  In  In25  1  0.35348944  0.83788229  0.50199225  1
  In  In26  1  0.51765605  0.82584349  0.33984957  1
  In  In27  1  -0.02650806  0.68219212  0.32272041  1
  In  In28  1  0.70259096  0.66322516  0.36080515  1
  In  In29  1  0.47843865  0.64745061  0.17965769  1
  In  In30  1  -0.03596362  -0.00342158  0.01678451  1
  In  In31  1  0.83902096  -0.02476940  0.19450571  1
  In  In32  1  0.13244484  0.54403045  0.34079386  1
  In  In33  1  0.68687013  0.67041591  0.66695330  1
  In  In34  1  0.34239392  0.16944957  0.16004086  1
  In  In35  1  0.81020339  0.51224349  0.01200707  1
  In  In36  1  0.34410891  0.00813168  0.65860954  1
  In  In37  1  0.31008376  0.82928333  0.16631568  1
  In  In38  1  0.18052417  0.17276642  0.33035229  1
  In  In39  1  0.63132403  0.16943497  0.83114652  1
  In  In40  1  0.66389839  0.47363818  0.48906776  1
  In  In41  1  -0.00908316  0.65832404  0.00005920  1
  In  In42  1  0.46005042  0.50948038  0.00964442  1
  In  In43  1  0.65951615  0.34779390  0.63892031  1
  In  In44  1  0.13939787  0.63906329  0.51629687  1
  In  In45  1  0.83339979  0.83289523  0.02453331  1
  In  In46  1  0.18862112  -0.00161561  0.48863904  1
  In  In47  1  0.49626152  0.48079334  0.62799001  1
  In  In48  1  0.85359516  0.35321319  0.50551550  1
  In  In49  1  0.00040870  0.01930447  0.68053041  1
  In  In50  1  0.17569566  -0.00391559  0.83670006  1
  In  In51  1  0.47841530  0.15044660  -0.01424239  1
  In  In52  1  0.14922577  0.81350504  0.00669518  1
  In  In53  1  0.34180326  0.33044500  0.38430132  1
  In  In54  1  0.63635997  0.68497222  0.00220524  1
  In  In55  1  0.35660407  0.29169996  0.62033613  1
  In  In56  1  -0.03825897  0.83010706  0.52925759  1
  In  In57  1  0.66180687  0.49043664  0.20230397  1
  In  In58  1  0.54635469  0.30048642  0.19776339  1
  In  In59  1  0.34310561  0.70158750  0.70893574  1
  In  In60  1  0.82392261  0.16535821  0.66986624  1
  In  In61  1  0.51425116  0.34834384  0.82292704  1
  In  In62  1  0.16978384  0.35403699  0.53013632  1
  In  In63  1  0.32415329  0.16787945  0.81444256  1
  In  In64  1  0.32214467  0.69440178  -0.02674331  1
  In  In65  1  -0.00443357  0.49785940  0.81369508  1
  In  In66  1  0.63545771  0.02880167  0.64031883  1
  In  In67  1  0.51968597  0.66969543  0.50565113  1
  In  In68  1  0.85163286  0.32877383  0.83627442  1
  In  In69  1  0.68836391  0.13974161  0.19713345  1
  In  In70  1  0.84848799  0.49234244  0.66057401  1
  In  In71  1  -0.00378193  0.18508436  0.80806769  1
  Te  Te72  1  0.08042991  0.07095612  0.08099341  1
  Te  Te73  1  0.08939205  0.08706223  0.41688049  1
  Te  Te74  1  0.10734871  0.10040844  0.74507900  1
  Te  Te75  1  0.08509226  0.43203449  0.07148450  1
  Te  Te76  1  0.09187389  0.42430850  0.41886870  1
  Te  Te77  1  0.08045072  0.42730491  0.71298534  1
  Te  Te78  1  0.09117669  0.71372253  0.09702838  1
  Te  Te79  1  0.06738699  0.75485962  0.44301572  1
  Te  Te80  1  0.06736047  0.74305939  0.71028164  1
  Te  Te81  1  0.41417466  0.06702147  0.08598838  1
  Te  Te82  1  0.38519623  0.07958021  0.43439199  1
  Te  Te83  1  0.43410434  0.09196756  0.74772965  1
  Te  Te84  1  0.42917877  0.39192049  0.10056187  1
  Te  Te85  1  0.39497047  0.42901201  0.48003170  1
  Te  Te86  1  0.41563110  0.43439794  0.74980191  1
  Te  Te87  1  0.42672148  0.74430298  0.07696067  1
  Te  Te88  1  0.42080938  0.73569558  0.41220708  1
  Te  Te89  1  0.44699692  0.74929369  0.80009917  1
  Te  Te90  1  0.75453535  0.05454495  0.09287538  1
  Te  Te91  1  0.74454525  0.10444446  0.39743495  1
  Te  Te92  1  0.73837500  0.08289545  0.76371171  1
  Te  Te93  1  0.75763608  0.39571668  0.12463239  1
  Te  Te94  1  0.75633397  0.40015047  0.39654506  1
  Te  Te95  1  0.74580188  0.40397502  0.75538270  1
  Te  Te96  1  0.74475734  0.73507326  0.09715605  1
  Te  Te97  1  0.77284742  0.73628344  0.46419305  1
  Te  Te98  1  0.80589033  0.73868819  0.71748054  1
  Te  Te99  1  0.08780808  0.24000253  0.23047796  1
  Te  Te100  1  0.07386695  0.29871020  0.62699428  1
  Te  Te101  1  0.08428426  0.26884818  0.88816403  1
  Te  Te102  1  0.07619307  0.62153902  0.22994380  1
  Te  Te103  1  0.07641689  0.54320923  0.60878882  1
  Te  Te104  1  0.07884354  0.59983881  0.88857470  1
  Te  Te105  1  0.10928147  0.91307108  0.24839329  1
  Te  Te106  1  0.07468162  0.93093789  0.57936594  1
  Te  Te107  1  0.06061250  0.93545062  0.91390236  1
  Te  Te108  1  0.41052526  0.25087261  0.26654726  1
  Te  Te109  1  0.43313555  0.18929731  0.54837967  1
  Te  Te110  1  0.41726559  0.26985086  0.90806343  1
  Te  Te111  1  0.41549982  0.55235870  0.26965944  1
  Te  Te112  1  0.42634654  0.61358073  0.60832474  1
  Te  Te113  1  0.43459800  0.61026346  0.90116826  1
  Te  Te114  1  0.43127093  0.89558698  0.23827754  1
  Te  Te115  1  0.43567761  0.91210712  0.59447675  1
  Te  Te116  1  0.40549440  0.89900130  0.90491734  1
  Te  Te117  1  0.75016324  0.26710853  0.21356265  1
  Te  Te118  1  0.75418137  0.25363452  0.57013026  1
  Te  Te119  1  0.73424611  0.25555987  0.90869623  1
  Te  Te120  1  0.76886007  0.58592010  0.25001533  1
  Te  Te121  1  0.74696445  0.56443372  0.57411417  1
  Te  Te122  1  0.75241084  0.61891025  0.92240611  1
  Te  Te123  1  0.74445554  0.89020132  0.27583350  1
  Te  Te124  1  0.74889286  0.93396276  0.59375599  1
  Te  Te125  1  0.74775927  0.89327927  0.92366008  1
  Te  Te126  1  0.24055658  0.24865341  0.06993524  1
  Te  Te127  1  0.23830488  0.24145158  0.45043812  1
  Te  Te128  1  0.26462632  0.27127567  0.73140859  1
  Te  Te129  1  0.27936373  0.57941025  0.06943028  1
  Te  Te130  1  0.24236733  0.58545440  0.42569790  1
  Te  Te131  1  0.24138312  0.60159108  0.73645468  1
  Te  Te132  1  0.24914185  0.90484889  0.05948232  1
  Te  Te133  1  0.25780832  0.89770571  0.39754328  1
  Te  Te134  1  0.26222670  0.91162059  0.74761862  1
  Te  Te135  1  0.57918542  0.23650848  0.06683795  1
  Te  Te136  1  0.59031556  0.22602277  0.42558474  1
  Te  Te137  1  0.57240210  0.25213118  0.72186974  1
  Te  Te138  1  0.58322329  0.56551461  0.09061681  1
  Te  Te139  1  0.58759765  0.57641902  0.40774463  1
  Te  Te140  1  0.58942266  0.56431826  0.71875823  1
  Te  Te141  1  0.58375814  0.91256698  0.06960545  1
  Te  Te142  1  0.56606770  0.92881512  0.43686450  1
  Te  Te143  1  0.59560066  0.92025298  0.72920909  1
  Te  Te144  1  0.92089465  0.25958463  0.06865596  1
  Te  Te145  1  0.92727742  0.24959572  0.43378809  1
  Te  Te146  1  0.92202723  0.27726487  0.70977429  1
  Te  Te147  1  0.90138449  0.58941084  0.09374037  1
  Te  Te148  1  0.92188385  0.58879277  0.42245974  1
  Te  Te149  1  0.89262538  0.59167789  0.76063122  1
  Te  Te150  1  0.94322236  0.88282792  0.12462235  1
  Te  Te151  1  0.90663642  0.91503125  0.41865455  1
  Te  Te152  1  0.90460004  0.92527300  0.74697065  1
  Te  Te153  1  0.24924687  0.07614580  0.23652650  1
  Te  Te154  1  0.22816705  0.07994551  0.60254629  1
  Te  Te155  1  0.25887095  0.08687227  0.92373350  1
  Te  Te156  1  0.25002650  0.40051711  0.27877758  1
  Te  Te157  1  0.28711146  0.42561244  0.58899551  1
  Te  Te158  1  0.23853914  0.42392759  0.90002247  1
  Te  Te159  1  0.25980371  0.72561130  0.25396764  1
  Te  Te160  1  0.25844375  0.74635266  0.57619329  1
  Te  Te161  1  0.21577546  0.75172832  0.89246761  1
  Te  Te162  1  0.56674489  0.07024181  0.24566573  1
  Te  Te163  1  0.57849361  0.12801938  0.54605544  1
  Te  Te164  1  0.58613032  0.06322189  0.92595249  1
  Te  Te165  1  0.56833903  0.41238012  0.28565196  1
  Te  Te166  1  0.55636524  0.37395061  0.53041018  1
  Te  Te167  1  0.58590900  0.44223454  0.91860708  1
  Te  Te168  1  0.58966490  0.72254748  0.25464057  1
  Te  Te169  1  0.58953212  0.76321201  0.59829445  1
  Te  Te170  1  0.59445757  0.75006253  0.87338135  1
  Te  Te171  1  0.91387002  0.08344848  0.26656707  1
  Te  Te172  1  0.92012806  0.09316153  0.57693966  1
  Te  Te173  1  0.91395104  0.10668888  0.91526770  1
  Te  Te174  1  0.94798269  0.42004363  0.23980322  1
  Te  Te175  1  0.94493734  0.46403479  0.54974204  1
  Te  Te176  1  0.90785512  0.43394669  0.92665312  1
  Te  Te177  1  0.91374242  0.78895646  0.24637555  1
  Te  Te178  1  0.92293967  0.72092259  0.62224041  1
  Te  Te179  1  0.92285419  0.76650971  0.91928610  1
