# generated using pymatgen
data_In2Te3
_symmetry_space_group_name_H-M   'P 1'
_cell_length_a   18.94373582
_cell_length_b   18.97150658
_cell_length_c   18.94830625
_cell_angle_alpha   89.95766201
_cell_angle_beta   89.97285749
_cell_angle_gamma   89.90944251
_symmetry_Int_Tables_number   1
_chemical_formula_structural   In2Te3
_chemical_formula_sum   'In72 Te108'
_cell_volume   6809.84355856
_cell_formula_units_Z   36
loop_
 _symmetry_equiv_pos_site_id
 _symmetry_equiv_pos_as_xyz
  1  'x, y, z'
loop_
 _atom_site_type_symbol
 _atom_site_label
 _atom_site_symmetry_multiplicity
 _atom_site_fract_x
 _atom_site_fract_y
 _atom_site_fract_z
 _atom_site_occupancy
  In  In0  1  0.68009436  0.83076859  0.49484359  1
  In  In1  1  0.01483236  0.68207295  -0.02088498  1
  In  In2  1  0.33495018  0.65679159  0.33468187  1
  In  In3  1  0.31025104  0.80968872  0.80875753  1
  In  In4  1  0.66710193  0.01911277  0.65539735  1
  In  In5  1  0.84133946  0.49820026  0.67752317  1
  In  In6  1  0.68194978  0.14961159  0.18575442  1
  In  In7  1  0.47405941  0.33488654  0.13670457  1
  In  In8  1  0.67968661  0.83188510  0.16268474  1
  In  In9  1  0.49838517  -0.00064346  0.49922047  1
  In  In10  1  0.17871030  0.50004599  0.32215490  1
  In  In11  1  0.34617833  -0.01252853  0.01252356  1
  In  In12  1  0.00259696  0.33532669  0.00664728  1
  In  In13  1  0.67046094  0.83582980  0.85196943  1
  In  In14  1  0.32010906  0.49960055  0.51182967  1
  In  In15  1  0.82131455  0.32363730  0.84164378  1
  In  In16  1  -0.00601737  0.34159130  0.66317861  1
  In  In17  1  0.67120984  0.68607368  -0.01027761  1
  In  In18  1  0.17898065  0.16219566  0.65814093  1
  In  In19  1  0.33872186  -0.01214762  0.32201555  1
  In  In20  1  0.01444194  0.13973223  0.16676142  1
  In  In21  1  0.48869855  0.50052907  -0.02707067  1
  In  In22  1  0.81761556  0.00558975  0.81773420  1
  In  In23  1  0.17660566  0.69466952  0.16593162  1
  In  In24  1  0.00092303  0.19524540  0.82347500  1
  In  In25  1  0.86434181  0.81391813  0.65801980  1
  In  In26  1  0.48657320  0.68327706  0.17382063  1
  In  In27  1  0.00141375  0.52903395  0.82461674  1
  In  In28  1  0.32488083  0.16488794  0.16934242  1
  In  In29  1  0.50890149  0.16219950  0.31649361  1
  In  In30  1  0.16138354  0.31392850  0.49338220  1
  In  In31  1  0.64336881  0.35322892  -0.00023816  1
  In  In32  1  0.82498710  0.32199797  0.49221604  1
  In  In33  1  0.82094438  0.64798438  0.84015851  1
  In  In34  1  0.48311027  0.83551177  0.68205373  1
  In  In35  1  0.64144009  0.32864298  0.67293403  1
  In  In36  1  0.82576847  0.52370159  -0.00497275  1
  In  In37  1  0.01818650  0.00100163  0.34163474  1
  In  In38  1  0.65981973  0.34048206  0.32397440  1
  In  In39  1  0.02064330  0.49977669  0.18695339  1
  In  In40  1  0.85864164  0.66459061  0.19271112  1
  In  In41  1  -0.00044442  -0.02406260  0.64159559  1
  In  In42  1  0.16007512  0.15850723  0.35357586  1
  In  In43  1  0.83697554  0.84010942  0.32973327  1
  In  In44  1  0.18399710  0.36574547  0.87046671  1
  In  In45  1  0.49880470  0.52161438  0.33670385  1
  In  In46  1  0.15502464  0.66676243  0.79355828  1
  In  In47  1  0.49314598  0.33565666  0.50965911  1
  In  In48  1  0.48646028  0.01863621  0.83612547  1
  In  In49  1  -0.01356060  0.33967204  0.34018597  1
  In  In50  1  0.29536450  0.80668977  0.51123624  1
  In  In51  1  0.84194058  0.66000549  0.50647950  1
  In  In52  1  0.83372221  0.16231754  0.00664308  1
  In  In53  1  0.34944278  0.34807297  0.66800437  1
  In  In54  1  0.33403873  0.65335390  0.01367656  1
  In  In55  1  0.17326786  0.85489121  0.01076434  1
  In  In56  1  0.67023363  0.50037883  0.14039014  1
  In  In57  1  0.14675638  0.82125934  0.35155615  1
  In  In58  1  0.35742782  0.03425296  0.66973477  1
  In  In59  1  0.64624427  0.64445874  0.68733902  1
  In  In60  1  0.82933656  0.49600789  0.34494495  1
  In  In61  1  0.83865712  0.01859555  0.49272369  1
  In  In62  1  0.83700671  0.15230845  0.32944695  1
  In  In63  1  0.18624605  0.32969510  0.16170135  1
  In  In64  1  0.03253934  0.54487030  0.52607457  1
  In  In65  1  0.50179972  0.63642071  0.51891124  1
  In  In66  1  0.16334817  -0.00601661  0.84456970  1
  In  In67  1  0.33663292  0.17538879  0.82600593  1
  In  In68  1  -0.02109913  -0.01885616  0.01648904  1
  In  In69  1  0.50013817  0.83235114  0.33294453  1
  In  In70  1  0.50143096  0.17129086  -0.01945225  1
  In  In71  1  0.50694547  0.82292559  -0.00839469  1
  Te  Te72  1  0.08633219  0.06856550  0.06162894  1
  Te  Te73  1  0.08699026  0.07462618  0.44842384  1
  Te  Te74  1  0.08250138  0.08376277  0.74929696  1
  Te  Te75  1  0.09903141  0.42618983  0.08002610  1
  Te  Te76  1  0.08012027  0.42821014  0.41911177  1
  Te  Te77  1  0.07894420  0.41292200  0.76479198  1
  Te  Te78  1  0.07042737  0.77059152  0.08801562  1
  Te  Te79  1  0.09066497  0.76242571  0.47668702  1
  Te  Te80  1  0.11500813  0.78941474  0.71792288  1
  Te  Te81  1  0.42894066  0.08888747  0.08766978  1
  Te  Te82  1  0.41306633  0.08678084  0.40869856  1
  Te  Te83  1  0.45756153  0.13114531  0.73322741  1
  Te  Te84  1  0.38899356  0.42150398  0.05225817  1
  Te  Te85  1  0.41230183  0.42614037  0.41541632  1
  Te  Te86  1  0.46090101  0.40896557  0.74435303  1
  Te  Te87  1  0.40009617  0.77088588  0.08648179  1
  Te  Te88  1  0.41928888  0.74632376  0.43203993  1
  Te  Te89  1  0.41872992  0.72567542  0.75371249  1
  Te  Te90  1  0.76724560  0.06859335  0.09679098  1
  Te  Te91  1  0.73772391  0.09116568  0.41722239  1
  Te  Te92  1  0.71133127  0.10342777  0.77151920  1
  Te  Te93  1  0.76814961  0.40706297  0.07283276  1
  Te  Te94  1  0.72839140  0.42335830  0.43093678  1
  Te  Te95  1  0.74132917  0.41958799  0.75677926  1
  Te  Te96  1  0.77524035  0.73783157  0.08455461  1
  Te  Te97  1  0.75512057  0.73420760  0.40725343  1
  Te  Te98  1  0.74618009  0.75005786  0.74248588  1
  Te  Te99  1  0.07762532  0.25617748  0.25257308  1
  Te  Te100  1  0.06692675  0.23620532  0.58291496  1
  Te  Te101  1  0.09655252  0.24708460  0.92772882  1
  Te  Te102  1  0.08997853  0.60818033  0.26291566  1
  Te  Te103  1  0.12719593  0.58637986  0.64207219  1
  Te  Te104  1  0.10670039  0.57935923  0.91840378  1
  Te  Te105  1  0.07428734  0.90027609  0.24965752  1
  Te  Te106  1  0.09635637  0.87820262  0.58477808  1
  Te  Te107  1  0.06747306  0.90112950  0.91243817  1
  Te  Te108  1  0.41107546  0.26004087  0.25201075  1
  Te  Te109  1  0.39509597  0.24639353  0.57290079  1
  Te  Te110  1  0.41267957  0.26613353  0.91377216  1
  Te  Te111  1  0.40237270  0.57069530  0.22951871  1
  Te  Te112  1  0.39491485  0.58650420  0.60539626  1
  Te  Te113  1  0.38969367  0.58178719  0.89405129  1
  Te  Te114  1  0.43517192  0.91908997  0.23525950  1
  Te  Te115  1  0.40144199  0.90657599  0.57589034  1
  Te  Te116  1  0.40598492  0.90233161  0.89668077  1
  Te  Te117  1  0.76485593  0.26184573  0.25040268  1
  Te  Te118  1  0.73751634  0.25516595  0.58723937  1
  Te  Te119  1  0.73002537  0.24494863  0.93051450  1
  Te  Te120  1  0.74498872  0.57812385  0.24651087  1
  Te  Te121  1  0.74444497  0.57908459  0.59043214  1
  Te  Te122  1  0.71166637  0.56454199  0.90436746  1
  Te  Te123  1  0.74240382  0.92503663  0.25692117  1
  Te  Te124  1  0.76170642  0.90998314  0.59589330  1
  Te  Te125  1  0.77042485  0.91469400  0.93085119  1
  Te  Te126  1  0.25047788  0.23936695  0.06725625  1
  Te  Te127  1  0.25868250  0.25451220  0.40295548  1
  Te  Te128  1  0.23613448  0.26595901  0.75546782  1
  Te  Te129  1  0.24199755  0.58105919  0.10164337  1
  Te  Te130  1  0.23448480  0.59519243  0.42893830  1
  Te  Te131  1  0.24486980  0.56917458  0.73036247  1
  Te  Te132  1  0.24305362  0.94111678  0.10604503  1
  Te  Te133  1  0.24466108  0.91664014  0.42055081  1
  Te  Te134  1  0.26331636  0.93934436  0.74450679  1
  Te  Te135  1  0.59228610  0.24700464  0.09867217  1
  Te  Te136  1  0.58246536  0.25140940  0.41626480  1
  Te  Te137  1  0.59698865  0.21456760  0.75707184  1
  Te  Te138  1  0.56985919  0.59706603  0.07347553  1
  Te  Te139  1  0.59704031  0.58935939  0.41919715  1
  Te  Te140  1  0.54951518  0.53524568  0.71842292  1
  Te  Te141  1  0.60096361  0.90948185  0.06215277  1
  Te  Te142  1  0.59538902  0.92256696  0.41033405  1
  Te  Te143  1  0.58777453  0.92141668  0.75357587  1
  Te  Te144  1  0.92495770  0.24346489  0.09732232  1
  Te  Te145  1  0.92656435  0.23047562  0.42547163  1
  Te  Te146  1  0.89275784  0.24930465  0.73011947  1
  Te  Te147  1  0.93776527  0.58333606  0.07867604  1
  Te  Te148  1  0.93203147  0.58284967  0.41138789  1
  Te  Te149  1  0.92403832  0.61429423  0.72813796  1
  Te  Te150  1  0.86593503  0.89784011  0.05301819  1
  Te  Te151  1  0.92545578  0.91509151  0.42830331  1
  Te  Te152  1  0.92410409  0.91072173  0.75699852  1
  Te  Te153  1  0.23357743  0.07455231  0.25077889  1
  Te  Te154  1  0.26540188  0.08521415  0.56851439  1
  Te  Te155  1  0.26489774  0.07876052  0.91890409  1
  Te  Te156  1  0.26825590  0.40497340  0.25768601  1
  Te  Te157  1  0.22981422  0.40686688  0.59106283  1
  Te  Te158  1  0.30033340  0.44693735  0.90717220  1
  Te  Te159  1  0.26587632  0.76919977  0.26367984  1
  Te  Te160  1  0.23068801  0.73909857  0.62848701  1
  Te  Te161  1  0.23941109  0.74638957  0.92694429  1
  Te  Te162  1  0.57993357  0.05914275  0.24128698  1
  Te  Te163  1  0.58208256  0.09799789  0.56754198  1
  Te  Te164  1  0.58257214  0.05508676  0.94019997  1
  Te  Te165  1  0.57151529  0.42392820  0.22941779  1
  Te  Te166  1  0.56635987  0.43685782  0.59267164  1
  Te  Te167  1  0.55290573  0.39423570  0.88935222  1
  Te  Te168  1  0.59560050  0.74004617  0.25711558  1
  Te  Te169  1  0.58591084  0.75733742  0.59082812  1
  Te  Te170  1  0.56606345  0.72982669  0.88785031  1
  Te  Te171  1  0.91419769  0.05567279  0.24198799  1
  Te  Te172  1  0.90086958  0.07918703  0.61083721  1
  Te  Te173  1  0.92157131  0.08965620  0.90103582  1
  Te  Te174  1  0.90457116  0.41712612  0.23879007  1
  Te  Te175  1  0.91820044  0.43002827  0.56497408  1
  Te  Te176  1  0.91897337  0.42473260  0.90983956  1
  Te  Te177  1  0.94274340  0.76295445  0.25975860  1
  Te  Te178  1  0.95147629  0.75051981  0.55451535  1
  Te  Te179  1  0.91295054  0.74629401  0.89570424  1
