# generated using pymatgen
data_In2Te3
_symmetry_space_group_name_H-M   'P 1'
_cell_length_a   18.81886724
_cell_length_b   18.81791752
_cell_length_c   18.81316749
_cell_angle_alpha   90.01248456
_cell_angle_beta   89.97669619
_cell_angle_gamma   89.98609968
_symmetry_Int_Tables_number   1
_chemical_formula_structural   In2Te3
_chemical_formula_sum   'In72 Te108'
_cell_volume   6662.34168250
_cell_formula_units_Z   36
loop_
 _symmetry_equiv_pos_site_id
 _symmetry_equiv_pos_as_xyz
  1  'x, y, z'
loop_
 _atom_site_type_symbol
 _atom_site_label
 _atom_site_symmetry_multiplicity
 _atom_site_fract_x
 _atom_site_fract_y
 _atom_site_fract_z
 _atom_site_occupancy
  In  In0  1  0.66289819  0.32755096  0.65888828  1
  In  In1  1  -0.01495151  0.32746857  0.03092044  1
  In  In2  1  0.33192058  0.66095844  0.68347482  1
  In  In3  1  0.14720496  0.00218981  0.17338688  1
  In  In4  1  0.83998538  0.66590136  0.48911600  1
  In  In5  1  0.16753790  0.01083464  0.49178383  1
  In  In6  1  0.77836365  0.82980074  0.65849024  1
  In  In7  1  0.15317023  0.34620225  0.83687105  1
  In  In8  1  0.51144468  0.51343025  0.00226374  1
  In  In9  1  0.35055986  0.01624541  0.63893069  1
  In  In10  1  0.51814399  0.50590359  0.32691670  1
  In  In11  1  0.84096156  0.13342611  0.66095998  1
  In  In12  1  0.65582842  0.66240651  0.00255369  1
  In  In13  1  -0.03410832  0.15446781  0.51272180  1
  In  In14  1  0.31567830  0.50959895  0.16139418  1
  In  In15  1  -0.00367765  0.52876603  0.82927749  1
  In  In16  1  0.84070523  0.52012990  0.64572491  1
  In  In17  1  0.52195498  -0.00088828  0.49527987  1
  In  In18  1  0.84514064  0.49143993  0.00095794  1
  In  In19  1  0.33055620  0.34426533  0.32106116  1
  In  In20  1  -0.00167618  0.67696531  0.00769344  1
  In  In21  1  0.20031581  -0.01540959  0.85807309  1
  In  In22  1  0.34018510  0.84050498  0.49679544  1
  In  In23  1  0.35054605  0.82735069  0.84507458  1
  In  In24  1  0.36096034  0.17711895  0.49095420  1
  In  In25  1  0.14519803  0.35154165  0.17655326  1
  In  In26  1  0.14639240  0.82898949  0.32052222  1
  In  In27  1  0.50235829  0.15712582  0.65976223  1
  In  In28  1  0.33794616  0.14365744  0.81498649  1
  In  In29  1  0.67275740  -0.01049169  0.32739682  1
  In  In30  1  0.34576350  0.82897380  0.16966012  1
  In  In31  1  -0.00777204  0.03229536  0.64434725  1
  In  In32  1  0.00374214  0.15459425  0.84896727  1
  In  In33  1  0.51488786  0.67030895  0.82871551  1
  In  In34  1  0.50113386  0.67226956  0.14720772  1
  In  In35  1  0.84110405  0.32773404  0.19809731  1
  In  In36  1  -0.00395363  0.65608034  0.33128327  1
  In  In37  1  0.15936544  0.65560029  0.48953764  1
  In  In38  1  0.15075936  0.66946556  0.16319593  1
  In  In39  1  0.52013036  0.34960800  0.18426006  1
  In  In40  1  0.52651512  0.14341936  0.33465353  1
  In  In41  1  0.51784614  0.70496808  0.52598850  1
  In  In42  1  0.80320467  0.34520614  0.46836483  1
  In  In43  1  0.15479718  0.17738997  0.32219858  1
  In  In44  1  0.32762241  0.32811415  -0.01356198  1
  In  In45  1  0.49280844  0.82604922  0.32118317  1
  In  In46  1  0.00048174  0.66641953  0.64487794  1
  In  In47  1  -0.01800599  0.33550979  0.66080762  1
  In  In48  1  0.00691438  -0.00657334  0.02829008  1
  In  In49  1  0.33801808  0.15425931  0.15918484  1
  In  In50  1  0.14681521  0.84144335  0.67266932  1
  In  In51  1  0.84030942  0.13495032  0.30309879  1
  In  In52  1  0.79996042  0.32070402  0.85351031  1
  In  In53  1  0.68037111  0.00740408  0.02887235  1
  In  In54  1  0.84627499  0.86418003  0.33668795  1
  In  In55  1  0.02100013  0.35624107  0.35843367  1
  In  In56  1  0.81712075  -0.01680912  0.83072738  1
  In  In57  1  0.50411552  0.49380585  0.66857342  1
  In  In58  1  0.66550192  0.67576550  0.32132768  1
  In  In59  1  0.50608488  0.16046701  0.00811159  1
  In  In60  1  0.51878001  0.31797284  0.49517058  1
  In  In61  1  0.84132833  0.85545197  0.00601101  1
  In  In62  1  0.30264056  0.49731204  0.50212859  1
  In  In63  1  0.14510480  0.19498755  0.68660738  1
  In  In64  1  0.65820200  0.50328796  0.83846140  1
  In  In65  1  0.82523395  0.65721478  0.17820049  1
  In  In66  1  0.67537150  0.16919648  0.84356077  1
  In  In67  1  0.65765739  0.33550556  0.00911436  1
  In  In68  1  -0.00645270  0.81838499  0.81563993  1
  In  In69  1  0.17428207  0.80820457  0.00102652  1
  In  In70  1  0.34136804  -0.00691364  -0.02356802  1
  In  In71  1  0.33389012  0.50042117  0.82656999  1
  Te  Te72  1  0.08974402  0.10225310  0.08119792  1
  Te  Te73  1  0.06629544  0.09113360  0.41223069  1
  Te  Te74  1  0.09690741  0.06802418  0.76022017  1
  Te  Te75  1  0.07855151  0.43269057  0.07329270  1
  Te  Te76  1  0.11316709  0.43562413  0.45088722  1
  Te  Te77  1  0.07373254  0.43076045  0.73758166  1
  Te  Te78  1  0.06271848  0.77992969  0.10052567  1
  Te  Te79  1  0.06422308  0.75655718  0.42654709  1
  Te  Te80  1  0.09570658  0.72399832  0.75335051  1
  Te  Te81  1  0.42815191  0.05568212  0.08738876  1
  Te  Te82  1  0.41398229  0.06420053  0.40766845  1
  Te  Te83  1  0.44514505  0.05189185  0.75530124  1
  Te  Te84  1  0.42004724  0.41226141  0.08626062  1
  Te  Te85  1  0.42272443  0.41704808  0.41891992  1
  Te  Te86  1  0.42007425  0.40680849  0.75133731  1
  Te  Te87  1  0.41946477  0.76055139  0.06065905  1
  Te  Te88  1  0.41393275  0.73497523  0.41560459  1
  Te  Te89  1  0.43477783  0.76116163  0.73486356  1
  Te  Te90  1  0.77317547  0.11107930  0.08023768  1
  Te  Te91  1  0.75181937  0.08325837  0.41157506  1
  Te  Te92  1  0.72722352  0.06902317  0.74093270  1
  Te  Te93  1  0.75478414  0.41377328  0.09417459  1
  Te  Te94  1  0.73790645  0.44978586  0.38641543  1
  Te  Te95  1  0.75820206  0.42113905  0.74397172  1
  Te  Te96  1  0.75606543  0.74849301  0.07929516  1
  Te  Te97  1  0.75319604  0.76411272  0.40865215  1
  Te  Te98  1  0.72348826  0.76157948  0.77767666  1
  Te  Te99  1  0.05113897  0.25254969  0.24328022  1
  Te  Te100  1  0.07225000  0.25314844  0.56825217  1
  Te  Te101  1  0.08294873  0.25183013  0.93380454  1
  Te  Te102  1  0.08656310  0.56999078  0.25139746  1
  Te  Te103  1  0.07169035  0.56170641  0.56574885  1
  Te  Te104  1  0.08675082  0.59079191  0.92654036  1
  Te  Te105  1  0.05208017  0.93646400  0.27024035  1
  Te  Te106  1  0.07041541  0.91959960  0.56688581  1
  Te  Te107  1  0.07809356  0.90779191  0.91122789  1
  Te  Te108  1  0.42654020  0.24183074  0.25683036  1
  Te  Te109  1  0.41527888  0.26822129  0.59811773  1
  Te  Te110  1  0.42104382  0.23755639  0.90800879  1
  Te  Te111  1  0.41933447  0.58792850  0.24406123  1
  Te  Te112  1  0.41799989  0.58575629  0.57980039  1
  Te  Te113  1  0.41528654  0.59339621  0.91771680  1
  Te  Te114  1  0.40910198  0.92910588  0.25709786  1
  Te  Te115  1  0.44355551  0.90575247  0.58839219  1
  Te  Te116  1  0.44923006  0.91025364  0.91691321  1
  Te  Te117  1  0.74085090  0.23569856  0.25801305  1
  Te  Te118  1  0.77031778  0.25015493  0.58650816  1
  Te  Te119  1  0.76030461  0.21867940  0.96380144  1
  Te  Te120  1  0.76156903  0.56577917  0.28016932  1
  Te  Te121  1  0.73828030  0.59225595  0.56994285  1
  Te  Te122  1  0.75811043  0.58481622  0.91761300  1
  Te  Te123  1  0.75416951  0.91375199  0.22540647  1
  Te  Te124  1  0.69314829  0.93343543  0.59153240  1
  Te  Te125  1  0.72399492  0.90225052  0.91948975  1
  Te  Te126  1  0.25072009  0.26426720  0.10183001  1
  Te  Te127  1  0.25145927  0.25240612  0.41439816  1
  Te  Te128  1  0.25727912  0.26558701  0.75862754  1
  Te  Te129  1  0.25240850  0.60809575  0.07377219  1
  Te  Te130  1  0.26151039  0.59590843  0.40132079  1
  Te  Te131  1  0.23889293  0.55733465  0.72803175  1
  Te  Te132  1  0.24527282  0.91940594  0.07843602  1
  Te  Te133  1  0.24615191  0.91523662  0.40305742  1
  Te  Te134  1  0.26299717  0.92174328  0.73229906  1
  Te  Te135  1  0.59186130  0.23848659  0.10717729  1
  Te  Te136  1  0.61055485  0.23770145  0.41197545  1
  Te  Te137  1  0.57872704  0.25053805  0.75795665  1
  Te  Te138  1  0.60515162  0.56427261  0.10987878  1
  Te  Te139  1  0.58002340  0.60457240  0.42593367  1
  Te  Te140  1  0.60394861  0.59397827  0.73040861  1
  Te  Te141  1  0.60855052  0.92574864  0.12934755  1
  Te  Te142  1  0.59356957  0.89194886  0.41494601  1
  Te  Te143  1  0.63459868  0.86953598  0.72228860  1
  Te  Te144  1  0.89516576  0.22680571  0.09559893  1
  Te  Te145  1  0.90953145  0.25186854  0.40745313  1
  Te  Te146  1  0.91065930  0.23669594  0.75990717  1
  Te  Te147  1  0.92649566  0.57544188  0.09764472  1
  Te  Te148  1  0.91421443  0.56243894  0.41231890  1
  Te  Te149  1  0.89825730  0.61399098  0.75063680  1
  Te  Te150  1  0.89360173  0.94418771  0.11910791  1
  Te  Te151  1  0.92643001  0.92584539  0.44330713  1
  Te  Te152  1  0.92129204  0.92491465  0.73485242  1
  Te  Te153  1  0.25118355  0.07797632  0.25842202  1
  Te  Te154  1  0.23979995  0.10848803  0.58703434  1
  Te  Te155  1  0.24755824  0.10756902  0.93368629  1
  Te  Te156  1  0.22793958  0.44276703  0.26818445  1
  Te  Te157  1  0.21533523  0.39153046  0.55399578  1
  Te  Te158  1  0.23766854  0.43460198  0.92880398  1
  Te  Te159  1  0.25285085  0.74240456  0.25332457  1
  Te  Te160  1  0.24568672  0.75656377  0.58419510  1
  Te  Te161  1  0.24492287  0.73776508  0.89309410  1
  Te  Te162  1  0.58200264  0.05574437  0.22554236  1
  Te  Te163  1  0.60201306  0.10152120  0.56621433  1
  Te  Te164  1  0.58851704  0.06886512  0.91899745  1
  Te  Te165  1  0.61836397  0.40193852  0.28472646  1
  Te  Te166  1  0.59888770  0.42811635  0.56526948  1
  Te  Te167  1  0.56613241  0.40515311  0.90790316  1
  Te  Te168  1  0.59378561  0.76855501  0.22182072  1
  Te  Te169  1  0.63950199  0.76427236  0.59304844  1
  Te  Te170  1  0.56197455  0.75903224  0.94029050  1
  Te  Te171  1  0.93720465  0.04521704  0.23478447  1
  Te  Te172  1  0.86744250  0.03108047  0.54156571  1
  Te  Te173  1  0.91109016  0.06178871  0.92381467  1
  Te  Te174  1  0.93031462  0.42667867  0.26515467  1
  Te  Te175  1  0.90953119  0.41843722  0.55625696  1
  Te  Te176  1  0.92246131  0.40440025  0.90027682  1
  Te  Te177  1  0.91597297  0.75610135  0.24856631  1
  Te  Te178  1  0.90466994  0.76629572  0.58534155  1
  Te  Te179  1  0.90131620  0.74823035  0.91329834  1
