# generated using pymatgen
data_In2Te3
_symmetry_space_group_name_H-M   'P 1'
_cell_length_a   18.77005805
_cell_length_b   18.75927123
_cell_length_c   18.77453263
_cell_angle_alpha   89.95663635
_cell_angle_beta   89.95476223
_cell_angle_gamma   90.00809753
_symmetry_Int_Tables_number   1
_chemical_formula_structural   In2Te3
_chemical_formula_sum   'In72 Te108'
_cell_volume   6610.74566552
_cell_formula_units_Z   36
loop_
 _symmetry_equiv_pos_site_id
 _symmetry_equiv_pos_as_xyz
  1  'x, y, z'
loop_
 _atom_site_type_symbol
 _atom_site_label
 _atom_site_symmetry_multiplicity
 _atom_site_fract_x
 _atom_site_fract_y
 _atom_site_fract_z
 _atom_site_occupancy
  In  In0  1  0.32560072  0.16486741  0.50701084  1
  In  In1  1  0.47695661  0.00310055  0.83520822  1
  In  In2  1  0.65046351  0.00759494  0.66506928  1
  In  In3  1  0.65304031  0.47934398  0.85385527  1
  In  In4  1  0.00290107  0.85499263  0.17893710  1
  In  In5  1  0.66643261  0.66322192  0.67734305  1
  In  In6  1  0.83528164  -0.02080589  0.83601978  1
  In  In7  1  0.29897396  0.02804679  0.31246029  1
  In  In8  1  0.87025191  0.14563032  0.63366198  1
  In  In9  1  0.03480477  0.31004919  0.65487409  1
  In  In10  1  0.85263030  0.15093712  0.35133151  1
  In  In11  1  0.31492949  0.31841305  0.33213480  1
  In  In12  1  0.14488322  0.85069757  0.32982504  1
  In  In13  1  0.83097448  0.34169664  0.50148450  1
  In  In14  1  0.65435207  0.17892069  0.16022769  1
  In  In15  1  0.65202455  -0.00233846  0.00560288  1
  In  In16  1  0.47824188  0.81441307  0.32923287  1
  In  In17  1  0.85192937  0.48623521  0.36098441  1
  In  In18  1  0.50643584  0.49776316  0.32107241  1
  In  In19  1  0.82130346  0.85989476  0.34638892  1
  In  In20  1  0.32102651  0.48048834  0.14764331  1
  In  In21  1  0.16327992  0.48800339  0.66608200  1
  In  In22  1  0.82751950  0.32640740  0.15899320  1
  In  In23  1  0.05448893  0.04277065  0.01085061  1
  In  In24  1  0.82626988  0.67298229  0.14192930  1
  In  In25  1  0.17899833  0.05473294  0.84583613  1
  In  In26  1  0.03392291  0.47267792  0.14261977  1
  In  In27  1  0.31652645  0.49434051  0.51935503  1
  In  In28  1  0.67324682  0.32719733  0.67821845  1
  In  In29  1  0.01665666  0.49040154  0.49542796  1
  In  In30  1  0.02177870  0.66223193  -0.03663784  1
  In  In31  1  0.32266303  0.66208279  0.35651995  1
  In  In32  1  0.83933554  0.82512260  0.00659738  1
  In  In33  1  0.32708463  0.01661728  0.66375078  1
  In  In34  1  0.03507384  0.32109183  -0.01265624  1
  In  In35  1  0.50329055  -0.00986293  0.51933511  1
  In  In36  1  0.17936444  0.00806231  0.49095632  1
  In  In37  1  -0.00614715  0.83112502  0.49529784  1
  In  In38  1  0.87364658  0.53820667  0.68736721  1
  In  In39  1  0.17254867  0.65003746  0.16121090  1
  In  In40  1  0.34018338  0.84458765  0.84695752  1
  In  In41  1  0.64135650  0.65818817  -0.01561434  1
  In  In42  1  0.17962068  0.84581201  0.00901670  1
  In  In43  1  0.84174531  0.33508216  0.84481505  1
  In  In44  1  0.68434851  0.01041317  0.33050928  1
  In  In45  1  0.49640955  0.18155130  0.33596294  1
  In  In46  1  0.49732458  0.84925640  0.67274022  1
  In  In47  1  0.33818675  0.83515042  0.14617924  1
  In  In48  1  0.83265491  0.18260869  -0.00938630  1
  In  In49  1  0.65599111  0.15897446  0.83265952  1
  In  In50  1  0.66894227  0.50594363  0.49801891  1
  In  In51  1  0.47295706  0.48019525  0.69122695  1
  In  In52  1  0.49788902  0.66804068  0.14823708  1
  In  In53  1  0.47629599  0.01319470  0.12939869  1
  In  In54  1  0.66668252  0.83434303  0.51428400  1
  In  In55  1  0.00102126  0.83221550  0.81978823  1
  In  In56  1  0.46268244  0.32422291  0.83799966  1
  In  In57  1  0.65055099  0.50539071  0.17396128  1
  In  In58  1  0.02830569  0.18111953  0.85332251  1
  In  In59  1  0.17219990  0.82537475  0.66173123  1
  In  In60  1  0.00650875  0.66096760  0.32641828  1
  In  In61  1  0.83467833  0.49632400  0.00201254  1
  In  In62  1  0.49154950  0.31261606  0.50177115  1
  In  In63  1  0.03243866  0.00346865  0.32983471  1
  In  In64  1  0.48015248  0.32990155  0.14717953  1
  In  In65  1  0.84569187  0.00061703  0.19263858  1
  In  In66  1  0.32328817  0.67649074  0.66493829  1
  In  In67  1  0.67076265  0.66784297  0.34193883  1
  In  In68  1  0.15123609  0.66246263  0.83178163  1
  In  In69  1  0.34002403  0.49899758  0.89390844  1
  In  In70  1  0.83092962  0.82818711  0.67381580  1
  In  In71  1  0.02501437  0.31914103  0.32429211  1
  Te  Te72  1  0.12134110  0.15304940  0.08484646  1
  Te  Te73  1  0.09067409  0.10693420  0.42100057  1
  Te  Te74  1  0.07666528  0.09117499  0.74495124  1
  Te  Te75  1  0.13955416  0.39446720  0.07089096  1
  Te  Te76  1  0.10575309  0.40159801  0.41793540  1
  Te  Te77  1  0.08354349  0.40238554  0.75929532  1
  Te  Te78  1  0.07297130  0.75241733  0.08771120  1
  Te  Te79  1  0.09533132  0.73976529  0.42258069  1
  Te  Te80  1  0.06606353  0.73241915  0.72346857  1
  Te  Te81  1  0.38671256  0.12043938  0.08312266  1
  Te  Te82  1  0.41543123  0.07631193  0.41608257  1
  Te  Te83  1  0.40675858  0.10832515  0.75240682  1
  Te  Te84  1  0.39411719  0.39954110  0.04587211  1
  Te  Te85  1  0.41562815  0.41316449  0.41079297  1
  Te  Te86  1  0.35941411  0.40758498  0.75896404  1
  Te  Te87  1  0.41201428  0.74459267  0.05251935  1
  Te  Te88  1  0.41380300  0.74270578  0.44002280  1
  Te  Te89  1  0.42125069  0.74899302  0.76001366  1
  Te  Te90  1  0.75976560  0.08304928  0.08433511  1
  Te  Te91  1  0.74723497  0.08913749  0.43674064  1
  Te  Te92  1  0.76311564  0.08689803  0.75040429  1
  Te  Te93  1  0.73232405  0.41295478  0.07798844  1
  Te  Te94  1  0.73082922  0.40346001  0.40255867  1
  Te  Te95  1  0.76461306  0.42915980  0.74769288  1
  Te  Te96  1  0.71982509  0.75621287  0.07551010  1
  Te  Te97  1  0.76368254  0.74734911  0.43309418  1
  Te  Te98  1  0.73476284  0.76032822  0.76387879  1
  Te  Te99  1  0.10720888  0.24381337  0.22517368  1
  Te  Te100  1  0.11310538  0.22092466  0.56738016  1
  Te  Te101  1  0.14089844  0.27867249  0.88202936  1
  Te  Te102  1  0.09491676  0.55866620  0.25619143  1
  Te  Te103  1  0.08523986  0.58437413  0.58644327  1
  Te  Te104  1  0.11135305  0.55129763  0.92473752  1
  Te  Te105  1  0.11843385  0.94820133  0.21271303  1
  Te  Te106  1  0.08703515  0.92109390  0.57786244  1
  Te  Te107  1  0.08365186  0.92104814  0.91346808  1
  Te  Te108  1  0.39621495  0.23357158  0.23413086  1
  Te  Te109  1  0.39313723  0.26049324  0.59969629  1
  Te  Te110  1  0.36518948  0.22778780  0.90381968  1
  Te  Te111  1  0.40734510  0.58551588  0.24412651  1
  Te  Te112  1  0.42011330  0.58176526  0.58958208  1
  Te  Te113  1  0.44213679  0.60352377  0.91747175  1
  Te  Te114  1  0.41105140  0.92816894  0.25089917  1
  Te  Te115  1  0.39033224  0.90597507  0.57971613  1
  Te  Te116  1  0.41141989  0.92870688  0.94677781  1
  Te  Te117  1  0.75727912  0.23549803  0.25772072  1
  Te  Te118  1  0.75415745  0.23837034  0.58421192  1
  Te  Te119  1  0.72730389  0.26555437  0.91907012  1
  Te  Te120  1  0.76074019  0.57546136  0.25657154  1
  Te  Te121  1  0.76250963  0.58574091  0.58699710  1
  Te  Te122  1  0.75201670  0.58394828  0.90805215  1
  Te  Te123  1  0.73374479  0.90421177  0.22866033  1
  Te  Te124  1  0.75668094  0.93313880  0.58495086  1
  Te  Te125  1  0.73548031  0.90054525  0.91979641  1
  Te  Te126  1  0.26206803  0.21248935  0.05799087  1
  Te  Te127  1  0.22627386  0.25115517  0.43348076  1
  Te  Te128  1  0.31407727  0.23628769  0.76302610  1
  Te  Te129  1  0.26086272  0.58738951  0.06200980  1
  Te  Te130  1  0.23334223  0.56282827  0.41769554  1
  Te  Te131  1  0.25995878  0.57778172  0.76275424  1
  Te  Te132  1  0.25428569  0.94539349  0.08942777  1
  Te  Te133  1  0.26275033  0.91170541  0.40672648  1
  Te  Te134  1  0.24077692  0.92511898  0.75933551  1
  Te  Te135  1  0.56873506  0.24476519  0.06098164  1
  Te  Te136  1  0.59598537  0.23998590  0.42685830  1
  Te  Te137  1  0.56507229  0.24709183  0.74673400  1
  Te  Te138  1  0.55745771  0.55428632  0.06442340  1
  Te  Te139  1  0.56632592  0.59335808  0.42464921  1
  Te  Te140  1  0.57347061  0.57153620  0.76111788  1
  Te  Te141  1  0.55772865  0.90448782  0.07271098  1
  Te  Te142  1  0.58290414  0.91120423  0.40950151  1
  Te  Te143  1  0.58988209  0.91810301  0.77262098  1
  Te  Te144  1  0.93397382  0.24983724  0.08206779  1
  Te  Te145  1  0.93422393  0.25421150  0.42982309  1
  Te  Te146  1  0.91798590  0.24314729  0.74987623  1
  Te  Te147  1  0.93587535  0.58351907  0.08493634  1
  Te  Te148  1  0.91946288  0.59710048  0.43565108  1
  Te  Te149  1  0.94659203  0.60564319  0.79319676  1
  Te  Te150  1  0.92545260  0.93386062  0.07221659  1
  Te  Te151  1  0.91579572  0.95267885  0.42590888  1
  Te  Te152  1  0.93371941  0.93440672  0.72933434  1
  Te  Te153  1  0.21399470  0.13244981  0.25456872  1
  Te  Te154  1  0.21474241  0.10778274  0.61217963  1
  Te  Te155  1  0.28296994  0.09491616  0.94206402  1
  Te  Te156  1  0.23342546  0.40225379  0.23954844  1
  Te  Te157  1  0.24066977  0.38739180  0.58743851  1
  Te  Te158  1  0.22682588  0.40538646  0.92738750  1
  Te  Te159  1  0.24513282  0.75617958  0.24760950  1
  Te  Te160  1  0.24376311  0.74480116  0.56056480  1
  Te  Te161  1  0.24920298  0.74504999  0.91974669  1
  Te  Te162  1  0.57417769  0.07545776  0.24302123  1
  Te  Te163  1  0.56202931  0.10196716  0.59440608  1
  Te  Te164  1  0.56015589  0.09508599  0.93117629  1
  Te  Te165  1  0.58345731  0.38884721  0.24802809  1
  Te  Te166  1  0.58219250  0.41889637  0.59110993  1
  Te  Te167  1  0.55700946  0.39627706  0.92918381  1
  Te  Te168  1  0.58697555  0.74928996  0.24355104  1
  Te  Te169  1  0.57031765  0.74330437  0.58743456  1
  Te  Te170  1  0.53105486  0.73238523  0.91872278  1
  Te  Te171  1  0.94704003  0.10047295  0.24001697  1
  Te  Te172  1  0.94174175  0.06382771  0.53689257  1
  Te  Te173  1  0.91931845  0.08175097  0.91587567  1
  Te  Te174  1  0.92174399  0.41802193  0.24233174  1
  Te  Te175  1  0.92226523  0.41384581  0.60050900  1
  Te  Te176  1  0.93989977  0.42476471  0.91797636  1
  Te  Te177  1  0.91076605  0.76182599  0.25885484  1
  Te  Te178  1  0.91444518  0.74384764  0.58468965  1
  Te  Te179  1  0.90382333  0.73798401  0.89669762  1
