# generated using pymatgen
data_In2Te3
_symmetry_space_group_name_H-M   'P 1'
_cell_length_a   18.93114198
_cell_length_b   18.93672199
_cell_length_c   18.92615718
_cell_angle_alpha   90.08686216
_cell_angle_beta   89.95887011
_cell_angle_gamma   90.00464793
_symmetry_Int_Tables_number   1
_chemical_formula_structural   In2Te3
_chemical_formula_sum   'In72 Te108'
_cell_volume   6784.89992277
_cell_formula_units_Z   36
loop_
 _symmetry_equiv_pos_site_id
 _symmetry_equiv_pos_as_xyz
  1  'x, y, z'
loop_
 _atom_site_type_symbol
 _atom_site_label
 _atom_site_symmetry_multiplicity
 _atom_site_fract_x
 _atom_site_fract_y
 _atom_site_fract_z
 _atom_site_occupancy
  In  In0  1  0.68908353  -0.02980858  0.67283926  1
  In  In1  1  0.31666866  -0.02196059  0.65819241  1
  In  In2  1  0.45169570  0.49025601  0.66185139  1
  In  In3  1  0.84725073  0.50426773  0.67711733  1
  In  In4  1  0.32381259  0.34203082  0.33852195  1
  In  In5  1  0.49298414  0.34177038  0.14548511  1
  In  In6  1  0.81659378  0.33217791  0.17546852  1
  In  In7  1  0.02195511  0.80179109  0.16412706  1
  In  In8  1  0.18848384  0.17962144  0.31799963  1
  In  In9  1  0.66992944  0.67837559  0.69363916  1
  In  In10  1  -0.01484451  0.01466615  0.35823535  1
  In  In11  1  0.32631096  0.15134566  0.51778458  1
  In  In12  1  0.84590966  0.84021234  0.34052548  1
  In  In13  1  0.34237031  0.16580412  0.14745236  1
  In  In14  1  0.32404198  0.49458738  0.83676267  1
  In  In15  1  0.51920594  0.83383200  0.33962087  1
  In  In16  1  0.80147926  -0.01859489  0.11334415  1
  In  In17  1  0.16476258  0.49033418  0.66321295  1
  In  In18  1  0.66142077  0.31762327  0.67396188  1
  In  In19  1  0.49909164  0.31930653  0.49206246  1
  In  In20  1  0.85806361  0.66904515  0.50251436  1
  In  In21  1  0.27989755  0.65323442  0.36469912  1
  In  In22  1  0.49264732  0.00126492  0.47028847  1
  In  In23  1  0.67051991  0.17532047  0.84545183  1
  In  In24  1  0.03420177  0.15918416  0.79929546  1
  In  In25  1  0.48848032  0.49735043  0.30226719  1
  In  In26  1  0.16217401  0.83200944  0.67440300  1
  In  In27  1  0.32075849  0.79328817  0.83424837  1
  In  In28  1  0.32887890  0.01703169  -0.02337569  1
  In  In29  1  0.67198168  0.49454648  0.49167559  1
  In  In30  1  0.85756880  0.66321540  0.84657183  1
  In  In31  1  0.82139397  0.49058642  0.34129783  1
  In  In32  1  0.30935813  0.19052280  0.82222770  1
  In  In33  1  0.03551109  0.67861221  0.34464508  1
  In  In34  1  0.64867957  0.48980041  0.15463940  1
  In  In35  1  0.03583674  0.46779362  0.49615233  1
  In  In36  1  0.68578022  0.65566859  0.31347094  1
  In  In37  1  0.00349655  0.15665900  0.16505022  1
  In  In38  1  0.49311735  0.66088441  0.51474638  1
  In  In39  1  0.82984116  -0.01886228  0.86780530  1
  In  In40  1  -0.01423304  0.51762262  0.16656746  1
  In  In41  1  0.00581897  0.00001105  0.01533204  1
  In  In42  1  0.84749948  -0.01157552  0.51112848  1
  In  In43  1  0.66766408  0.15493487  0.49939674  1
  In  In44  1  0.86172857  0.81804609  0.68173755  1
  In  In45  1  0.83623408  0.50440977  0.01544271  1
  In  In46  1  0.48228861  0.17897625  -0.01480039  1
  In  In47  1  0.51342006  0.83064558  0.69233127  1
  In  In48  1  0.48292750  0.65890353  0.17459373  1
  In  In49  1  0.00584187  0.84893045  0.84211960  1
  In  In50  1  0.17090743  -0.00878212  0.17210728  1
  In  In51  1  0.49762520  0.17613711  0.64503421  1
  In  In52  1  0.65902263  0.49616752  0.84602767  1
  In  In53  1  -0.00663618  0.34392404  -0.01687007  1
  In  In54  1  0.65752545  0.01149574  0.30908627  1
  In  In55  1  0.81613947  0.69869563  0.12739254  1
  In  In56  1  0.32342571  0.83112119  0.49922994  1
  In  In57  1  0.14312559  0.63080139  0.86792230  1
  In  In58  1  0.34543546  0.84320659  0.17604089  1
  In  In59  1  0.17521864  0.32419337  0.15975591  1
  In  In60  1  0.85449933  0.18449611  0.33316182  1
  In  In61  1  0.84608736  0.17410321  0.66358664  1
  In  In62  1  0.19146815  0.64849057  0.12526240  1
  In  In63  1  0.17626059  0.85295202  0.35245121  1
  In  In64  1  0.48942474  0.49704253  -0.00122097  1
  In  In65  1  0.51239688  0.83362680  0.00814041  1
  In  In66  1  0.81466571  0.15670829  -0.00201351  1
  In  In67  1  0.49661675  0.68037690  0.82937679  1
  In  In68  1  -0.00303727  0.34632294  0.66447865  1
  In  In69  1  0.02955916  0.18946302  0.50091383  1
  In  In70  1  0.49389345  0.01268575  0.83124925  1
  In  In71  1  0.16787089  0.34845027  0.83870767  1
  Te  Te72  1  0.11080723  0.09515828  0.07969383  1
  Te  Te73  1  0.10232230  0.08848371  0.41038930  1
  Te  Te74  1  0.09718115  0.06087797  0.71036261  1
  Te  Te75  1  0.07172617  0.41695627  0.08997792  1
  Te  Te76  1  0.11777904  0.42940341  0.38022895  1
  Te  Te77  1  0.06671519  0.43293808  0.76617416  1
  Te  Te78  1  0.11529564  0.75698949  0.05843884  1
  Te  Te79  1  0.11373389  0.75345590  0.44520143  1
  Te  Te80  1  0.08948868  0.74280748  0.77295354  1
  Te  Te81  1  0.43327937  0.06535007  0.07489706  1
  Te  Te82  1  0.42833590  0.12041629  0.41359737  1
  Te  Te83  1  0.40349943  0.08670758  0.73476007  1
  Te  Te84  1  0.39394342  0.44433123  0.10157293  1
  Te  Te85  1  0.42119261  0.42795865  0.41928636  1
  Te  Te86  1  0.39978504  0.39483340  0.75829896  1
  Te  Te87  1  0.40665440  0.74597698  0.07683992  1
  Te  Te88  1  0.41637654  0.74195619  0.40852943  1
  Te  Te89  1  0.40181343  0.73268405  0.72102468  1
  Te  Te90  1  0.73201862  0.11372900  0.11281549  1
  Te  Te91  1  0.76601549  0.07255497  0.41502289  1
  Te  Te92  1  0.75575350  0.08454655  0.74998299  1
  Te  Te93  1  0.73637052  0.40159071  0.06699792  1
  Te  Te94  1  0.73560419  0.39332687  0.40810563  1
  Te  Te95  1  0.74914457  0.41476472  0.75216259  1
  Te  Te96  1  0.71404128  0.78771432  0.06837132  1
  Te  Te97  1  0.75421825  0.74307337  0.41626013  1
  Te  Te98  1  0.75729472  0.76393626  0.77878191  1
  Te  Te99  1  0.07371967  0.25492514  0.25533657  1
  Te  Te100  1  0.10721958  0.26982549  0.60065258  1
  Te  Te101  1  0.08605393  0.24336063  0.91578753  1
  Te  Te102  1  0.09876927  0.59408736  0.23400854  1
  Te  Te103  1  0.06369189  0.57424777  0.59226167  1
  Te  Te104  1  0.03774801  0.56438025  0.94788425  1
  Te  Te105  1  0.06652310  0.91944653  0.25694495  1
  Te  Te106  1  0.10303316  0.94667344  0.60328064  1
  Te  Te107  1  0.09652336  0.93455159  0.92101601  1
  Te  Te108  1  0.41207686  0.25934769  0.24517396  1
  Te  Te109  1  0.39329080  0.26983806  0.58970905  1
  Te  Te110  1  0.37715123  0.26754360  0.93052577  1
  Te  Te111  1  0.37801789  0.59025418  0.25946896  1
  Te  Te112  1  0.38103884  0.57727588  0.56608400  1
  Te  Te113  1  0.40761710  0.59545899  0.91582298  1
  Te  Te114  1  0.43789249  0.93151825  0.25767786  1
  Te  Te115  1  0.43720909  0.91399012  0.58495045  1
  Te  Te116  1  0.41393955  0.90315454  0.90175657  1
  Te  Te117  1  0.74133174  0.22596764  0.24673049  1
  Te  Te118  1  0.75565884  0.25490960  0.57207510  1
  Te  Te119  1  0.76654208  0.26385480  0.91085894  1
  Te  Te120  1  0.76648033  0.57271902  0.21523151  1
  Te  Te121  1  0.74630657  0.58983382  0.58550701  1
  Te  Te122  1  0.74611298  0.58920059  0.92643064  1
  Te  Te123  1  0.75455037  0.91152180  0.24584523  1
  Te  Te124  1  0.76463845  0.88136445  0.57916721  1
  Te  Te125  1  0.74194305  0.93569402  0.98054399  1
  Te  Te126  1  0.26362767  0.25624193  0.06068222  1
  Te  Te127  1  0.24580007  0.25537444  0.43564647  1
  Te  Te128  1  0.22083262  0.26400917  0.72720977  1
  Te  Te129  1  0.26119593  0.53626241  0.06067013  1
  Te  Te130  1  0.20572169  0.54177639  0.44047867  1
  Te  Te131  1  0.23761930  0.58739034  0.75492218  1
  Te  Te132  1  0.26071217  0.91790506  0.07458464  1
  Te  Te133  1  0.27148651  0.94168402  0.41969403  1
  Te  Te134  1  0.24748543  0.91151612  0.77462908  1
  Te  Te135  1  0.57869857  0.25275496  0.06806136  1
  Te  Te136  1  0.57166099  0.22117186  0.40823912  1
  Te  Te137  1  0.56134396  0.24747969  0.76354455  1
  Te  Te138  1  0.57966531  0.59642701  0.07426960  1
  Te  Te139  1  0.58056475  0.58382858  0.40307302  1
  Te  Te140  1  0.56856764  0.57302561  0.73775591  1
  Te  Te141  1  0.61194835  0.90260434  0.09336093  1
  Te  Te142  1  0.61017784  0.91916423  0.42561882  1
  Te  Te143  1  0.60280859  0.91332965  0.78298272  1
  Te  Te144  1  0.91619745  0.25087579  0.08329075  1
  Te  Te145  1  0.93658223  0.26936803  0.41889902  1
  Te  Te146  1  0.92189727  0.25764002  0.76434118  1
  Te  Te147  1  0.93679777  0.61749861  0.06028952  1
  Te  Te148  1  0.93002737  0.57806119  0.40360519  1
  Te  Te149  1  0.93593833  0.60501202  0.73557907  1
  Te  Te150  1  0.92766000  0.89262367  0.08699892  1
  Te  Te151  1  0.94569608  0.89415835  0.44274185  1
  Te  Te152  1  0.91719308  0.94127125  0.75038899  1
  Te  Te153  1  0.27197550  0.07443589  0.24868092  1
  Te  Te154  1  0.22012792  0.07630787  0.59664285  1
  Te  Te155  1  0.23248638  0.08532880  0.89097335  1
  Te  Te156  1  0.22893552  0.42462236  0.25788743  1
  Te  Te157  1  0.25966401  0.45524009  0.55278376  1
  Te  Te158  1  0.23064111  0.43885818  0.94193663  1
  Te  Te159  1  0.24183636  0.76011162  0.25174635  1
  Te  Te160  1  0.23253527  0.74375597  0.57492592  1
  Te  Te161  1  0.23555794  0.72786395  0.93662653  1
  Te  Te162  1  0.53521822  0.05072519  0.24159784  1
  Te  Te163  1  0.59185218  0.06457587  0.59823853  1
  Te  Te164  1  0.58924127  0.07783561  0.92730893  1
  Te  Te165  1  0.59182428  0.39789619  0.25873628  1
  Te  Te166  1  0.58063630  0.41618240  0.58823323  1
  Te  Te167  1  0.56982153  0.40554865  0.91706801  1
  Te  Te168  1  0.59060076  0.74691800  0.23767342  1
  Te  Te169  1  0.59154132  0.75388885  0.58602455  1
  Te  Te170  1  0.59233067  0.75105733  0.91412907  1
  Te  Te171  1  0.90728269  0.06735977  0.24042875  1
  Te  Te172  1  0.93695823  0.09018813  0.57815458  1
  Te  Te173  1  0.92877597  0.08783485  0.91383857  1
  Te  Te174  1  0.91915214  0.41148729  0.25407832  1
  Te  Te175  1  0.90549769  0.41838067  0.56739231  1
  Te  Te176  1  0.92600735  0.45312553  0.90590545  1
  Te  Te177  1  0.91422451  0.73380818  0.25374158  1
  Te  Te178  1  0.94952642  0.74091875  0.59232705  1
  Te  Te179  1  0.90862543  0.77577748  0.92661851  1
