# generated using pymatgen
data_In2Te3
_symmetry_space_group_name_H-M   'P 1'
_cell_length_a   18.78191389
_cell_length_b   18.78191134
_cell_length_c   18.78165427
_cell_angle_alpha   90.06062676
_cell_angle_beta   90.10556650
_cell_angle_gamma   90.03751982
_symmetry_Int_Tables_number   1
_chemical_formula_structural   In2Te3
_chemical_formula_sum   'In72 Te108'
_cell_volume   6625.40451230
_cell_formula_units_Z   36
loop_
 _symmetry_equiv_pos_site_id
 _symmetry_equiv_pos_as_xyz
  1  'x, y, z'
loop_
 _atom_site_type_symbol
 _atom_site_label
 _atom_site_symmetry_multiplicity
 _atom_site_fract_x
 _atom_site_fract_y
 _atom_site_fract_z
 _atom_site_occupancy
  In  In0  1  0.83791588  0.18897761  0.32703880  1
  In  In1  1  0.68063975  0.65872802  0.30771809  1
  In  In2  1  0.30664047  0.83552822  0.16564434  1
  In  In3  1  0.50807257  0.81062198  0.67238545  1
  In  In4  1  -0.00437677  0.82898232  0.14904755  1
  In  In5  1  0.34290385  0.47938911  0.82331332  1
  In  In6  1  0.68810401  -0.00331174  -0.01698463  1
  In  In7  1  -0.02632972  0.35871143  -0.02016228  1
  In  In8  1  0.66726669  0.01538352  0.67005721  1
  In  In9  1  0.16739500  0.01049525  0.15945424  1
  In  In10  1  -0.02117288  0.17158369  0.49267803  1
  In  In11  1  0.47923196  0.83756022  -0.02255513  1
  In  In12  1  0.68406732  0.48259471  0.15042785  1
  In  In13  1  -0.02654361  0.69200313  -0.01825248  1
  In  In14  1  0.17511629  0.17383519  0.69171637  1
  In  In15  1  -0.01832126  0.33695454  0.66368569  1
  In  In16  1  0.65999734  0.84111639  0.52017866  1
  In  In17  1  0.02695263  0.65028886  0.35103274  1
  In  In18  1  0.83015727  0.64601283  0.15257297  1
  In  In19  1  0.83016581  0.66629891  0.52415041  1
  In  In20  1  0.47288846  0.63904577  0.19885782  1
  In  In21  1  0.83500984  0.17170933  0.00418978  1
  In  In22  1  0.31961392  0.81418245  0.50419256  1
  In  In23  1  0.33847164  0.48804090  0.19591876  1
  In  In24  1  0.50299007  0.66924944  0.80565529  1
  In  In25  1  0.51099464  0.16195588  0.66336216  1
  In  In26  1  0.15025830  0.31791001  0.19512943  1
  In  In27  1  0.14339897  0.66388167  0.18422512  1
  In  In28  1  0.15636754  0.34872949  0.49139098  1
  In  In29  1  0.33955282  0.34184721  0.32580664  1
  In  In30  1  -0.00641295  0.18148469  0.83016281  1
  In  In31  1  0.49970846  0.31720155  0.16881520  1
  In  In32  1  0.32213099  0.33213687  -0.00586395  1
  In  In33  1  0.69345030  0.33043838  0.00149329  1
  In  In34  1  0.85397244  0.35038235  0.18889061  1
  In  In35  1  0.69805753  0.49478583  0.51654398  1
  In  In36  1  0.13451821  0.02164210  0.49887707  1
  In  In37  1  0.49259710  0.14430438  -0.00314212  1
  In  In38  1  -0.01075924  0.49277210  0.50869613  1
  In  In39  1  0.50412151  0.47300104  0.37505150  1
  In  In40  1  0.51908233  0.51928773  -0.00523604  1
  In  In41  1  0.68224911  0.32761299  0.35458737  1
  In  In42  1  0.17288630  0.81064646  0.67502747  1
  In  In43  1  0.15958404  0.50079309  0.65747849  1
  In  In44  1  0.49925005  0.33780570  0.82126296  1
  In  In45  1  0.32008189  -0.02439399  0.67972639  1
  In  In46  1  0.14063796  0.52143980  0.01272087  1
  In  In47  1  0.00312277  0.01412302  0.66466186  1
  In  In48  1  -0.02426483  0.00792723  0.34372660  1
  In  In49  1  0.34114621  0.18182041  0.50047783  1
  In  In50  1  0.48759194  0.01378027  0.16975082  1
  In  In51  1  0.18483012  0.14229645  -0.01444500  1
  In  In52  1  0.69119694  0.65622882  -0.02206688  1
  In  In53  1  0.31000263  0.68597141  -0.00609071  1
  In  In54  1  0.85083786  -0.00572507  0.15892175  1
  In  In55  1  0.82626830  0.82368096  0.68601166  1
  In  In56  1  0.50248499  0.67640443  0.51026743  1
  In  In57  1  0.52417725  0.01310051  0.51934687  1
  In  In58  1  0.50179116  -0.00248691  0.82707830  1
  In  In59  1  0.14793400  0.68445210  0.83808344  1
  In  In60  1  0.85680952  0.83759994  0.35201160  1
  In  In61  1  0.69675040  0.52291135  0.81287394  1
  In  In62  1  0.82807630  -0.00937292  0.81977622  1
  In  In63  1  0.67687903  0.00981730  0.35269322  1
  In  In64  1  0.03863450  -0.02334750  -0.02145845  1
  In  In65  1  0.32008506  0.00280810  0.31288914  1
  In  In66  1  0.14969817  0.82180831  0.34438804  1
  In  In67  1  0.34632021  0.66988456  0.66982656  1
  In  In68  1  0.66082860  0.82200510  0.15986967  1
  In  In69  1  0.69084916  0.31787382  0.64388606  1
  In  In70  1  0.16366071  0.31963006  0.80618594  1
  In  In71  1  0.51249396  0.18412082  0.34090569  1
  Te  Te72  1  0.07001209  0.09158772  0.07463643  1
  Te  Te73  1  0.08592574  0.11618888  0.38758205  1
  Te  Te74  1  0.09184474  0.07814653  0.77487860  1
  Te  Te75  1  0.07869178  0.40410218  0.08484730  1
  Te  Te76  1  0.04783925  0.40531152  0.39790898  1
  Te  Te77  1  0.06907682  0.42587311  0.75474710  1
  Te  Te78  1  0.09534499  0.74916060  0.06818456  1
  Te  Te79  1  0.06136512  0.75950438  0.44374300  1
  Te  Te80  1  0.05693114  0.73239198  0.72981301  1
  Te  Te81  1  0.39004873  0.08425985  0.08483334  1
  Te  Te82  1  0.42356131  0.07449320  0.41621785  1
  Te  Te83  1  0.40650468  0.08454480  0.74472050  1
  Te  Te84  1  0.42444359  0.41882331  0.07562806  1
  Te  Te85  1  0.39101004  0.41098525  0.44814956  1
  Te  Te86  1  0.44141849  0.43466884  0.72357913  1
  Te  Te87  1  0.42118628  0.74585557  0.08963733  1
  Te  Te88  1  0.42683387  0.76394099  0.41735625  1
  Te  Te89  1  0.39519205  0.77673089  0.76830390  1
  Te  Te90  1  0.74533897  0.08450172  0.09387333  1
  Te  Te91  1  0.77004246  0.09877898  0.42783905  1
  Te  Te92  1  0.75422518  0.10045468  0.75433702  1
  Te  Te93  1  0.79502068  0.42588669  0.06442947  1
  Te  Te94  1  0.78372403  0.40508794  0.43031201  1
  Te  Te95  1  0.76735001  0.40885998  0.74111109  1
  Te  Te96  1  0.76451806  0.75689161  0.06964293  1
  Te  Te97  1  0.74223174  0.75472996  0.41430759  1
  Te  Te98  1  0.75922254  0.74186269  0.79139063  1
  Te  Te99  1  0.06992862  0.22231550  0.27137384  1
  Te  Te100  1  0.08786404  0.24484092  0.58712190  1
  Te  Te101  1  0.08813754  0.25927469  0.92472673  1
  Te  Te102  1  0.04886009  0.55866185  0.23395774  1
  Te  Te103  1  0.06677498  0.59159672  0.58818415  1
  Te  Te104  1  0.05522225  0.58178292  0.90373951  1
  Te  Te105  1  0.07147209  0.91819474  0.25127659  1
  Te  Te106  1  0.08779511  0.91071461  0.58782673  1
  Te  Te107  1  0.10307187  0.87334276  0.89559391  1
  Te  Te108  1  0.40311720  0.22775499  0.24263918  1
  Te  Te109  1  0.42707459  0.25969200  0.59031662  1
  Te  Te110  1  0.41396439  0.24586478  0.90910860  1
  Te  Te111  1  0.39267714  0.57656828  0.31953814  1
  Te  Te112  1  0.40403786  0.58190844  0.56633691  1
  Te  Te113  1  0.40976168  0.59389856  0.91660509  1
  Te  Te114  1  0.41654993  0.90328269  0.24903529  1
  Te  Te115  1  0.42547295  0.91121324  0.58377319  1
  Te  Te116  1  0.39255345  0.94727067  0.92097644  1
  Te  Te117  1  0.73710938  0.25794808  0.23172405  1
  Te  Te118  1  0.75183071  0.21660429  0.55215537  1
  Te  Te119  1  0.76545253  0.25054566  0.90087052  1
  Te  Te120  1  0.77308574  0.54862090  0.25816216  1
  Te  Te121  1  0.75584202  0.58355301  0.62173384  1
  Te  Te122  1  0.80123444  0.57087477  0.91710835  1
  Te  Te123  1  0.75371827  0.91437358  0.24932201  1
  Te  Te124  1  0.76278947  0.92969173  0.58611715  1
  Te  Te125  1  0.74627977  0.89090364  0.89687573  1
  Te  Te126  1  0.24049543  0.24728405  0.08711675  1
  Te  Te127  1  0.24302459  0.25221709  0.40913177  1
  Te  Te128  1  0.28332775  0.26002450  0.74532036  1
  Te  Te129  1  0.25921064  0.58408254  0.09822111  1
  Te  Te130  1  0.24278047  0.60099331  0.35871544  1
  Te  Te131  1  0.24961970  0.58726062  0.76298398  1
  Te  Te132  1  0.24245014  0.92274176  0.06691122  1
  Te  Te133  1  0.24007061  0.92708920  0.42178862  1
  Te  Te134  1  0.20908273  0.92597520  0.76669735  1
  Te  Te135  1  0.58715457  0.24136541  0.07221695  1
  Te  Te136  1  0.56520232  0.28511298  0.43638090  1
  Te  Te137  1  0.60012192  0.24736018  0.75305954  1
  Te  Te138  1  0.59902977  0.60091044  0.09761854  1
  Te  Te139  1  0.60274547  0.58388448  0.41841152  1
  Te  Te140  1  0.57330208  0.56021293  0.73517026  1
  Te  Te141  1  0.57805686  0.91986670  0.07383380  1
  Te  Te142  1  0.57629995  0.91289433  0.41406826  1
  Te  Te143  1  0.59751412  0.90596170  0.75202084  1
  Te  Te144  1  0.92793824  0.25900293  0.08726866  1
  Te  Te145  1  0.91285988  0.28322202  0.41752801  1
  Te  Te146  1  0.89292570  0.24717232  0.74511224  1
  Te  Te147  1  0.93710010  0.58011354  0.07457417  1
  Te  Te148  1  0.90495049  0.58667365  0.41806908  1
  Te  Te149  1  0.88263670  0.54743880  0.78680194  1
  Te  Te150  1  0.91368696  0.90949530  0.04955632  1
  Te  Te151  1  0.91827103  0.92659923  0.45179941  1
  Te  Te152  1  0.93903342  0.90963460  0.75565250  1
  Te  Te153  1  0.23629460  0.10574816  0.25027474  1
  Te  Te154  1  0.25060818  0.07998624  0.58231361  1
  Te  Te155  1  0.28184372  0.05998357  0.91364190  1
  Te  Te156  1  0.22138544  0.43057092  0.27570570  1
  Te  Te157  1  0.25462473  0.42146331  0.57735489  1
  Te  Te158  1  0.23123348  0.43158823  0.92029584  1
  Te  Te159  1  0.25711767  0.72906984  0.27650966  1
  Te  Te160  1  0.23317579  0.71170844  0.57082454  1
  Te  Te161  1  0.23728306  0.78561752  0.90894198  1
  Te  Te162  1  0.59373643  0.09004028  0.25161178  1
  Te  Te163  1  0.62468301  0.12433697  0.55663175  1
  Te  Te164  1  0.59941101  0.08983100  0.90084903  1
  Te  Te165  1  0.57798393  0.42264443  0.24807248  1
  Te  Te166  1  0.59321479  0.40387408  0.57042937  1
  Te  Te167  1  0.60216009  0.42219524  0.91347018  1
  Te  Te168  1  0.56901882  0.74988604  0.25799867  1
  Te  Te169  1  0.61469401  0.72417984  0.60620752  1
  Te  Te170  1  0.58289177  0.74453982  0.91228338  1
  Te  Te171  1  0.92698976  0.10352381  0.23402194  1
  Te  Te172  1  0.90505539  0.10793603  0.60454636  1
  Te  Te173  1  0.92372969  0.07557782  0.92158924  1
  Te  Te174  1  0.96033814  0.42239563  0.26556972  1
  Te  Te175  1  0.88510094  0.42389812  0.59114665  1
  Te  Te176  1  0.89974612  0.41563910  0.85803862  1
  Te  Te177  1  0.91509830  0.74314065  0.24654561  1
  Te  Te178  1  0.92579954  0.74637534  0.60557075  1
  Te  Te179  1  0.88651764  0.75111512  0.87210873  1
