# generated using pymatgen
data_In2Te3
_symmetry_space_group_name_H-M   'P 1'
_cell_length_a   19.01520458
_cell_length_b   18.98164264
_cell_length_c   19.01655488
_cell_angle_alpha   89.92086788
_cell_angle_beta   90.36734353
_cell_angle_gamma   89.93652481
_symmetry_Int_Tables_number   1
_chemical_formula_structural   In2Te3
_chemical_formula_sum   'In72 Te108'
_cell_volume   6863.67996185
_cell_formula_units_Z   36
loop_
 _symmetry_equiv_pos_site_id
 _symmetry_equiv_pos_as_xyz
  1  'x, y, z'
loop_
 _atom_site_type_symbol
 _atom_site_label
 _atom_site_symmetry_multiplicity
 _atom_site_fract_x
 _atom_site_fract_y
 _atom_site_fract_z
 _atom_site_occupancy
  In  In0  1  0.53666483  0.52109489  0.34334001  1
  In  In1  1  0.17042270  0.00769321  0.18373033  1
  In  In2  1  0.35880167  0.65540443  0.28353288  1
  In  In3  1  0.34441894  0.79651704  0.14743547  1
  In  In4  1  -0.01779077  0.50761605  0.15977853  1
  In  In5  1  0.68100270  0.33813889  0.30647530  1
  In  In6  1  0.80182422  0.84246864  0.32637896  1
  In  In7  1  0.83150426  0.85574548  0.67877256  1
  In  In8  1  -0.06336159  0.13273569  0.56667066  1
  In  In9  1  0.18390613  0.34330635  0.85036382  1
  In  In10  1  0.35247337  0.66765314  0.66279120  1
  In  In11  1  0.31083375  0.35727705  0.68490664  1
  In  In12  1  0.65127515  0.33342612  0.01670249  1
  In  In13  1  -0.00755532  0.81623668  0.14572238  1
  In  In14  1  0.34431339  0.19059145  0.14960755  1
  In  In15  1  0.15854084  0.81202485  0.01906850  1
  In  In16  1  0.64939518  0.30289118  0.64579341  1
  In  In17  1  0.81098162  0.51450285  0.30750891  1
  In  In18  1  0.82500480  0.52536978  0.69373277  1
  In  In19  1  0.31881795  -0.01246483  0.67461186  1
  In  In20  1  0.16821634  0.65474208  0.48680727  1
  In  In21  1  0.16627949  0.32188457  0.53974504  1
  In  In22  1  -0.01213425  0.14207198  0.83099372  1
  In  In23  1  0.67264617  0.02591628  0.68014360  1
  In  In24  1  0.36026241  -0.01452139  -0.00214083  1
  In  In25  1  -0.00317464  -0.01674441  0.33223542  1
  In  In26  1  -0.01978729  0.83073394  0.52797250  1
  In  In27  1  0.80200061  -0.00434503  0.86434458  1
  In  In28  1  -0.01064896  0.68884795  0.35309554  1
  In  In29  1  0.49272914  0.18201520  -0.01078029  1
  In  In30  1  0.81991490  0.16449203  0.32611929  1
  In  In31  1  0.81501737  0.32224386  0.86100628  1
  In  In32  1  0.52158213  0.01865114  0.42668052  1
  In  In33  1  0.00593539  -0.00296432  0.01546411  1
  In  In34  1  0.49014674  0.84365077  0.66243914  1
  In  In35  1  0.18022050  0.18255091  -0.01136752  1
  In  In36  1  -0.00925077  0.50308878  0.50440215  1
  In  In37  1  0.34699640  0.34592097  0.30296955  1
  In  In38  1  0.66926643  0.15468086  0.48893442  1
  In  In39  1  -0.01092497  0.33254374  0.68611581  1
  In  In40  1  -0.00899939  0.35689363  0.33962384  1
  In  In41  1  0.22045609  0.81347593  0.33411085  1
  In  In42  1  0.17459538  -0.02664657  0.50051403  1
  In  In43  1  0.49675792  0.16347348  0.67735908  1
  In  In44  1  0.52350070  0.82171167  0.30800395  1
  In  In45  1  0.68307601  0.80686228  0.52301374  1
  In  In46  1  0.82575008  0.31623996  0.47637703  1
  In  In47  1  0.49985758  0.51097009  0.65490884  1
  In  In48  1  0.15855905  0.50905683  0.65325980  1
  In  In49  1  0.32181699  0.16227269  0.50505631  1
  In  In50  1  -0.00795743  0.18736956  0.18891176  1
  In  In51  1  0.36470220  0.35211784  0.00418312  1
  In  In52  1  -0.01076260  0.34531157  0.01782827  1
  In  In53  1  0.17556127  0.49965064  0.31702791  1
  In  In54  1  0.49432838  0.33523906  0.48619392  1
  In  In55  1  0.69759786  0.81791977  0.13825904  1
  In  In56  1  0.67232790  0.67551499  -0.01052238  1
  In  In57  1  0.14131805  0.65884865  0.86194009  1
  In  In58  1  0.67559360  0.68557258  0.68954404  1
  In  In59  1  0.33526795  0.82337493  0.47792436  1
  In  In60  1  0.32508539  0.63494906  0.02090063  1
  In  In61  1  0.52306442  0.51109952  -0.01116245  1
  In  In62  1  0.16368046  -0.00110745  0.85708893  1
  In  In63  1  0.14804420  0.18838597  0.33635873  1
  In  In64  1  0.86779545  0.66538737  0.85148301  1
  In  In65  1  0.83270761  0.49229584  0.00175759  1
  In  In66  1  0.42671630  0.03009115  0.26812779  1
  In  In67  1  0.79163605  0.01665662  0.12331803  1
  In  In68  1  0.15796531  0.82262189  0.69381203  1
  In  In69  1  0.35219396  0.51020185  0.82644088  1
  In  In70  1  0.50814730  -0.01975373  0.84669085  1
  In  In71  1  0.65300791  0.48990415  0.80785057  1
  Te  Te72  1  0.09194728  0.10045167  0.08943637  1
  Te  Te73  1  0.09096579  0.06966397  0.41388511  1
  Te  Te74  1  0.09061614  0.07389450  0.75552245  1
  Te  Te75  1  0.08355923  0.45093944  0.06621380  1
  Te  Te76  1  0.09627207  0.42137542  0.43373982  1
  Te  Te77  1  0.09032357  0.42162964  0.75489908  1
  Te  Te78  1  0.05879351  0.70449513  0.06355718  1
  Te  Te79  1  0.09580158  0.77547659  0.41958855  1
  Te  Te80  1  0.06174876  0.74327130  0.77078053  1
  Te  Te81  1  0.43089727  0.07900271  0.09265670  1
  Te  Te82  1  0.41177027  0.12257211  0.39355050  1
  Te  Te83  1  0.41370295  0.06913399  0.75999527  1
  Te  Te84  1  0.43322365  0.45069498  0.08908601  1
  Te  Te85  1  0.41866328  0.43431126  0.40184844  1
  Te  Te86  1  0.43578458  0.41050249  0.74907282  1
  Te  Te87  1  0.43889866  0.70691984  0.08288986  1
  Te  Te88  1  0.42733761  0.73915331  0.39196609  1
  Te  Te89  1  0.40960457  0.76410385  0.75473146  1
  Te  Te90  1  0.69895901  0.09266976  0.03803008  1
  Te  Te91  1  0.76419792  0.06850173  0.42049344  1
  Te  Te92  1  0.73630545  0.10328154  0.78610425  1
  Te  Te93  1  0.73484397  0.42969787  0.09409774  1
  Te  Te94  1  0.74554033  0.42699744  0.41536156  1
  Te  Te95  1  0.74631165  0.39434493  0.73582818  1
  Te  Te96  1  0.79109876  0.73358431  0.05813555  1
  Te  Te97  1  0.75743428  0.73343155  0.41779499  1
  Te  Te98  1  0.76947525  0.75906139  0.78186862  1
  Te  Te99  1  0.08927693  0.29163026  0.24150016  1
  Te  Te100  1  0.05813970  0.23538096  0.59265710  1
  Te  Te101  1  0.06899913  0.25364414  0.91406820  1
  Te  Te102  1  0.06037231  0.58388843  0.26763735  1
  Te  Te103  1  0.06374748  0.60778546  0.58551978  1
  Te  Te104  1  0.07739143  0.57403371  0.96219965  1
  Te  Te105  1  0.08257230  0.89791148  0.24015217  1
  Te  Te106  1  0.07855055  0.91698541  0.60362151  1
  Te  Te107  1  0.07411044  0.89809387  0.92530268  1
  Te  Te108  1  0.44552241  0.26622202  0.22799003  1
  Te  Te109  1  0.40873352  0.25852912  0.58677712  1
  Te  Te110  1  0.40182026  0.25575706  0.90173513  1
  Te  Te111  1  0.45902888  0.56880341  0.22175680  1
  Te  Te112  1  0.41613734  0.58647727  0.56175141  1
  Te  Te113  1  0.43240701  0.60463667  0.91046570  1
  Te  Te114  1  0.44813616  0.89662945  0.20085334  1
  Te  Te115  1  0.40457583  0.92644782  0.56626809  1
  Te  Te116  1  0.43132877  0.88126567  0.92556802  1
  Te  Te117  1  0.73206959  0.22507630  0.22789538  1
  Te  Te118  1  0.76492229  0.22624245  0.58244142  1
  Te  Te119  1  0.74916954  0.23538185  0.96063107  1
  Te  Te120  1  0.71036560  0.60757881  0.24869107  1
  Te  Te121  1  0.73822113  0.58972363  0.59770292  1
  Te  Te122  1  0.74696326  0.57007323  0.89452064  1
  Te  Te123  1  0.72583755  0.93756084  0.23370266  1
  Te  Te124  1  0.74268415  0.93319843  0.58090744  1
  Te  Te125  1  0.70895147  0.90558236  0.93976883  1
  Te  Te126  1  0.24571503  0.28072336  0.07948480  1
  Te  Te127  1  0.24995765  0.27003262  0.41699875  1
  Te  Te128  1  0.24059981  0.25066829  0.75268819  1
  Te  Te129  1  0.24745675  0.58719764  0.13642313  1
  Te  Te130  1  0.26599166  0.59400679  0.39359917  1
  Te  Te131  1  0.24507963  0.58997235  0.74847586  1
  Te  Te132  1  0.24856427  0.92123849  0.08815587  1
  Te  Te133  1  0.27579339  0.94004856  0.39210507  1
  Te  Te134  1  0.25356978  0.90180143  0.77984998  1
  Te  Te135  1  0.55680899  0.25640379  0.10101741  1
  Te  Te136  1  0.59483813  0.25661463  0.40699823  1
  Te  Te137  1  0.59884543  0.22809004  0.76100081  1
  Te  Te138  1  0.63342133  0.56081760  0.07700770  1
  Te  Te139  1  0.63293618  0.62956668  0.37958643  1
  Te  Te140  1  0.56727651  0.60280491  0.75656688  1
  Te  Te141  1  0.60112625  0.88798137  0.04733472  1
  Te  Te142  1  0.59607682  0.88829687  0.42211168  1
  Te  Te143  1  0.59760458  0.91193468  0.74492824  1
  Te  Te144  1  0.90452089  0.25371700  0.09307378  1
  Te  Te145  1  0.93385668  0.23546589  0.40839410  1
  Te  Te146  1  0.89589284  0.24004616  0.76028685  1
  Te  Te147  1  0.88074728  0.59649808  0.09626864  1
  Te  Te148  1  0.90008307  0.58311198  0.41484287  1
  Te  Te149  1  0.94210282  0.57402967  0.76239992  1
  Te  Te150  1  0.89707386  0.91401503  0.07855962  1
  Te  Te151  1  0.90327517  0.91009913  0.42415897  1
  Te  Te152  1  0.91083684  0.93424763  0.77981658  1
  Te  Te153  1  0.24909321  0.11823795  0.24829439  1
  Te  Te154  1  0.23073031  0.08188539  0.59356356  1
  Te  Te155  1  0.27112717  0.08474423  0.92151886  1
  Te  Te156  1  0.26733431  0.43998138  0.21855981  1
  Te  Te157  1  0.26117752  0.43874213  0.56806011  1
  Te  Te158  1  0.26253567  0.44483795  0.92792272  1
  Te  Te159  1  0.22518572  0.72089624  0.21387791  1
  Te  Te160  1  0.24314241  0.75781378  0.57969054  1
  Te  Te161  1  0.25195719  0.73706167  0.92999055  1
  Te  Te162  1  0.56485293  0.06855933  0.29412497  1
  Te  Te163  1  0.56218245  0.07528594  0.57305987  1
  Te  Te164  1  0.58596104  0.07822105  0.93116562  1
  Te  Te165  1  0.57788485  0.42211968  0.24323246  1
  Te  Te166  1  0.58867383  0.41967686  0.56994808  1
  Te  Te167  1  0.57670063  0.39998881  0.90029735  1
  Te  Te168  1  0.61200864  0.73191621  0.22760764  1
  Te  Te169  1  0.56717054  0.73762893  0.58768493  1
  Te  Te170  1  0.60380725  0.79021423  0.92356095  1
  Te  Te171  1  0.91466593  0.06553095  0.23515458  1
  Te  Te172  1  0.89452885  0.02053497  0.64997160  1
  Te  Te173  1  0.90686132  0.08410383  0.94263908  1
  Te  Te174  1  0.89339176  0.40807787  0.23825315  1
  Te  Te175  1  0.90593055  0.40392507  0.57867928  1
  Te  Te176  1  0.92148025  0.42029175  0.90319034  1
  Te  Te177  1  0.90073086  0.75479401  0.24946884  1
  Te  Te178  1  0.88956685  0.74526759  0.60023567  1
  Te  Te179  1  0.97032840  0.73021137  0.93660405  1
