# generated using pymatgen
data_In2Te3
_symmetry_space_group_name_H-M   'P 1'
_cell_length_a   18.75468096
_cell_length_b   18.75425222
_cell_length_c   18.75640229
_cell_angle_alpha   89.96514120
_cell_angle_beta   90.05909283
_cell_angle_gamma   90.00802274
_symmetry_Int_Tables_number   1
_chemical_formula_structural   In2Te3
_chemical_formula_sum   'In72 Te108'
_cell_volume   6597.18490227
_cell_formula_units_Z   36
loop_
 _symmetry_equiv_pos_site_id
 _symmetry_equiv_pos_as_xyz
  1  'x, y, z'
loop_
 _atom_site_type_symbol
 _atom_site_label
 _atom_site_symmetry_multiplicity
 _atom_site_fract_x
 _atom_site_fract_y
 _atom_site_fract_z
 _atom_site_occupancy
  In  In0  1  0.17858338  0.66172996  0.17446299  1
  In  In1  1  0.01411825  0.68353414  0.00340566  1
  In  In2  1  0.83984078  0.82556835  0.32469410  1
  In  In3  1  -0.00414241  0.34035718  0.65959881  1
  In  In4  1  0.80374886  0.33767311  0.82558513  1
  In  In5  1  0.65841957  0.35163394  -0.02853967  1
  In  In6  1  -0.02240822  0.49170119  0.18345617  1
  In  In7  1  0.00100047  0.15292050  0.49864651  1
  In  In8  1  0.64955869  -0.01521621  0.37905841  1
  In  In9  1  0.19385563  0.16175092  0.67338159  1
  In  In10  1  0.19884466  0.81369839  -0.00609229  1
  In  In11  1  -0.00499277  0.01104762  0.00296423  1
  In  In12  1  0.33415671  0.51653929  0.17079489  1
  In  In13  1  0.46528182  -0.02289743  0.53175151  1
  In  In14  1  0.82676047  0.65565449  0.50792333  1
  In  In15  1  0.32348762  0.82152762  0.16486837  1
  In  In16  1  0.50341921  0.16293190  -0.03705175  1
  In  In17  1  0.82305813  0.36256464  0.50541118  1
  In  In18  1  0.66018643  0.67374453  -0.02427797  1
  In  In19  1  0.04147336  -0.03725891  0.32195236  1
  In  In20  1  0.64734059  0.00004142  0.69518098  1
  In  In21  1  0.32734924  -0.00789904  0.34148276  1
  In  In22  1  0.65686421  0.82961521  0.16475787  1
  In  In23  1  0.83521696  0.83556612  0.68151242  1
  In  In24  1  0.64859341  0.20031633  0.51628624  1
  In  In25  1  0.34175071  0.32445997  -0.02239074  1
  In  In26  1  0.20112780  0.67767099  0.82902267  1
  In  In27  1  0.67078849  0.32398023  0.36355809  1
  In  In28  1  0.34094274  0.34809009  0.37215558  1
  In  In29  1  0.49804493  0.33820226  0.16675497  1
  In  In30  1  0.82284882  0.49772649  0.67325243  1
  In  In31  1  0.50263907  0.66537281  0.15896742  1
  In  In32  1  0.18952644  0.32082217  0.81325112  1
  In  In33  1  0.65075846  0.64509524  0.34077657  1
  In  In34  1  0.63080305  0.82721016  0.82636595  1
  In  In35  1  0.17956976  0.13227360  -0.01374729  1
  In  In36  1  0.19915254  0.34424434  0.49993885  1
  In  In37  1  0.81551612  0.51586039  -0.01206881  1
  In  In38  1  0.01108856  0.19901328  0.15923673  1
  In  In39  1  -0.00121063  0.50696590  0.81623570  1
  In  In40  1  -0.00238112  0.68479046  0.34546571  1
  In  In41  1  0.63367614  -0.00708198  -0.02594766  1
  In  In42  1  0.47871083  0.51022812  0.35334709  1
  In  In43  1  0.66708836  0.14914382  0.16328479  1
  In  In44  1  0.34994048  -0.02496103  -0.03498726  1
  In  In45  1  0.19589502  0.52090464  0.36500452  1
  In  In46  1  0.21023009  0.81269879  0.65260702  1
  In  In47  1  0.48198282  0.53153590  -0.04965975  1
  In  In48  1  0.62009048  0.66048274  0.67614403  1
  In  In49  1  0.20150391  0.53409482  0.62904980  1
  In  In50  1  0.84745598  0.18086905  0.31577661  1
  In  In51  1  0.03837702  0.82881585  0.49600864  1
  In  In52  1  0.49014274  0.18274686  0.67569221  1
  In  In53  1  0.20371410  0.49213108  -0.01141527  1
  In  In54  1  0.88860631  0.34332960  0.15323705  1
  In  In55  1  0.83555798  0.02043102  0.50013583  1
  In  In56  1  0.68368026  0.51111663  0.17837009  1
  In  In57  1  0.81340650  0.15916499  0.64877549  1
  In  In58  1  0.51166558  0.16222849  0.36068063  1
  In  In59  1  -0.01835315  0.83299032  0.84274146  1
  In  In60  1  0.01845356  0.35736373  0.30564448  1
  In  In61  1  0.49013054  -0.01918872  0.14990268  1
  In  In62  1  0.00796586  0.15846802  0.84151991  1
  In  In63  1  0.83917543  0.00088804  0.16058459  1
  In  In64  1  0.15071909  0.32208243  0.17779672  1
  In  In65  1  0.81552433  0.83192824  0.00177641  1
  In  In66  1  0.01793942  0.65356661  0.66446739  1
  In  In67  1  0.32386513  0.15134714  0.18073683  1
  In  In68  1  0.64058304  0.82880391  0.52423794  1
  In  In69  1  -0.00745281  0.32720040  0.02224440  1
  In  In70  1  0.19719565  -0.01381509  0.83834861  1
  In  In71  1  0.19777808  -0.02176356  0.52174343  1
  Te  Te72  1  0.09080658  0.08120850  0.09948803  1
  Te  Te73  1  0.09676691  0.05614465  0.43039821  1
  Te  Te74  1  0.09967602  0.07242486  0.75497558  1
  Te  Te75  1  0.09410429  0.43494617  0.08080718  1
  Te  Te76  1  0.09094607  0.42285030  0.42301170  1
  Te  Te77  1  0.10059998  0.42657458  0.73481327  1
  Te  Te78  1  0.09090660  0.77183618  0.10501021  1
  Te  Te79  1  0.11969776  0.75265420  0.39783831  1
  Te  Te80  1  0.08726081  0.75556955  0.75623971  1
  Te  Te81  1  0.41522526  0.08977476  0.07173740  1
  Te  Te82  1  0.40538862  0.08558627  0.43680299  1
  Te  Te83  1  0.38729760  0.10718303  0.75382701  1
  Te  Te84  1  0.41504406  0.42758686  0.07412450  1
  Te  Te85  1  0.39119580  0.45552273  0.46695115  1
  Te  Te86  1  0.46254951  0.42525219  0.74846933  1
  Te  Te87  1  0.42001535  0.75437595  0.07420440  1
  Te  Te88  1  0.36301816  0.73709746  0.44720340  1
  Te  Te89  1  0.40963450  0.74338586  0.69186794  1
  Te  Te90  1  0.74161280  0.06510636  0.06139923  1
  Te  Te91  1  0.74198106  0.10750715  0.41051123  1
  Te  Te92  1  0.74058471  0.09492948  0.75999975  1
  Te  Te93  1  0.75755434  0.40782335  0.08263610  1
  Te  Te94  1  0.72127998  0.44306818  0.43382462  1
  Te  Te95  1  0.71884501  0.44770866  0.76982734  1
  Te  Te96  1  0.74542439  0.72917025  0.09172121  1
  Te  Te97  1  0.74058741  0.76273501  0.42546928  1
  Te  Te98  1  0.73223438  0.74420498  0.74531591  1
  Te  Te99  1  0.09584277  0.22860765  0.28594861  1
  Te  Te100  1  0.09099336  0.24702793  0.58401404  1
  Te  Te101  1  0.09802469  0.26018946  0.92423306  1
  Te  Te102  1  0.09060736  0.56759081  0.25764735  1
  Te  Te103  1  0.09061098  0.59414153  0.55095604  1
  Te  Te104  1  0.09409582  0.58740117  0.91058236  1
  Te  Te105  1  0.10440705  0.87716512  0.22374925  1
  Te  Te106  1  0.09163692  0.91112011  0.61058536  1
  Te  Te107  1  0.09121099  0.90975329  0.92371268  1
  Te  Te108  1  0.41638481  0.24747258  0.25887184  1
  Te  Te109  1  0.43600061  0.26070076  0.56013295  1
  Te  Te110  1  0.43676264  0.26667853  0.87754968  1
  Te  Te111  1  0.40478753  0.61161763  0.26566533  1
  Te  Te112  1  0.42434184  0.60279039  0.64620642  1
  Te  Te113  1  0.37661164  0.61564616  0.89138549  1
  Te  Te114  1  0.42007713  0.90113989  0.25712838  1
  Te  Te115  1  0.38080504  0.88425205  0.61751102  1
  Te  Te116  1  0.45143393  0.91321218  0.88024753  1
  Te  Te117  1  0.73924838  0.26050178  0.24115263  1
  Te  Te118  1  0.73781203  0.28771291  0.60956233  1
  Te  Te119  1  0.73492263  0.24052709  0.91249420  1
  Te  Te120  1  0.76589361  0.60372367  0.25782979  1
  Te  Te121  1  0.72225398  0.58018864  0.58962116  1
  Te  Te122  1  0.71862491  0.56698437  0.88694172  1
  Te  Te123  1  0.73729921  0.92929053  0.25269727  1
  Te  Te124  1  0.74472327  0.92689428  0.58444619  1
  Te  Te125  1  0.74008933  0.91160900  0.89756661  1
  Te  Te126  1  0.24993912  0.25253661  0.07850989  1
  Te  Te127  1  0.25435747  0.23624900  0.41470567  1
  Te  Te128  1  0.29434534  0.26111639  0.72487689  1
  Te  Te129  1  0.27006011  0.60750890  0.06430428  1
  Te  Te130  1  0.30043108  0.59160983  0.45128713  1
  Te  Te131  1  0.28478066  0.58401271  0.74586188  1
  Te  Te132  1  0.25628685  0.93099362  0.07570504  1
  Te  Te133  1  0.26947646  0.88391236  0.42869891  1
  Te  Te134  1  0.28552473  0.90769559  0.74503389  1
  Te  Te135  1  0.58055783  0.24558015  0.07740311  1
  Te  Te136  1  0.54022955  0.29355743  0.44012797  1
  Te  Te137  1  0.60237263  0.26693982  0.72597956  1
  Te  Te138  1  0.58302251  0.56321500  0.07402140  1
  Te  Te139  1  0.56581790  0.58710718  0.44629699  1
  Te  Te140  1  0.53364146  0.56746976  0.75763091  1
  Te  Te141  1  0.56352630  0.88446665  0.05680413  1
  Te  Te142  1  0.53784795  0.89181369  0.42571583  1
  Te  Te143  1  0.53454458  0.91344845  0.74537039  1
  Te  Te144  1  0.89324611  0.21653857  0.06393242  1
  Te  Te145  1  0.91328303  0.25848400  0.43050877  1
  Te  Te146  1  0.91668121  0.25077078  0.75319244  1
  Te  Te147  1  0.91847958  0.58587138  0.07770031  1
  Te  Te148  1  0.91901840  0.58290276  0.41884649  1
  Te  Te149  1  0.90123065  0.60491922  0.75174215  1
  Te  Te150  1  0.92453852  0.90031639  0.08470152  1
  Te  Te151  1  0.91951928  0.91744936  0.42120628  1
  Te  Te152  1  0.91091377  0.93400072  0.76150642  1
  Te  Te153  1  0.23121377  0.06276958  0.25198832  1
  Te  Te154  1  0.28579715  0.07389495  0.59652159  1
  Te  Te155  1  0.29092681  0.10492331  0.88142479  1
  Te  Te156  1  0.25452313  0.41470769  0.25366060  1
  Te  Te157  1  0.28202622  0.41019259  0.60516078  1
  Te  Te158  1  0.28241904  0.42677958  0.87746934  1
  Te  Te159  1  0.24993045  0.74826816  0.27367462  1
  Te  Te160  1  0.25174096  0.71405812  0.54627787  1
  Te  Te161  1  0.30165396  0.76713592  0.89572390  1
  Te  Te162  1  0.57149971  0.06817532  0.25191144  1
  Te  Te163  1  0.58127071  0.07448146  0.57641970  1
  Te  Te164  1  0.58228633  0.08183678  0.86615727  1
  Te  Te165  1  0.57786584  0.42899121  0.25987757  1
  Te  Te166  1  0.53659681  0.36550744  0.62967145  1
  Te  Te167  1  0.54037012  0.40157478  0.89180206  1
  Te  Te168  1  0.57163258  0.75338778  0.26561000  1
  Te  Te169  1  0.53220066  0.74367011  0.58266270  1
  Te  Te170  1  0.54575838  0.73175117  0.90235163  1
  Te  Te171  1  0.93556056  0.07197114  0.25649648  1
  Te  Te172  1  0.93282472  0.07072393  0.60812942  1
  Te  Te173  1  0.90500535  0.07194467  0.90336515  1
  Te  Te174  1  0.88276718  0.42369798  0.28436175  1
  Te  Te175  1  0.93023894  0.44826376  0.57501939  1
  Te  Te176  1  0.92016686  0.41764623  0.91404419  1
  Te  Te177  1  0.92470173  0.74855615  0.23312219  1
  Te  Te178  1  0.92167049  0.75781876  0.57934146  1
  Te  Te179  1  0.89544179  0.73091024  0.91666522  1
