# generated using pymatgen
data_In2Te3
_symmetry_space_group_name_H-M   'P 1'
_cell_length_a   19.00989014
_cell_length_b   18.98533605
_cell_length_c   19.03306189
_cell_angle_alpha   90.07056477
_cell_angle_beta   90.14617779
_cell_angle_gamma   89.89767296
_symmetry_Int_Tables_number   1
_chemical_formula_structural   In2Te3
_chemical_formula_sum   'In72 Te108'
_cell_volume   6869.16775814
_cell_formula_units_Z   36
loop_
 _symmetry_equiv_pos_site_id
 _symmetry_equiv_pos_as_xyz
  1  'x, y, z'
loop_
 _atom_site_type_symbol
 _atom_site_label
 _atom_site_symmetry_multiplicity
 _atom_site_fract_x
 _atom_site_fract_y
 _atom_site_fract_z
 _atom_site_occupancy
  In  In0  1  0.82626173  -0.01430525  0.50438833  1
  In  In1  1  0.47404132  -0.00997885  0.50552086  1
  In  In2  1  0.64975327  0.50588758  0.50878034  1
  In  In3  1  0.68126275  0.31444915  0.01786134  1
  In  In4  1  0.02596899  0.35293233  0.33982103  1
  In  In5  1  0.14698402  -0.01010783  0.48956658  1
  In  In6  1  0.32351199  0.01669752  0.69414133  1
  In  In7  1  0.84181754  0.32099824  0.83765333  1
  In  In8  1  0.85528922  0.82292785  0.34518839  1
  In  In9  1  0.68034551  0.65737227  -0.01084182  1
  In  In10  1  0.64337525  -0.00393559  0.65691718  1
  In  In11  1  0.47049601  0.49160584  0.67654030  1
  In  In12  1  0.13844811  0.16370325  0.65256981  1
  In  In13  1  0.50204957  0.34264467  0.15291334  1
  In  In14  1  0.63728250  0.47673590  0.81419785  1
  In  In15  1  0.50282438  0.15312360  0.34343811  1
  In  In16  1  0.64984297  0.02995563  -0.02576640  1
  In  In17  1  0.20321386  0.34987563  0.82092684  1
  In  In18  1  0.00133160  0.49915209  0.87040770  1
  In  In19  1  0.01773504  0.80577735  0.49302184  1
  In  In20  1  -0.01382527  0.82813152  0.15626761  1
  In  In21  1  -0.00520099  0.84565636  0.83527042  1
  In  In22  1  0.81473896  0.33837841  0.18296532  1
  In  In23  1  -0.01358813  -0.02110433  0.66211538  1
  In  In24  1  0.01850006  0.18607472  0.48045180  1
  In  In25  1  -0.00741189  0.34317758  0.66607618  1
  In  In26  1  0.16270265  0.17108087  -0.00053585  1
  In  In27  1  0.34318768  0.68138597  -0.01231938  1
  In  In28  1  0.18008225  -0.05126475  0.13918752  1
  In  In29  1  0.66325586  0.33599901  0.31528844  1
  In  In30  1  0.84017290  0.32181339  0.50336107  1
  In  In31  1  0.47883225  0.83985080  0.35163874  1
  In  In32  1  0.00741626  0.28567962  -0.00721277  1
  In  In33  1  0.81693453  0.67704966  0.84224858  1
  In  In34  1  0.82938763  0.49402971  0.68317010  1
  In  In35  1  0.19516415  0.34945931  0.18452822  1
  In  In36  1  0.49422263  0.50198813  -0.00028414  1
  In  In37  1  0.63431101  0.20513489  0.81238887  1
  In  In38  1  0.49709647  0.68985867  0.50589023  1
  In  In39  1  0.65378765  -0.00211762  0.34826374  1
  In  In40  1  0.85919957  0.49572523  0.33702624  1
  In  In41  1  0.66251947  0.67057670  0.33527281  1
  In  In42  1  0.01081422  0.66393234  0.65425969  1
  In  In43  1  0.21511966  0.47162099  0.65136312  1
  In  In44  1  0.33934912  0.83994510  0.84312334  1
  In  In45  1  0.17082771  0.68615486  0.16249541  1
  In  In46  1  0.64434210  0.51215703  0.17183018  1
  In  In47  1  0.44911519  0.33295065  0.54813928  1
  In  In48  1  0.00643051  0.53052183  0.11455360  1
  In  In49  1  0.03847876  0.49528149  0.47643788  1
  In  In50  1  0.34049946  0.15475170  0.14577843  1
  In  In51  1  0.33956619  0.33599173  0.34255732  1
  In  In52  1  0.19327633  0.16647430  0.31063683  1
  In  In53  1  0.49858115  0.82999472  -0.01264658  1
  In  In54  1  0.65304756  0.15836023  0.50561996  1
  In  In55  1  0.49802491  -0.01221243  0.15801602  1
  In  In56  1  0.82124203  0.15209917  0.65979624  1
  In  In57  1  0.19164607  0.49917664  0.00001907  1
  In  In58  1  0.66824438  0.83906114  0.84024959  1
  In  In59  1  0.83997686  0.65165436  0.50324821  1
  In  In60  1  0.04491488  0.69079235  0.30949148  1
  In  In61  1  0.19334748  0.68178767  0.83664965  1
  In  In62  1  0.33590287  0.64778538  0.35180248  1
  In  In63  1  0.17732841  0.83465944  0.33841943  1
  In  In64  1  0.16248891  0.00162510  0.83601320  1
  In  In65  1  0.31239319  0.68143208  0.65911459  1
  In  In66  1  0.65474005  0.82112222  0.18363262  1
  In  In67  1  0.32853110  0.17787031  0.84176908  1
  In  In68  1  0.81689045  0.83163530  0.00059353  1
  In  In69  1  -0.01393582  0.14330412  0.16645290  1
  In  In70  1  0.49743528  0.82936786  0.67089353  1
  In  In71  1  0.81913860  0.00160587  0.14036549  1
  Te  Te72  1  0.09756472  0.07227897  0.09363606  1
  Te  Te73  1  0.08755169  0.08864435  0.38954819  1
  Te  Te74  1  0.06235790  0.07705598  0.74935840  1
  Te  Te75  1  0.09698368  0.40947531  0.07631360  1
  Te  Te76  1  0.14422286  0.41740247  0.40605406  1
  Te  Te77  1  0.07806804  0.42361417  0.76166787  1
  Te  Te78  1  0.08206686  0.75807138  0.07184293  1
  Te  Te79  1  0.13223099  0.71794023  0.43754305  1
  Te  Te80  1  0.08338039  0.75018954  0.75617426  1
  Te  Te81  1  0.42498208  0.07081944  0.06086417  1
  Te  Te82  1  0.40050443  0.08165311  0.41768712  1
  Te  Te83  1  0.42333554  0.07896279  0.78347902  1
  Te  Te84  1  0.40677451  0.43837668  0.09917761  1
  Te  Te85  1  0.41794657  0.42262928  0.43432638  1
  Te  Te86  1  0.43109840  0.38685918  0.77837364  1
  Te  Te87  1  0.40504309  0.77449552  0.08997911  1
  Te  Te88  1  0.38379330  0.76481602  0.44097824  1
  Te  Te89  1  0.41252434  0.73914914  0.75794913  1
  Te  Te90  1  0.73321891  0.09876340  0.07379780  1
  Te  Te91  1  0.75421806  0.08808806  0.41868011  1
  Te  Te92  1  0.71879253  0.09123843  0.74851142  1
  Te  Te93  1  0.74529312  0.43491327  0.08963390  1
  Te  Te94  1  0.75259437  0.42409104  0.42215002  1
  Te  Te95  1  0.74355269  0.38802811  0.74361910  1
  Te  Te96  1  0.74941558  0.73848067  0.09942337  1
  Te  Te97  1  0.75154895  0.75019362  0.42839236  1
  Te  Te98  1  0.74393516  0.75666357  0.74572670  1
  Te  Te99  1  0.08302116  0.25228924  0.23545187  1
  Te  Te100  1  0.09292585  0.28405723  0.56914948  1
  Te  Te101  1  0.10744066  0.25000182  0.88304596  1
  Te  Te102  1  0.09242284  0.56983727  0.23162596  1
  Te  Te103  1  0.10733281  0.56477767  0.59179517  1
  Te  Te104  1  0.10290604  0.59679664  0.92481234  1
  Te  Te105  1  0.08102261  0.90664625  0.24655311  1
  Te  Te106  1  0.09023232  0.89452395  0.59316151  1
  Te  Te107  1  0.06722090  0.93415712  0.92457138  1
  Te  Te108  1  0.41737705  0.24026889  0.24661591  1
  Te  Te109  1  0.39872165  0.23367303  0.64655566  1
  Te  Te110  1  0.40019965  0.29542398  0.89820407  1
  Te  Te111  1  0.44980138  0.61726413  0.26771829  1
  Te  Te112  1  0.40719988  0.59393502  0.58043507  1
  Te  Te113  1  0.42331871  0.59126893  0.90686148  1
  Te  Te114  1  0.41271516  0.93737054  0.26542839  1
  Te  Te115  1  0.39035225  0.91165140  0.60303877  1
  Te  Te116  1  0.42203648  0.93477115  0.91869577  1
  Te  Te117  1  0.74594067  0.23302483  0.25560475  1
  Te  Te118  1  0.73560965  0.25587642  0.58934917  1
  Te  Te119  1  0.74871651  0.22968262  0.91078143  1
  Te  Te120  1  0.75384032  0.57534316  0.26107622  1
  Te  Te121  1  0.74333026  0.58591966  0.59889464  1
  Te  Te122  1  0.74349939  0.55697646  0.89596532  1
  Te  Te123  1  0.74787131  0.90410803  0.26973500  1
  Te  Te124  1  0.74424354  0.90930714  0.59540592  1
  Te  Te125  1  0.75686617  0.93851166  0.91153688  1
  Te  Te126  1  0.25755820  0.26187383  0.07690588  1
  Te  Te127  1  0.25763413  0.23996705  0.41815538  1
  Te  Te128  1  0.25025078  0.24381549  0.72191381  1
  Te  Te129  1  0.26797863  0.59543085  0.08765640  1
  Te  Te130  1  0.23859183  0.54066529  0.38094344  1
  Te  Te131  1  0.26013578  0.57115267  0.75323279  1
  Te  Te132  1  0.28855530  0.87788260  0.07007687  1
  Te  Te133  1  0.25618637  0.93223507  0.41201796  1
  Te  Te134  1  0.23804598  0.90393177  0.74943573  1
  Te  Te135  1  0.58020448  0.23814430  0.08923174  1
  Te  Te136  1  0.58119002  0.26017410  0.41834316  1
  Te  Te137  1  0.52114482  0.26680560  0.73020833  1
  Te  Te138  1  0.57153497  0.60728708  0.08168634  1
  Te  Te139  1  0.56426748  0.58653794  0.41376622  1
  Te  Te140  1  0.57687824  0.57771033  0.72858517  1
  Te  Te141  1  0.60669112  0.90888839  0.07092770  1
  Te  Te142  1  0.58275897  0.90498346  0.44170921  1
  Te  Te143  1  0.56692881  0.92432274  0.76601871  1
  Te  Te144  1  0.89146133  0.23928303  0.08745793  1
  Te  Te145  1  0.91735717  0.25891214  0.39099834  1
  Te  Te146  1  0.92187536  0.23416748  0.74259829  1
  Te  Te147  1  0.91350702  0.60230382  0.03257574  1
  Te  Te148  1  0.94760489  0.60232730  0.40626474  1
  Te  Te149  1  0.92440735  0.58477153  0.75958342  1
  Te  Te150  1  0.92140489  0.92570614  0.05984334  1
  Te  Te151  1  0.93899593  0.91834585  0.42589743  1
  Te  Te152  1  0.89473283  0.91754764  0.75647237  1
  Te  Te153  1  0.25300148  0.05954036  0.22230947  1
  Te  Te154  1  0.23558958  0.07433937  0.58245852  1
  Te  Te155  1  0.25540532  0.07479190  0.92939971  1
  Te  Te156  1  0.28605625  0.44506276  0.25252118  1
  Te  Te157  1  0.31171888  0.40390572  0.56544253  1
  Te  Te158  1  0.28958621  0.42374325  0.91662185  1
  Te  Te159  1  0.26995132  0.75139057  0.25428813  1
  Te  Te160  1  0.20929622  0.73415568  0.57212294  1
  Te  Te161  1  0.23273062  0.78627628  0.94121830  1
  Te  Te162  1  0.58873161  0.08087905  0.24245483  1
  Te  Te163  1  0.54816296  0.09346019  0.59002884  1
  Te  Te164  1  0.55574984  0.11893570  0.90230491  1
  Te  Te165  1  0.55860927  0.43114529  0.26470891  1
  Te  Te166  1  0.57565850  0.41045096  0.59455069  1
  Te  Te167  1  0.58645057  0.40083862  0.93338289  1
  Te  Te168  1  0.54537860  0.73923598  0.25115966  1
  Te  Te169  1  0.59537685  0.75697335  0.59021218  1
  Te  Te170  1  0.58059379  0.73361021  0.90418168  1
  Te  Te171  1  0.90269594  0.05594915  0.24731638  1
  Te  Te172  1  0.92906046  0.09582260  0.56520977  1
  Te  Te173  1  0.95076251  0.15039125  0.97822417  1
  Te  Te174  1  0.93562081  0.42125123  0.23039648  1
  Te  Te175  1  0.91862338  0.44003377  0.56469957  1
  Te  Te176  1  0.91451200  0.40115157  0.94187435  1
  Te  Te177  1  0.91249181  0.72784879  0.24265319  1
  Te  Te178  1  0.91010707  0.75646812  0.58879008  1
  Te  Te179  1  0.91661914  0.73050465  0.94302425  1
