# generated using pymatgen
data_In2Te3
_symmetry_space_group_name_H-M   'P 1'
_cell_length_a   18.85108156
_cell_length_b   18.83858216
_cell_length_c   18.85168783
_cell_angle_alpha   89.99225776
_cell_angle_beta   90.09296962
_cell_angle_gamma   90.06272859
_symmetry_Int_Tables_number   1
_chemical_formula_structural   In2Te3
_chemical_formula_sum   'In72 Te108'
_cell_volume   6694.74268833
_cell_formula_units_Z   36
loop_
 _symmetry_equiv_pos_site_id
 _symmetry_equiv_pos_as_xyz
  1  'x, y, z'
loop_
 _atom_site_type_symbol
 _atom_site_label
 _atom_site_symmetry_multiplicity
 _atom_site_fract_x
 _atom_site_fract_y
 _atom_site_fract_z
 _atom_site_occupancy
  In  In0  1  0.79901431  0.33411761  0.21378157  1
  In  In1  1  0.82607268  0.18595518  0.63734492  1
  In  In2  1  0.00963760  0.66687726  -0.00641674  1
  In  In3  1  0.82403724  0.49564061  0.62478833  1
  In  In4  1  0.65270323  0.31683547  0.64364687  1
  In  In5  1  0.02351922  0.81897965  0.83620050  1
  In  In6  1  0.33279705  -0.00337244  0.31985437  1
  In  In7  1  0.18064094  0.67363893  0.81469640  1
  In  In8  1  0.33479425  0.66282298  0.35015885  1
  In  In9  1  0.85037921  0.33585029  0.83471600  1
  In  In10  1  0.49033272  -0.02394821  0.84167644  1
  In  In11  1  0.67195904  0.82258275  0.48551703  1
  In  In12  1  0.50826755  0.83292060  0.32759819  1
  In  In13  1  0.49812858  -0.00070970  0.51506388  1
  In  In14  1  0.33329055  0.18206860  0.82518718  1
  In  In15  1  0.65535132  0.00634127  0.66191546  1
  In  In16  1  0.35409496  0.83197309  0.83086890  1
  In  In17  1  0.15817125  0.51005861  0.32925715  1
  In  In18  1  0.34900737  0.65187245  0.01807871  1
  In  In19  1  0.36948865  0.34416941  0.34958644  1
  In  In20  1  0.00335931  0.48806604  0.17222690  1
  In  In21  1  0.48633179  0.35607123  0.83553448  1
  In  In22  1  0.50149129  0.17323063  0.02272053  1
  In  In23  1  0.65728142  0.65463840  0.02370271  1
  In  In24  1  0.33471337  0.17630472  0.50555365  1
  In  In25  1  0.00281286  -0.01336984  0.32400812  1
  In  In26  1  0.32044207  0.51624163  0.84305537  1
  In  In27  1  0.18079992  0.36052299  0.53381847  1
  In  In28  1  0.49569033  0.49815926  0.67482446  1
  In  In29  1  -0.01308174  0.18442749  0.48441938  1
  In  In30  1  0.32866166  -0.00076431  0.65093804  1
  In  In31  1  -0.00052072  0.51732131  0.83556569  1
  In  In32  1  0.83536065  0.82702273  0.31592251  1
  In  In33  1  0.17369893  0.17194187  0.00638214  1
  In  In34  1  0.34730425  0.65662095  0.66389193  1
  In  In35  1  0.32936530  0.82391538  0.17336279  1
  In  In36  1  0.67003211  0.33732840  0.01240125  1
  In  In37  1  0.02188206  0.15284754  0.83359600  1
  In  In38  1  -0.00803685  0.36266633  0.64267940  1
  In  In39  1  0.83787277  0.17745216  0.03847716  1
  In  In40  1  0.67020340  0.83402597  0.86592217  1
  In  In41  1  0.35497534  0.83361982  0.46856297  1
  In  In42  1  -0.02683466  0.16329872  0.15781028  1
  In  In43  1  -0.01874539  0.00030339  0.00689688  1
  In  In44  1  -0.02283843  0.33591591  0.32939832  1
  In  In45  1  0.17888458  0.15416610  0.33226250  1
  In  In46  1  0.65138770  0.14408146  0.84668080  1
  In  In47  1  0.16693317  0.32940255  0.15583822  1
  In  In48  1  0.00615121  0.01837733  0.65896186  1
  In  In49  1  0.17818521  0.83952821  0.33693977  1
  In  In50  1  0.52802398  0.15443999  0.30553236  1
  In  In51  1  0.66909662  0.65155422  0.64219013  1
  In  In52  1  0.15503410  0.84168503  0.00124923  1
  In  In53  1  -0.02001736  0.52103363  0.46899490  1
  In  In54  1  0.80473065  -0.00632359  0.16052925  1
  In  In55  1  0.52190992  0.65007015  0.20321296  1
  In  In56  1  0.82457784  0.82070030  0.02898656  1
  In  In57  1  0.33300772  0.50322702  0.16184011  1
  In  In58  1  0.34618651  0.00988781  -0.00221569  1
  In  In59  1  0.53029554  0.36536780  0.47309174  1
  In  In60  1  -0.01038599  0.83083806  0.49239535  1
  In  In61  1  0.82847407  0.82314526  0.63437001  1
  In  In62  1  0.83244648  -0.02784338  0.82967835  1
  In  In63  1  0.17384890  0.83288702  0.67166923  1
  In  In64  1  0.82124123  0.47699220  0.02085900  1
  In  In65  1  0.50026102  0.16673055  0.63715389  1
  In  In66  1  0.14641297  0.66345878  0.50611969  1
  In  In67  1  0.64934748  0.47999879  0.82553332  1
  In  In68  1  0.50047098  0.34692489  0.18332948  1
  In  In69  1  0.18312755  0.33158346  0.84064116  1
  In  In70  1  0.82878830  0.64977437  0.81502003  1
  In  In71  1  0.81587438  0.65412921  0.19601188  1
  Te  Te72  1  0.08100588  0.08000422  0.08997631  1
  Te  Te73  1  0.07866531  0.08078390  0.41970503  1
  Te  Te74  1  0.11032392  0.08439884  0.73940055  1
  Te  Te75  1  0.09656399  0.43054837  0.07538304  1
  Te  Te76  1  0.08296121  0.40461880  0.41516882  1
  Te  Te77  1  0.07773038  0.41289197  0.75705597  1
  Te  Te78  1  0.07885258  0.75297754  0.08979840  1
  Te  Te79  1  0.07532194  0.74521839  0.39978199  1
  Te  Te80  1  0.07228978  0.72967195  0.72384079  1
  Te  Te81  1  0.41524356  0.08555869  0.10419496  1
  Te  Te82  1  0.42288766  0.08841402  0.41363795  1
  Te  Te83  1  0.43225870  0.08271641  0.74415190  1
  Te  Te84  1  0.41890515  0.41510674  0.08132174  1
  Te  Te85  1  0.40944672  0.44905119  0.44622878  1
  Te  Te86  1  0.38532140  0.40779817  0.73398864  1
  Te  Te87  1  0.43633359  0.73912572  0.10705206  1
  Te  Te88  1  0.45297495  0.72612127  0.42328815  1
  Te  Te89  1  0.43371402  0.74311068  0.74619547  1
  Te  Te90  1  0.72329792  0.09131887  0.07889385  1
  Te  Te91  1  0.76434328  0.13050014  0.38245582  1
  Te  Te92  1  0.75830527  0.08648804  0.74520327  1
  Te  Te93  1  0.71976518  0.43180288  0.12276011  1
  Te  Te94  1  0.71663101  0.44121449  0.37107331  1
  Te  Te95  1  0.75642489  0.41004363  0.74022540  1
  Te  Te96  1  0.72163907  0.75546502  0.11831446  1
  Te  Te97  1  0.77462202  0.73224611  0.41990750  1
  Te  Te98  1  0.74496583  0.75735877  0.74630623  1
  Te  Te99  1  0.07177616  0.24347520  0.25372792  1
  Te  Te100  1  0.08098908  0.25382006  0.58372902  1
  Te  Te101  1  0.07372712  0.25672985  0.92905394  1
  Te  Te102  1  0.05859482  0.59287810  0.25990158  1
  Te  Te103  1  0.07568238  0.55480312  0.57626407  1
  Te  Te104  1  0.11058953  0.58341373  0.91647974  1
  Te  Te105  1  0.10553563  0.92340183  0.24042579  1
  Te  Te106  1  0.08593321  0.91508740  0.57779888  1
  Te  Te107  1  0.08187688  0.93886300  0.90777340  1
  Te  Te108  1  0.41240294  0.23867643  0.25046006  1
  Te  Te109  1  0.43101474  0.27737651  0.56613753  1
  Te  Te110  1  0.41429367  0.25878944  0.92803099  1
  Te  Te111  1  0.41854420  0.56219345  0.27321154  1
  Te  Te112  1  0.43123359  0.57972427  0.56808011  1
  Te  Te113  1  0.42735819  0.59143813  0.90927643  1
  Te  Te114  1  0.43197312  0.92203982  0.23130306  1
  Te  Te115  1  0.42297471  0.89439780  0.59337682  1
  Te  Te116  1  0.43030063  0.89004561  0.95138625  1
  Te  Te117  1  0.72168936  0.21280241  0.26582452  1
  Te  Te118  1  0.74454265  0.26324745  0.54192429  1
  Te  Te119  1  0.74892082  0.25127219  0.91261566  1
  Te  Te120  1  0.71800374  0.57369527  0.27592218  1
  Te  Te121  1  0.75972736  0.59685422  0.53481535  1
  Te  Te122  1  0.74861440  0.56662311  0.91387236  1
  Te  Te123  1  0.72524530  0.91946476  0.26670049  1
  Te  Te124  1  0.74796277  0.93181929  0.56578070  1
  Te  Te125  1  0.75038493  0.93215291  0.94955933  1
  Te  Te126  1  0.26867344  0.24822250  0.08810333  1
  Te  Te127  1  0.24526299  0.26495091  0.41714101  1
  Te  Te128  1  0.24453538  0.25154312  0.73164170  1
  Te  Te129  1  0.23826184  0.59390114  0.09482088  1
  Te  Te130  1  0.24753859  0.57222688  0.43625673  1
  Te  Te131  1  0.23377172  0.56947175  0.71789028  1
  Te  Te132  1  0.25287110  0.92179601  0.08556334  1
  Te  Te133  1  0.24900895  0.93596563  0.43194303  1
  Te  Te134  1  0.25429021  0.92477281  0.76277052  1
  Te  Te135  1  0.59795590  0.24903200  0.11303247  1
  Te  Te136  1  0.59696296  0.25234518  0.39495170  1
  Te  Te137  1  0.57805015  0.25354714  0.76108540  1
  Te  Te138  1  0.57883222  0.55760962  0.10160293  1
  Te  Te139  1  0.60518903  0.54315512  0.37913766  1
  Te  Te140  1  0.58243671  0.59627069  0.75725873  1
  Te  Te141  1  0.64408939  0.94711382  0.12570876  1
  Te  Te142  1  0.58799351  0.93115559  0.41445577  1
  Te  Te143  1  0.58958849  0.90462286  0.75178727  1
  Te  Te144  1  0.90759258  0.29166673  0.10672825  1
  Te  Te145  1  0.88001772  0.23540795  0.38862529  1
  Te  Te146  1  0.92666993  0.24556023  0.73862144  1
  Te  Te147  1  0.90128051  0.59435521  0.07639277  1
  Te  Te148  1  0.88161417  0.61685472  0.41542503  1
  Te  Te149  1  0.91741333  0.57430164  0.71954149  1
  Te  Te150  1  0.92406341  0.90435774  0.10749348  1
  Te  Te151  1  0.89784231  0.92508004  0.41663319  1
  Te  Te152  1  0.92919645  0.90286838  0.73575635  1
  Te  Te153  1  0.25575600  0.08402809  0.22947059  1
  Te  Te154  1  0.24015716  0.08825536  0.57569093  1
  Te  Te155  1  0.24975879  0.08430935  0.90660812  1
  Te  Te156  1  0.25132048  0.40662069  0.26274545  1
  Te  Te157  1  0.27423004  0.42842166  0.62269835  1
  Te  Te158  1  0.26117816  0.41649168  0.93231594  1
  Te  Te159  1  0.24069398  0.72807942  0.25103981  1
  Te  Te160  1  0.25783785  0.75695813  0.56782899  1
  Te  Te161  1  0.25390355  0.75389127  0.92061830  1
  Te  Te162  1  0.59867377  0.04090257  0.23056067  1
  Te  Te163  1  0.60775105  0.10314196  0.55364928  1
  Te  Te164  1  0.57080584  0.06001568  0.94098919  1
  Te  Te165  1  0.58247297  0.40191587  0.29962479  1
  Te  Te166  1  0.60627309  0.44552805  0.58148545  1
  Te  Te167  1  0.56777466  0.42831686  0.94287821  1
  Te  Te168  1  0.61401051  0.75016702  0.26468106  1
  Te  Te169  1  0.58214301  0.75028463  0.57707806  1
  Te  Te170  1  0.57895986  0.74336570  0.93504351  1
  Te  Te171  1  0.89794395  0.07610942  0.25528382  1
  Te  Te172  1  0.90496484  0.07943701  0.56290143  1
  Te  Te173  1  0.90165451  0.09409205  0.91597442  1
  Te  Te174  1  0.89361926  0.44559485  0.26964795  1
  Te  Te175  1  0.89677403  0.40196255  0.53116543  1
  Te  Te176  1  0.93109416  0.41864801  0.93150928  1
  Te  Te177  1  0.92675329  0.74378736  0.23560047  1
  Te  Te178  1  0.92481436  0.72859453  0.57815305  1
  Te  Te179  1  0.90212057  0.75498427  0.90691133  1
