# generated using pymatgen
data_In2Te3
_symmetry_space_group_name_H-M   'P 1'
_cell_length_a   18.80456006
_cell_length_b   18.80298954
_cell_length_c   18.80952643
_cell_angle_alpha   89.95489561
_cell_angle_beta   90.02160894
_cell_angle_gamma   89.99898787
_symmetry_Int_Tables_number   1
_chemical_formula_structural   In2Te3
_chemical_formula_sum   'In72 Te108'
_cell_volume   6650.70642720
_cell_formula_units_Z   36
loop_
 _symmetry_equiv_pos_site_id
 _symmetry_equiv_pos_as_xyz
  1  'x, y, z'
loop_
 _atom_site_type_symbol
 _atom_site_label
 _atom_site_symmetry_multiplicity
 _atom_site_fract_x
 _atom_site_fract_y
 _atom_site_fract_z
 _atom_site_occupancy
  In  In0  1  0.00507901  0.34767412  0.33776293  1
  In  In1  1  0.48135587  0.31347513  0.85811794  1
  In  In2  1  0.50835642  0.49093239  0.01555946  1
  In  In3  1  0.01600431  0.53456557  0.44790227  1
  In  In4  1  0.66914754  0.83287388  0.51562818  1
  In  In5  1  0.81575385  0.66422964  0.84566833  1
  In  In6  1  0.65785884  0.64564859  -0.01169281  1
  In  In7  1  0.85000259  0.81476965  0.65201595  1
  In  In8  1  0.48537788  0.00499908  0.50913063  1
  In  In9  1  0.02999588  0.32813077  0.66540666  1
  In  In10  1  0.32638633  0.01386118  0.66003607  1
  In  In11  1  0.36215216  0.14753866  0.15765615  1
  In  In12  1  0.17850597  0.19108823  -0.01167970  1
  In  In13  1  0.32553294  -0.01859092  0.33546355  1
  In  In14  1  0.02590633  0.01897876  0.68583500  1
  In  In15  1  0.04535724  0.18918266  0.85251557  1
  In  In16  1  0.01558417  0.64613518  -0.00816501  1
  In  In17  1  0.67341175  0.65659706  0.66405749  1
  In  In18  1  0.19548191  0.49477197  0.65480488  1
  In  In19  1  0.01316329  0.18662962  0.51706639  1
  In  In20  1  0.32770530  0.49266883  0.17799865  1
  In  In21  1  0.34328099  0.82361994  0.82900049  1
  In  In22  1  -0.00022145  0.81680277  0.80113872  1
  In  In23  1  0.84029903  0.34606830  0.48353571  1
  In  In24  1  0.33100327  0.65345370  0.02919407  1
  In  In25  1  0.32379520  0.17863878  0.49144830  1
  In  In26  1  0.16909153  0.17751591  0.35019157  1
  In  In27  1  0.31026875  0.47083155  0.85496738  1
  In  In28  1  -0.01076820  -0.00979098  0.00651542  1
  In  In29  1  0.35813472  0.48213200  0.48078095  1
  In  In30  1  0.16427916  -0.02013397  0.16803899  1
  In  In31  1  0.82048730  0.31888370  0.18798617  1
  In  In32  1  0.65286240  0.48814160  0.16572236  1
  In  In33  1  0.31605398  0.84009779  0.50059539  1
  In  In34  1  0.32929445  0.65366448  0.31551090  1
  In  In35  1  0.17293815  0.01793527  0.86425050  1
  In  In36  1  0.17837556  0.83355722  0.01283712  1
  In  In37  1  0.51783438  0.19504374  0.32421394  1
  In  In38  1  0.66847562  0.48157215  0.49947643  1
  In  In39  1  0.01476365  0.68077473  0.65624241  1
  In  In40  1  0.85177201  0.32819533  0.84481913  1
  In  In41  1  0.81219732  0.02351618  0.46120094  1
  In  In42  1  0.65806232  0.02258005  0.00041269  1
  In  In43  1  0.84010763  0.67660340  0.17465957  1
  In  In44  1  0.17263939  0.81824403  0.66168797  1
  In  In45  1  0.66189529  0.83950724  0.16344609  1
  In  In46  1  0.01575762  0.49836325  0.82511790  1
  In  In47  1  -0.02626631  0.15871199  0.15748048  1
  In  In48  1  0.83658089  0.49324471  0.65385612  1
  In  In49  1  0.64981621  0.31742782  0.00855283  1
  In  In50  1  0.48816284  0.66573329  0.81647800  1
  In  In51  1  0.83548090  0.86627402  -0.00311953  1
  In  In52  1  0.66036994  0.66582696  0.33729965  1
  In  In53  1  0.49388796  0.01961184  0.83126989  1
  In  In54  1  0.48438002  0.81303604  0.01332456  1
  In  In55  1  0.48552175  0.49519458  0.68849161  1
  In  In56  1  0.63869584  -0.00276508  0.66478922  1
  In  In57  1  0.47965456  0.85226073  0.32147439  1
  In  In58  1  0.50011683  0.16605926  0.64878470  1
  In  In59  1  0.82116543  0.18131196  0.01907394  1
  In  In60  1  0.82042561  0.15995948  0.66291364  1
  In  In61  1  0.02236990  0.53100162  0.20447077  1
  In  In62  1  0.65507193  0.34091491  0.67118418  1
  In  In63  1  0.81642425  0.01411552  0.84744478  1
  In  In64  1  0.16731512  0.35355113  0.17611862  1
  In  In65  1  -0.00686793  0.02025413  0.32029616  1
  In  In66  1  0.49330665  0.33448805  0.16221451  1
  In  In67  1  0.50954633  0.65584474  0.50513233  1
  In  In68  1  0.64351212  0.03478611  0.32344739  1
  In  In69  1  -0.00719007  0.80874993  0.16634067  1
  In  In70  1  0.04356017  0.80736903  0.46974590  1
  In  In71  1  0.84404469  0.83148618  0.31935565  1
  Te  Te72  1  0.08955834  0.08502734  0.07401297  1
  Te  Te73  1  0.08270934  0.07914893  0.42849187  1
  Te  Te74  1  0.13505356  0.11699010  0.74205918  1
  Te  Te75  1  0.09545368  0.45646440  0.09474428  1
  Te  Te76  1  0.09960789  0.41531889  0.42697848  1
  Te  Te77  1  0.12425589  0.39656526  0.76517343  1
  Te  Te78  1  0.09878201  0.72997605  0.09170361  1
  Te  Te79  1  0.13055435  0.71336481  0.39187834  1
  Te  Te80  1  0.11151533  0.72175160  0.76721302  1
  Te  Te81  1  0.43406496  0.11679900  0.02880443  1
  Te  Te82  1  0.41902156  0.08764897  0.39935484  1
  Te  Te83  1  0.39695510  0.11096505  0.75055671  1
  Te  Te84  1  0.39708193  0.40465869  0.06713314  1
  Te  Te85  1  0.45004095  0.38955647  0.39956518  1
  Te  Te86  1  0.39751032  0.38968586  0.75597799  1
  Te  Te87  1  0.39705292  0.75190440  0.11646061  1
  Te  Te88  1  0.41976539  0.75016608  0.41932668  1
  Te  Te89  1  0.39475915  0.73393697  0.72423744  1
  Te  Te90  1  0.75801051  0.07428017  0.09641694  1
  Te  Te91  1  0.72863353  0.13544288  0.39938486  1
  Te  Te92  1  0.72164353  0.09089392  0.75573773  1
  Te  Te93  1  0.75016895  0.40630308  0.08196926  1
  Te  Te94  1  0.74653860  0.41479224  0.39371546  1
  Te  Te95  1  0.75680888  0.41639148  0.75610215  1
  Te  Te96  1  0.75123717  0.75108637  0.07231400  1
  Te  Te97  1  0.75448231  0.75341977  0.41868728  1
  Te  Te98  1  0.74603518  0.76192517  0.75045836  1
  Te  Te99  1  0.07414026  0.23937906  0.24241569  1
  Te  Te100  1  0.12916247  0.25927927  0.57697674  1
  Te  Te101  1  0.08838333  0.30354412  0.94201415  1
  Te  Te102  1  0.13499989  0.60598818  0.27468871  1
  Te  Te103  1  0.09261354  0.57972450  0.57566905  1
  Te  Te104  1  0.11281560  0.56963909  0.91135472  1
  Te  Te105  1  0.07256969  0.90291441  0.25998924  1
  Te  Te106  1  0.06575095  0.90245580  0.59273672  1
  Te  Te107  1  0.07504736  0.90523891  0.91077078  1
  Te  Te108  1  0.39663607  0.25926817  0.25629399  1
  Te  Te109  1  0.39294106  0.25659981  0.59796805  1
  Te  Te110  1  0.38756640  0.23427657  0.94194326  1
  Te  Te111  1  0.43119481  0.57511203  0.24403702  1
  Te  Te112  1  0.40792738  0.58259075  0.59089910  1
  Te  Te113  1  0.41891585  0.57586682  0.92050621  1
  Te  Te114  1  0.39606145  0.92049893  0.21969335  1
  Te  Te115  1  0.41635964  0.90630831  0.59982361  1
  Te  Te116  1  0.41691126  0.91719797  0.92154461  1
  Te  Te117  1  0.75087101  0.21304646  0.26282036  1
  Te  Te118  1  0.74824626  0.26322785  0.57849170  1
  Te  Te119  1  0.74097439  0.24309214  0.90668055  1
  Te  Te120  1  0.74782938  0.57907143  0.24748540  1
  Te  Te121  1  0.76184096  0.58852673  0.56105352  1
  Te  Te122  1  0.75760825  0.55690423  0.92715734  1
  Te  Te123  1  0.73782077  0.92495344  0.26371113  1
  Te  Te124  1  0.76244644  0.93033393  0.58729430  1
  Te  Te125  1  0.72076616  0.91277846  0.90898995  1
  Te  Te126  1  0.25408742  0.24843209  0.10791061  1
  Te  Te127  1  0.26179084  0.28188019  0.40056782  1
  Te  Te128  1  0.19320768  0.25873700  0.73932270  1
  Te  Te129  1  0.23111529  0.55401685  0.07919494  1
  Te  Te130  1  0.25493739  0.56722764  0.41246053  1
  Te  Te131  1  0.26315838  0.57416542  0.75951659  1
  Te  Te132  1  0.26978121  0.92995239  0.07704561  1
  Te  Te133  1  0.22109370  0.91978467  0.41923538  1
  Te  Te134  1  0.23727545  0.92308238  0.75917109  1
  Te  Te135  1  0.58382050  0.22794562  0.10661522  1
  Te  Te136  1  0.55880067  0.29196058  0.42793321  1
  Te  Te137  1  0.57654321  0.24428192  0.75647202  1
  Te  Te138  1  0.56835798  0.60060629  0.10257247  1
  Te  Te139  1  0.57203085  0.56193890  0.40522015  1
  Te  Te140  1  0.59735066  0.57027181  0.76275668  1
  Te  Te141  1  0.56921046  0.92567222  0.08077518  1
  Te  Te142  1  0.58488474  0.91755608  0.41950232  1
  Te  Te143  1  0.56129660  0.91208318  0.75531098  1
  Te  Te144  1  0.92463612  0.27644637  0.07564437  1
  Te  Te145  1  0.92147244  0.24080415  0.40863034  1
  Te  Te146  1  0.92906719  0.23721852  0.74224160  1
  Te  Te147  1  0.92092041  0.57800341  0.09127487  1
  Te  Te148  1  0.90359026  0.59168486  0.37647701  1
  Te  Te149  1  0.91412348  0.59483753  0.74289272  1
  Te  Te150  1  0.90627048  0.92721684  0.11701611  1
  Te  Te151  1  0.92090863  0.91871335  0.42036738  1
  Te  Te152  1  0.90677174  0.93092491  0.75278337  1
  Te  Te153  1  0.24253271  0.08921202  0.24582098  1
  Te  Te154  1  0.24333800  0.06708585  0.55103516  1
  Te  Te155  1  0.28228461  0.10095875  0.92266580  1
  Te  Te156  1  0.25286295  0.41376691  0.28171916  1
  Te  Te157  1  0.28414096  0.39939870  0.58269035  1
  Te  Te158  1  0.23537708  0.35693545  0.91674323  1
  Te  Te159  1  0.22085110  0.73994128  0.25974793  1
  Te  Te160  1  0.24541435  0.73015572  0.56991475  1
  Te  Te161  1  0.25756446  0.73945828  0.92361453  1
  Te  Te162  1  0.55483549  0.09355127  0.21952906  1
  Te  Te163  1  0.59874347  0.09662064  0.55505540  1
  Te  Te164  1  0.56862997  0.11330374  0.92149825  1
  Te  Te165  1  0.58573534  0.39755258  0.26251977  1
  Te  Te166  1  0.55687191  0.41222909  0.57992491  1
  Te  Te167  1  0.58450594  0.41437838  0.90894659  1
  Te  Te168  1  0.57086808  0.75211088  0.24848279  1
  Te  Te169  1  0.57292782  0.75492375  0.60351716  1
  Te  Te170  1  0.57769635  0.74791502  0.90961888  1
  Te  Te171  1  0.88105945  0.09764024  0.25703271  1
  Te  Te172  1  0.92016323  0.07953236  0.57983065  1
  Te  Te173  1  0.92705180  0.09663357  0.91412916  1
  Te  Te174  1  0.91368743  0.42695071  0.24757220  1
  Te  Te175  1  0.94228620  0.41899510  0.57344242  1
  Te  Te176  1  0.92273296  0.43275086  0.92005115  1
  Te  Te177  1  0.94383259  0.71617365  0.28837297  1
  Te  Te178  1  0.92563982  0.73755201  0.54630343  1
  Te  Te179  1  0.91960821  0.75678618  0.92600831  1
