# generated using pymatgen
data_In2Te3
_symmetry_space_group_name_H-M   'P 1'
_cell_length_a   18.78648151
_cell_length_b   18.78945274
_cell_length_c   18.78051099
_cell_angle_alpha   90.09200313
_cell_angle_beta   89.97216810
_cell_angle_gamma   89.93213520
_symmetry_Int_Tables_number   1
_chemical_formula_structural   In2Te3
_chemical_formula_sum   'In72 Te108'
_cell_volume   6629.27551790
_cell_formula_units_Z   36
loop_
 _symmetry_equiv_pos_site_id
 _symmetry_equiv_pos_as_xyz
  1  'x, y, z'
loop_
 _atom_site_type_symbol
 _atom_site_label
 _atom_site_symmetry_multiplicity
 _atom_site_fract_x
 _atom_site_fract_y
 _atom_site_fract_z
 _atom_site_occupancy
  In  In0  1  0.66388309  0.16200363  0.84431290  1
  In  In1  1  0.17620227  -0.01703054  0.15882816  1
  In  In2  1  0.84083259  0.65768444  0.84278941  1
  In  In3  1  0.69121210  0.36889765  0.34476976  1
  In  In4  1  0.79300568  0.66392249  0.13706836  1
  In  In5  1  0.15430243  0.33019764  0.48804892  1
  In  In6  1  0.32184108  0.67056685  0.64997699  1
  In  In7  1  0.49180652  0.34656313  0.16781641  1
  In  In8  1  0.00535018  0.18021007  0.50602694  1
  In  In9  1  0.83473532  0.66340946  0.49770175  1
  In  In10  1  0.00264318  0.82596047  0.49227959  1
  In  In11  1  0.33128948  0.48845982  0.86245144  1
  In  In12  1  0.17693212  -0.01181018  0.51339768  1
  In  In13  1  0.81453441  -0.01727065  0.83135710  1
  In  In14  1  0.51491619  0.49795054  0.66870406  1
  In  In15  1  0.48523097  0.17055089  0.31536779  1
  In  In16  1  0.15250903  0.66532626  0.84156921  1
  In  In17  1  0.49654824  0.00275080  0.13983482  1
  In  In18  1  0.68894993  0.34018408  0.68107831  1
  In  In19  1  0.02508185  0.15475915  0.82796008  1
  In  In20  1  0.84606297  0.16926065  0.35919232  1
  In  In21  1  0.64536824  0.83253552  0.84530873  1
  In  In22  1  0.84210452  0.84712601  0.65777012  1
  In  In23  1  0.50215406  0.67003926  0.48687498  1
  In  In24  1  -0.00579624  0.50249155  0.49589346  1
  In  In25  1  0.81643027  0.82849853  0.31395108  1
  In  In26  1  0.82778855  0.49642302  0.00956709  1
  In  In27  1  0.33208540  0.49535412  0.16510450  1
  In  In28  1  0.02030536  0.18506140  0.18665166  1
  In  In29  1  0.31434730  0.32425289  0.67948758  1
  In  In30  1  0.00977605  0.82423353  0.15373748  1
  In  In31  1  0.49578151  0.51328324  0.33331411  1
  In  In32  1  0.32697896  0.65763376  0.01797414  1
  In  In33  1  0.81561473  -0.01483870  0.16604555  1
  In  In34  1  -0.00553462  0.35310473  0.65011986  1
  In  In35  1  0.32705070  0.81413034  0.49065357  1
  In  In36  1  0.81308223  0.00767341  0.51339214  1
  In  In37  1  0.32371461  0.01434608  0.67195425  1
  In  In38  1  0.18043494  0.00639411  0.83559848  1
  In  In39  1  0.01782492  0.65207801  0.32713079  1
  In  In40  1  0.83559697  0.16606297  0.66697848  1
  In  In41  1  0.31168967  0.51984925  0.45486798  1
  In  In42  1  0.51929716  0.81566616  0.32206453  1
  In  In43  1  0.50561425  0.84665183  0.68133119  1
  In  In44  1  0.00380655  -0.02057570  0.31052469  1
  In  In45  1  0.82501171  0.35380481  0.84152654  1
  In  In46  1  -0.00707594  0.51966679  0.84682494  1
  In  In47  1  0.82519722  0.34115895  0.16239676  1
  In  In48  1  0.51283678  0.34648347  0.87449685  1
  In  In49  1  -0.01542438  0.80406455  0.82363602  1
  In  In50  1  0.65239464  0.16444756  0.49069832  1
  In  In51  1  0.31531702  0.80981014  0.17333757  1
  In  In52  1  -0.01804828  -0.00263786  -0.00640141  1
  In  In53  1  0.68049520  0.66316610  0.32464087  1
  In  In54  1  0.66405169  0.66505101  0.66713864  1
  In  In55  1  0.50298556  0.67068455  0.86676829  1
  In  In56  1  0.18981159  0.18615165  0.01859701  1
  In  In57  1  0.19019658  0.32981981  0.85396255  1
  In  In58  1  0.50246706  -0.00482502  0.47831357  1
  In  In59  1  0.49037730  0.35169362  0.50457145  1
  In  In60  1  0.33357135  0.01424478  0.32548839  1
  In  In61  1  0.17228256  0.82768035  0.01039611  1
  In  In62  1  0.48830627  0.15498809  0.67593432  1
  In  In63  1  0.15280895  0.50158358  0.65722938  1
  In  In64  1  0.82665679  0.18023208  0.02198029  1
  In  In65  1  0.01096606  0.33802150  0.32610282  1
  In  In66  1  0.34804768  0.86371487  0.83360868  1
  In  In67  1  0.01875374  0.48654370  0.14560472  1
  In  In68  1  0.49005392  0.83402633  0.00111902  1
  In  In69  1  0.48596527  0.17095148  -0.00940578  1
  In  In70  1  0.65107228  0.15617199  0.17032311  1
  In  In71  1  0.16484124  0.17885842  0.32809525  1
  Te  Te72  1  0.07546545  0.07641978  0.08556827  1
  Te  Te73  1  0.07097441  0.08327581  0.40379200  1
  Te  Te74  1  0.09607368  0.07088675  0.73163061  1
  Te  Te75  1  0.11929733  0.39287360  0.08059389  1
  Te  Te76  1  0.09854391  0.43954052  0.40027546  1
  Te  Te77  1  0.08690838  0.41096565  0.76067746  1
  Te  Te78  1  0.09431096  0.72580233  0.08166198  1
  Te  Te79  1  0.09821043  0.74367362  0.41331563  1
  Te  Te80  1  0.08565973  0.74162541  0.73630695  1
  Te  Te81  1  0.40364817  0.10818745  0.09834048  1
  Te  Te82  1  0.40603550  0.10187173  0.42763545  1
  Te  Te83  1  0.40816743  0.08006543  0.77398694  1
  Te  Te84  1  0.42281217  0.42866082  0.06436570  1
  Te  Te85  1  0.40113293  0.41048171  0.39593540  1
  Te  Te86  1  0.41941884  0.41380126  0.75373716  1
  Te  Te87  1  0.42987355  0.73469670  0.10155830  1
  Te  Te88  1  0.40602117  0.73279648  0.38868585  1
  Te  Te89  1  0.42258307  0.73524383  0.74931701  1
  Te  Te90  1  0.73214381  0.07170906  0.07043552  1
  Te  Te91  1  0.73468399  0.07239110  0.39870480  1
  Te  Te92  1  0.73631449  0.07682527  0.73921976  1
  Te  Te93  1  0.72041737  0.41455665  0.08243456  1
  Te  Te94  1  0.79222875  0.40694143  0.44189048  1
  Te  Te95  1  0.75555809  0.44967206  0.75413952  1
  Te  Te96  1  0.71093288  0.77189079  0.07958629  1
  Te  Te97  1  0.74106176  0.76140551  0.42805326  1
  Te  Te98  1  0.75264944  0.75860250  0.75368635  1
  Te  Te99  1  0.12164839  0.29983288  0.22330184  1
  Te  Te100  1  0.09829379  0.24896310  0.60523318  1
  Te  Te101  1  0.08074644  0.24927503  0.93137840  1
  Te  Te102  1  0.10634495  0.56572209  0.23997925  1
  Te  Te103  1  0.08625667  0.59518708  0.56653784  1
  Te  Te104  1  0.08864475  0.57972608  0.94198688  1
  Te  Te105  1  0.10858459  0.88510979  0.25451376  1
  Te  Te106  1  0.06918993  0.92014358  0.58603079  1
  Te  Te107  1  0.08132837  0.90981218  0.91658951  1
  Te  Te108  1  0.39310291  0.26120614  0.24311893  1
  Te  Te109  1  0.41016955  0.24993468  0.58378073  1
  Te  Te110  1  0.39787886  0.26730108  0.91753964  1
  Te  Te111  1  0.42341899  0.59300865  0.23296557  1
  Te  Te112  1  0.41861223  0.57139878  0.57198334  1
  Te  Te113  1  0.43258439  0.56360110  0.95082515  1
  Te  Te114  1  0.41476662  0.91113908  0.24678415  1
  Te  Te115  1  0.41018080  0.91220918  0.57789432  1
  Te  Te116  1  0.43816036  0.94520418  0.91699966  1
  Te  Te117  1  0.75049809  0.24190736  0.25470036  1
  Te  Te118  1  0.75131422  0.24883152  0.57141592  1
  Te  Te119  1  0.73786975  0.26417716  0.92996466  1
  Te  Te120  1  0.75346120  0.56572801  0.23946893  1
  Te  Te121  1  0.74473870  0.57798429  0.57976755  1
  Te  Te122  1  0.73689664  0.58587798  0.92594300  1
  Te  Te123  1  0.71515871  0.90700918  0.24082594  1
  Te  Te124  1  0.72980224  0.91805899  0.59428535  1
  Te  Te125  1  0.74949472  0.89819074  0.93129344  1
  Te  Te126  1  0.24985214  0.29994739  0.09636633  1
  Te  Te127  1  0.25620993  0.25071633  0.41761467  1
  Te  Te128  1  0.25285976  0.22573164  0.76954651  1
  Te  Te129  1  0.22805388  0.59184105  0.10861780  1
  Te  Te130  1  0.23403552  0.61534316  0.37505462  1
  Te  Te131  1  0.25810716  0.57317904  0.75628278  1
  Te  Te132  1  0.28043062  0.91742616  0.06859388  1
  Te  Te133  1  0.24802726  0.91282967  0.40125223  1
  Te  Te134  1  0.24224455  0.90015548  0.73432038  1
  Te  Te135  1  0.58069782  0.25474287  0.08114149  1
  Te  Te136  1  0.57939624  0.26633788  0.40042067  1
  Te  Te137  1  0.57745243  0.25973728  0.75113622  1
  Te  Te138  1  0.64053006  0.54485619  0.04473848  1
  Te  Te139  1  0.60184189  0.57392701  0.42472969  1
  Te  Te140  1  0.58793771  0.58186685  0.77219781  1
  Te  Te141  1  0.59392987  0.90137046  0.08826665  1
  Te  Te142  1  0.59566306  0.89883037  0.41776660  1
  Te  Te143  1  0.57589959  0.93981411  0.77039116  1
  Te  Te144  1  0.93437670  0.26579213  0.08640759  1
  Te  Te145  1  0.91614852  0.28328629  0.43470218  1
  Te  Te146  1  0.92094563  0.25681670  0.75512878  1
  Te  Te147  1  0.92028534  0.59002786  0.08559345  1
  Te  Te148  1  0.90367707  0.57544072  0.39379939  1
  Te  Te149  1  0.91648335  0.58316521  0.73942773  1
  Te  Te150  1  0.90108428  0.89658718  0.07449872  1
  Te  Te151  1  0.90321267  0.92199969  0.41096794  1
  Te  Te152  1  0.93192895  0.92926532  0.75127317  1
  Te  Te153  1  0.24969795  0.09767100  0.22832789  1
  Te  Te154  1  0.25355830  0.09843920  0.57260276  1
  Te  Te155  1  0.25622010  0.08235579  0.93724332  1
  Te  Te156  1  0.26286993  0.38173751  0.23580037  1
  Te  Te157  1  0.25813066  0.42471672  0.57466052  1
  Te  Te158  1  0.22310811  0.43808894  0.95355319  1
  Te  Te159  1  0.23849175  0.71192802  0.25097377  1
  Te  Te160  1  0.22309197  0.74504437  0.57133271  1
  Te  Te161  1  0.27184906  0.75143867  0.90737287  1
  Te  Te162  1  0.57444345  0.06101107  0.26122725  1
  Te  Te163  1  0.58138901  0.07099646  0.58768786  1
  Te  Te164  1  0.58242955  0.07377742  0.92896494  1
  Te  Te165  1  0.59427698  0.43263448  0.24707282  1
  Te  Te166  1  0.60605361  0.41942582  0.57466023  1
  Te  Te167  1  0.61168994  0.43684735  0.93397780  1
  Te  Te168  1  0.58183730  0.71888150  0.22782563  1
  Te  Te169  1  0.58203701  0.76059292  0.57992186  1
  Te  Te170  1  0.60780149  0.73193221  0.96125534  1
  Te  Te171  1  0.90917603  0.08488327  0.23919058  1
  Te  Te172  1  0.92894272  0.07583399  0.58711016  1
  Te  Te173  1  0.89954592  0.09842469  0.91114864  1
  Te  Te174  1  0.91606697  0.42777975  0.24703890  1
  Te  Te175  1  0.88919161  0.43019060  0.57777583  1
  Te  Te176  1  0.93151333  0.41023510  0.93453860  1
  Te  Te177  1  0.91541961  0.73907958  0.24282345  1
  Te  Te178  1  0.92684531  0.73799154  0.59357563  1
  Te  Te179  1  0.91876359  0.74004560  0.93764426  1
