# generated using pymatgen
data_In2Te3
_symmetry_space_group_name_H-M   'P 1'
_cell_length_a   19.07196788
_cell_length_b   18.96241737
_cell_length_c   18.97574602
_cell_angle_alpha   89.92994066
_cell_angle_beta   89.74006564
_cell_angle_gamma   89.98096823
_symmetry_Int_Tables_number   1
_chemical_formula_structural   In2Te3
_chemical_formula_sum   'In72 Te108'
_cell_volume   6862.51409824
_cell_formula_units_Z   36
loop_
 _symmetry_equiv_pos_site_id
 _symmetry_equiv_pos_as_xyz
  1  'x, y, z'
loop_
 _atom_site_type_symbol
 _atom_site_label
 _atom_site_symmetry_multiplicity
 _atom_site_fract_x
 _atom_site_fract_y
 _atom_site_fract_z
 _atom_site_occupancy
  In  In0  1  0.51789439  0.84409231  0.66934488  1
  In  In1  1  0.48560524  0.65542614  0.48479879  1
  In  In2  1  0.17166576  0.83714682  0.72109845  1
  In  In3  1  0.32041483  0.84859240  0.16132536  1
  In  In4  1  0.83088567  0.01558368  0.84355088  1
  In  In5  1  0.16986005  0.33366941  0.48109711  1
  In  In6  1  0.67832245  0.48789094  0.50741764  1
  In  In7  1  0.14414098  0.67291333  0.14710050  1
  In  In8  1  0.49192095  0.31055079  0.11723345  1
  In  In9  1  0.34348403  0.64612293  0.66494415  1
  In  In10  1  0.00920206  0.35688073  0.68538381  1
  In  In11  1  0.13273791  0.81105569  -0.02748409  1
  In  In12  1  0.15706413  0.46246240  0.68769979  1
  In  In13  1  -0.01268373  0.46246076  0.52206317  1
  In  In14  1  0.84891718  0.52716783  0.01427994  1
  In  In15  1  0.65319930  0.29827762  0.29079422  1
  In  In16  1  -0.00746741  0.03358347  0.01376068  1
  In  In17  1  0.67017473  0.00556298  0.69988661  1
  In  In18  1  0.01485130  0.49864997  0.83991000  1
  In  In19  1  0.35334437  0.85413560  0.85630579  1
  In  In20  1  0.67358528  0.01745771  -0.03464364  1
  In  In21  1  0.00158566  0.05749219  0.31209472  1
  In  In22  1  0.48689118  0.15316213  0.31672379  1
  In  In23  1  0.37405556  0.34752036  0.68143898  1
  In  In24  1  0.31592417  0.47125718  0.18029642  1
  In  In25  1  0.65965984  0.67409298  0.32527625  1
  In  In26  1  0.00397930  0.30131909  0.01848967  1
  In  In27  1  0.68596069  0.31362849  0.00432103  1
  In  In28  1  0.34529800  0.16324649  0.83694256  1
  In  In29  1  0.52171317  0.18964981  0.69062909  1
  In  In30  1  0.18897570  0.00830543  0.14521510  1
  In  In31  1  -0.02882583  0.61506797  0.25562982  1
  In  In32  1  0.50357825  -0.00620148  0.51388112  1
  In  In33  1  0.17582064  0.67511345  0.47592360  1
  In  In34  1  0.83652304  0.32296064  0.83788537  1
  In  In35  1  0.16404675  0.18087176  0.68299701  1
  In  In36  1  -0.00741945  0.03827803  0.65150942  1
  In  In37  1  0.31973008  0.64131618  0.30819027  1
  In  In38  1  0.80541538  0.64614640  0.46908205  1
  In  In39  1  -0.03556346  0.85279350  0.84959465  1
  In  In40  1  0.33853122  0.67413585  -0.00726239  1
  In  In41  1  0.83232249  0.47613131  0.34378550  1
  In  In42  1  0.49929653  0.49523148  0.00877665  1
  In  In43  1  0.36559754  0.48797716  0.50344819  1
  In  In44  1  0.32100756  0.07183165  0.01296397  1
  In  In45  1  0.69179026  0.15517691  0.15627501  1
  In  In46  1  0.67383659  0.68101672  -0.01065842  1
  In  In47  1  0.66188225  0.84412777  0.16931913  1
  In  In48  1  0.16392421  0.00976460  0.50320978  1
  In  In49  1  0.48361082  0.84701835  0.01727444  1
  In  In50  1  -0.00532616  0.87478338  0.49900292  1
  In  In51  1  0.66608115  0.82227735  0.47264814  1
  In  In52  1  0.82655522  0.84631420  0.01459510  1
  In  In53  1  0.67189959  0.50687867  0.15548884  1
  In  In54  1  0.15299022  0.47411508  0.01491243  1
  In  In55  1  0.83875246  0.47038159  0.65531707  1
  In  In56  1  0.00113399  0.67256858  0.63929610  1
  In  In57  1  0.17426487  0.19140695  0.32906422  1
  In  In58  1  0.50754499  0.31428745  0.86050602  1
  In  In59  1  0.12652309  0.85010785  0.32135672  1
  In  In60  1  0.33960652  0.80602713  0.51458397  1
  In  In61  1  0.30380377  0.17607680  0.50358319  1
  In  In62  1  0.33712252  -0.03264676  0.33798439  1
  In  In63  1  0.69973080  0.18309234  0.51158393  1
  In  In64  1  0.66589865  -0.00496475  0.34658973  1
  In  In65  1  0.83482945  0.01600517  0.48772556  1
  In  In66  1  0.15272915  0.62498886  0.81968441  1
  In  In67  1  0.52281188  0.34124274  0.50289667  1
  In  In68  1  0.51153584  0.65355661  0.82852975  1
  In  In69  1  0.80344440  0.83069393  0.66720894  1
  In  In70  1  -0.01288478  0.30047746  0.33096385  1
  In  In71  1  0.82863343  0.67299117  0.81691370  1
  Te  Te72  1  0.09454180  0.11407073  0.09195401  1
  Te  Te73  1  0.08513417  0.11111130  0.42743438  1
  Te  Te74  1  0.06783424  0.09969957  0.75897190  1
  Te  Te75  1  0.04416363  0.42065639  0.09561918  1
  Te  Te76  1  0.06921558  0.41229489  0.40529502  1
  Te  Te77  1  0.10403618  0.37424511  0.81122543  1
  Te  Te78  1  0.05124681  0.78028780  0.09565902  1
  Te  Te79  1  0.06189636  0.75627848  0.42259997  1
  Te  Te80  1  0.05700085  0.74402303  0.76151130  1
  Te  Te81  1  0.40655199  0.07941239  0.13483008  1
  Te  Te82  1  0.40135048  0.07792985  0.43177396  1
  Te  Te83  1  0.43986678  0.08580679  0.75353616  1
  Te  Te84  1  0.38844858  0.40740532  0.06268744  1
  Te  Te85  1  0.44667696  0.41720091  0.40463918  1
  Te  Te86  1  0.46385229  0.42043783  0.76828354  1
  Te  Te87  1  0.41371748  0.74296376  0.10351700  1
  Te  Te88  1  0.40140321  0.74193165  0.39384241  1
  Te  Te89  1  0.41112123  0.75349602  0.74726354  1
  Te  Te90  1  0.76872222  0.05759840  0.07419221  1
  Te  Te91  1  0.75851202  0.10648525  0.39302635  1
  Te  Te92  1  0.77676135  0.09574748  0.73362127  1
  Te  Te93  1  0.76921617  0.41850846  0.08347035  1
  Te  Te94  1  0.71681706  0.39273992  0.39283606  1
  Te  Te95  1  0.75230987  0.41569459  0.75958830  1
  Te  Te96  1  0.75422972  0.74407657  0.10013966  1
  Te  Te97  1  0.77531162  0.76504442  0.38427666  1
  Te  Te98  1  0.71287904  0.74766622  0.75296287  1
  Te  Te99  1  0.10392684  0.27384092  0.22893451  1
  Te  Te100  1  0.08433502  0.26683184  0.58707269  1
  Te  Te101  1  0.12164957  0.21834366  0.98133712  1
  Te  Te102  1  0.11152311  0.58313741  0.25835738  1
  Te  Te103  1  0.09104928  0.56001507  0.58810304  1
  Te  Te104  1  0.07304880  0.59256183  0.94124624  1
  Te  Te105  1  0.06979601  0.95007119  0.22666718  1
  Te  Te106  1  0.09436053  0.91453981  0.60666386  1
  Te  Te107  1  0.06773966  0.93631994  0.91528889  1
  Te  Te108  1  0.41135182  0.24550636  0.22842490  1
  Te  Te109  1  0.42073082  0.24319205  0.57754307  1
  Te  Te110  1  0.41242978  0.23964120  0.94450506  1
  Te  Te111  1  0.41784081  0.55499184  0.24503079  1
  Te  Te112  1  0.45263954  0.56331600  0.60250700  1
  Te  Te113  1  0.41267578  0.57240712  0.90935701  1
  Te  Te114  1  0.42490802  0.93267969  0.22436346  1
  Te  Te115  1  0.40226178  0.91600572  0.59616864  1
  Te  Te116  1  0.40960355  0.95763152  0.94806598  1
  Te  Te117  1  0.78018948  0.25832197  0.21923176  1
  Te  Te118  1  0.71932931  0.28826499  0.61036387  1
  Te  Te119  1  0.78349170  0.22414785  0.93678833  1
  Te  Te120  1  0.75548789  0.57825362  0.25785113  1
  Te  Te121  1  0.75382831  0.58804590  0.59525837  1
  Te  Te122  1  0.75239347  0.57852514  0.90920779  1
  Te  Te123  1  0.75265771  0.91212382  0.26274911  1
  Te  Te124  1  0.73444417  0.92391741  0.56323735  1
  Te  Te125  1  0.74753736  0.90245082  0.89892449  1
  Te  Te126  1  0.30715162  0.18859096  0.11223203  1
  Te  Te127  1  0.28163403  0.27820032  0.39401429  1
  Te  Te128  1  0.27035007  0.26441956  0.75280363  1
  Te  Te129  1  0.25026770  0.58590402  0.07819311  1
  Te  Te130  1  0.25669036  0.56201118  0.42189462  1
  Te  Te131  1  0.26639845  0.54931760  0.75223882  1
  Te  Te132  1  0.23451735  0.89805779  0.04882677  1
  Te  Te133  1  0.23581052  0.89416692  0.43214000  1
  Te  Te134  1  0.25582116  0.93576594  0.78494008  1
  Te  Te135  1  0.58818943  0.20979444  0.05937794  1
  Te  Te136  1  0.57875916  0.22477119  0.41435691  1
  Te  Te137  1  0.61650595  0.22862240  0.79898774  1
  Te  Te138  1  0.58074700  0.60045594  0.08043088  1
  Te  Te139  1  0.58940746  0.57264026  0.41377329  1
  Te  Te140  1  0.62510509  0.61920334  0.74600544  1
  Te  Te141  1  0.59380088  0.93521938  0.06894751  1
  Te  Te142  1  0.55669778  0.90371436  0.40618038  1
  Te  Te143  1  0.56888824  0.93232431  0.77619889  1
  Te  Te144  1  0.90780292  0.23407533  0.10808971  1
  Te  Te145  1  0.90664097  0.25326506  0.44661364  1
  Te  Te146  1  0.92350769  0.25385502  0.74014569  1
  Te  Te147  1  0.91485237  0.61444934  0.11405387  1
  Te  Te148  1  0.92652614  0.57241080  0.43040329  1
  Te  Te149  1  0.92573256  0.57493313  0.73844934  1
  Te  Te150  1  0.89140908  0.95477540  0.09291843  1
  Te  Te151  1  0.92305791  0.94361061  0.38803136  1
  Te  Te152  1  0.90944254  0.92160317  0.72675267  1
  Te  Te153  1  0.24525188  0.06695089  0.27427229  1
  Te  Te154  1  0.24984199  0.07917845  0.60644027  1
  Te  Te155  1  0.22225499  0.11242692  0.91030186  1
  Te  Te156  1  0.21511844  0.38187553  0.23247421  1
  Te  Te157  1  0.26079175  0.40657194  0.58284061  1
  Te  Te158  1  0.22062297  0.42247140  0.89752595  1
  Te  Te159  1  0.22940568  0.76141615  0.25169717  1
  Te  Te160  1  0.23062179  0.73527362  0.60541548  1
  Te  Te161  1  0.24236747  0.73477532  0.89252127  1
  Te  Te162  1  0.59210189  0.07577756  0.24143427  1
  Te  Te163  1  0.59436290  0.08966569  0.58707921  1
  Te  Te164  1  0.59448220  0.08833521  0.86273026  1
  Te  Te165  1  0.57749658  0.39874180  0.20882197  1
  Te  Te166  1  0.60921897  0.39906766  0.60867462  1
  Te  Te167  1  0.60074744  0.41630417  0.93082124  1
  Te  Te168  1  0.57172552  0.75509695  0.24423930  1
  Te  Te169  1  0.57535251  0.74693553  0.56763948  1
  Te  Te170  1  0.56621207  0.76180999  0.92081602  1
  Te  Te171  1  0.91430604  0.14879788  0.23780133  1
  Te  Te172  1  0.91390352  0.12068484  0.55743988  1
  Te  Te173  1  0.91528733  0.11347876  0.91497166  1
  Te  Te174  1  0.92687999  0.41189511  0.25281870  1
  Te  Te175  1  0.86793942  0.36700368  0.54087299  1
  Te  Te176  1  0.92147946  0.42008702  0.92801930  1
  Te  Te177  1  0.94955352  0.75352957  0.21131912  1
  Te  Te178  1  0.90489435  0.76789624  0.57070445  1
  Te  Te179  1  0.90406835  0.74111890  0.92907797  1
