# generated using pymatgen
data_In2Te3
_symmetry_space_group_name_H-M   'P 1'
_cell_length_a   18.93953893
_cell_length_b   18.89618791
_cell_length_c   18.94826504
_cell_angle_alpha   90.00795739
_cell_angle_beta   90.02699762
_cell_angle_gamma   90.07483551
_symmetry_Int_Tables_number   1
_chemical_formula_structural   In2Te3
_chemical_formula_sum   'In72 Te108'
_cell_volume   6781.29486975
_cell_formula_units_Z   36
loop_
 _symmetry_equiv_pos_site_id
 _symmetry_equiv_pos_as_xyz
  1  'x, y, z'
loop_
 _atom_site_type_symbol
 _atom_site_label
 _atom_site_symmetry_multiplicity
 _atom_site_fract_x
 _atom_site_fract_y
 _atom_site_fract_z
 _atom_site_occupancy
  In  In0  1  0.15642902  0.30844362  0.84485945  1
  In  In1  1  0.00641618  0.49590591  0.16267482  1
  In  In2  1  0.69570965  0.67892596  0.31395175  1
  In  In3  1  0.50799349  0.48913625  0.36932222  1
  In  In4  1  0.00197449  0.14428114  0.19368015  1
  In  In5  1  0.54623814  0.15629490  -0.01041310  1
  In  In6  1  0.83238632  0.48989168  0.66440145  1
  In  In7  1  0.30321740  0.68742946  0.32598421  1
  In  In8  1  0.16644556  0.11686752  0.64908593  1
  In  In9  1  0.51916471  0.30688190  0.13566111  1
  In  In10  1  0.68962699  0.84875341  0.19027721  1
  In  In11  1  0.31163540  0.84005638  0.50184665  1
  In  In12  1  0.14738645  0.47354196  0.33165567  1
  In  In13  1  0.48214676  0.65251627  0.17019678  1
  In  In14  1  0.66315015  0.68029028  0.68254473  1
  In  In15  1  0.34335976  0.02729815  -0.01516653  1
  In  In16  1  0.82742196  0.14642413  -0.00108856  1
  In  In17  1  0.67582068  0.00510526  0.65979617  1
  In  In18  1  0.48027932  0.00698576  0.49259696  1
  In  In19  1  0.16294833  0.50958857  0.66171143  1
  In  In20  1  0.82739975  0.96070129  0.03973691  1
  In  In21  1  0.65572844  0.50836798  0.15463245  1
  In  In22  1  0.02799703  0.85315963  0.53846144  1
  In  In23  1  0.82935217  0.49875250  -0.00873453  1
  In  In24  1  0.83219547  0.68882797  0.46664865  1
  In  In25  1  0.50323801  0.34615311  0.83399516  1
  In  In26  1  0.84421571  0.66852708  0.83384314  1
  In  In27  1  0.51219207  0.01397137  0.80770384  1
  In  In28  1  0.17513508  0.31123153  0.48543696  1
  In  In29  1  0.02684721  0.69633826  -0.01170345  1
  In  In30  1  0.34986711  0.30151791  0.00968474  1
  In  In31  1  0.47415775  0.16987518  0.67269145  1
  In  In32  1  0.17367215  -0.02127331  0.81698454  1
  In  In33  1  0.49450935  0.50396580  0.65631862  1
  In  In34  1  0.02215480  0.32222286  0.65956677  1
  In  In35  1  0.48742915  0.31364446  0.51138132  1
  In  In36  1  0.83501210  0.64400274  0.19389754  1
  In  In37  1  0.68024826  0.16331326  0.81998607  1
  In  In38  1  0.18097176  0.51052527  0.00127204  1
  In  In39  1  0.13671000  -0.00644455  0.17798395  1
  In  In40  1  -0.00480654  0.32906546  -0.00820212  1
  In  In41  1  0.48519331  0.48383609  -0.03934345  1
  In  In42  1  0.15607061  0.67911954  0.49130019  1
  In  In43  1  0.33555719  0.84117765  0.19051081  1
  In  In44  1  0.15918989  0.69708210  0.84706043  1
  In  In45  1  0.31041076  0.47716144  0.18915341  1
  In  In46  1  0.34480844  0.49370698  0.50181935  1
  In  In47  1  -0.01563852  0.67273118  0.35141371  1
  In  In48  1  0.48205466  0.15420031  0.32032217  1
  In  In49  1  0.82394940  0.31729522  0.18445102  1
  In  In50  1  0.69396265  0.15997851  0.49803204  1
  In  In51  1  0.83498729  0.86359280  0.65984147  1
  In  In52  1  0.31519254  0.15458085  0.17344364  1
  In  In53  1  -0.02827477  0.85044489  0.82585795  1
  In  In54  1  0.29004334  0.64342370  -0.01272787  1
  In  In55  1  0.50399526  -0.01439010  0.18342695  1
  In  In56  1  0.85979448  0.17842904  0.62734735  1
  In  In57  1  0.67076917  0.30907648  0.30811142  1
  In  In58  1  0.01616247  0.66974886  0.67065675  1
  In  In59  1  0.50639027  0.67732669  0.53331355  1
  In  In60  1  0.48060864  0.70667029  0.78789016  1
  In  In61  1  0.32285308  0.50343797  0.81768365  1
  In  In62  1  0.14329751  0.13061189  0.36237304  1
  In  In63  1  0.85571700  0.85998719  0.34171902  1
  In  In64  1  0.51417938  0.84320694  0.36105646  1
  In  In65  1  0.83365806  0.33013250  0.80157038  1
  In  In66  1  0.87295960  0.42651855  0.35895464  1
  In  In67  1  0.67544599  0.69312953  -0.01837588  1
  In  In68  1  0.68705232  0.50191961  0.48695920  1
  In  In69  1  0.16871342  0.85057085  0.01457401  1
  In  In70  1  0.31789887  0.15102769  0.81603581  1
  In  In71  1  0.50347402  0.83161509  0.00153006  1
  Te  Te72  1  0.06159749  0.07246994  0.07540401  1
  Te  Te73  1  0.03682236  0.04441152  0.42429279  1
  Te  Te74  1  0.06992773  0.06021605  0.74765174  1
  Te  Te75  1  0.09565458  0.40847294  0.07639603  1
  Te  Te76  1  0.06544294  0.39778873  0.43060859  1
  Te  Te77  1  0.09038432  0.41719955  0.75785835  1
  Te  Te78  1  0.09516004  0.75722113  0.10095450  1
  Te  Te79  1  0.07404865  0.77906293  0.41239281  1
  Te  Te80  1  0.08372530  0.78159373  0.74649870  1
  Te  Te81  1  0.43889092  0.08992113  0.08718413  1
  Te  Te82  1  0.39035818  0.10708699  0.42757771  1
  Te  Te83  1  0.38722567  0.05189121  0.72367734  1
  Te  Te84  1  0.41423183  0.42884030  0.08279238  1
  Te  Te85  1  0.40079448  0.38907847  0.40700198  1
  Te  Te86  1  0.40557915  0.40762054  0.73418300  1
  Te  Te87  1  0.40293659  0.75167136  0.08572741  1
  Te  Te88  1  0.41324101  0.73724053  0.41707879  1
  Te  Te89  1  0.39619351  0.80477496  0.71895172  1
  Te  Te90  1  0.74651045  0.07140071  0.09786869  1
  Te  Te91  1  0.81299902  0.11922443  0.41725273  1
  Te  Te92  1  0.77717705  0.09275079  0.72971748  1
  Te  Te93  1  0.74996801  0.41087996  0.08601033  1
  Te  Te94  1  0.74345275  0.37603174  0.42660011  1
  Te  Te95  1  0.73248663  0.42009674  0.74406793  1
  Te  Te96  1  0.75249631  0.73897830  0.10281685  1
  Te  Te97  1  0.73366144  0.78740486  0.41237915  1
  Te  Te98  1  0.76168165  0.76944337  0.75659561  1
  Te  Te99  1  0.09617083  0.23214176  0.26498260  1
  Te  Te100  1  0.08546560  0.21936555  0.56790304  1
  Te  Te101  1  0.05814827  0.22338923  0.91127314  1
  Te  Te102  1  0.07575512  0.58799828  0.26164453  1
  Te  Te103  1  0.06856537  0.57591598  0.56337686  1
  Te  Te104  1  0.08142630  0.58089098  0.90872502  1
  Te  Te105  1  0.01922631  0.94846298  0.25623843  1
  Te  Te106  1  0.13325993  0.95003901  0.58699761  1
  Te  Te107  1  0.07388771  0.91811837  0.91973512  1
  Te  Te108  1  0.41379190  0.25796936  0.23198007  1
  Te  Te109  1  0.38268108  0.24608138  0.58784690  1
  Te  Te110  1  0.42946728  0.22295989  0.90447312  1
  Te  Te111  1  0.41099820  0.56832112  0.27351530  1
  Te  Te112  1  0.39338338  0.60093412  0.59892570  1
  Te  Te113  1  0.41234452  0.60499592  0.90059220  1
  Te  Te114  1  0.40942225  0.92853222  0.28927134  1
  Te  Te115  1  0.42957157  0.89423883  0.57663993  1
  Te  Te116  1  0.43174562  0.93029607  0.91110768  1
  Te  Te117  1  0.77553322  0.20681627  0.27459063  1
  Te  Te118  1  0.73892596  0.25644800  0.59864676  1
  Te  Te119  1  0.76018177  0.25208048  0.91268148  1
  Te  Te120  1  0.75081404  0.54252293  0.26948226  1
  Te  Te121  1  0.75134755  0.60191766  0.58187398  1
  Te  Te122  1  0.73860519  0.58069783  0.90129317  1
  Te  Te123  1  0.77058305  0.94830331  0.25986822  1
  Te  Te124  1  0.76137585  0.94000946  0.55849618  1
  Te  Te125  1  0.77895083  0.93059846  0.90472231  1
  Te  Te126  1  0.23980093  0.23127645  0.07390039  1
  Te  Te127  1  0.25950103  0.21387815  0.41173096  1
  Te  Te128  1  0.22894100  0.23765800  0.73234461  1
  Te  Te129  1  0.23808155  0.59297758  0.12030623  1
  Te  Te130  1  0.24449784  0.57048040  0.41444446  1
  Te  Te131  1  0.23998689  0.60823949  0.74861428  1
  Te  Te132  1  0.27149380  0.93948203  0.08797295  1
  Te  Te133  1  0.21413788  0.93699265  0.44467118  1
  Te  Te134  1  0.28855698  0.91383417  0.75365532  1
  Te  Te135  1  0.62662557  0.21414640  0.09942523  1
  Te  Te136  1  0.57984259  0.23869035  0.41306775  1
  Te  Te137  1  0.58140449  0.25203260  0.74346281  1
  Te  Te138  1  0.57542723  0.59852768  0.06195358  1
  Te  Te139  1  0.59403794  0.60686774  0.41667763  1
  Te  Te140  1  0.57109524  0.58518480  0.75813165  1
  Te  Te141  1  0.59716625  0.91516034  0.08559040  1
  Te  Te142  1  0.59359203  0.96004669  0.40703395  1
  Te  Te143  1  0.58784629  0.91238084  0.73326083  1
  Te  Te144  1  0.91457503  0.23921944  0.08802853  1
  Te  Te145  1  0.91923133  0.31532304  0.44749115  1
  Te  Te146  1  0.93782171  0.23294196  0.74909615  1
  Te  Te147  1  0.92075403  0.58785848  0.07513022  1
  Te  Te148  1  0.90730368  0.56495039  0.42372043  1
  Te  Te149  1  0.92799728  0.57470611  0.74942757  1
  Te  Te150  1  0.96020644  0.95260785  0.11564544  1
  Te  Te151  1  0.92286493  0.92962503  0.45954574  1
  Te  Te152  1  0.93949753  0.95080617  0.72018322  1
  Te  Te153  1  0.24268891  0.05839808  0.26348952  1
  Te  Te154  1  0.25451680  0.04183127  0.55155552  1
  Te  Te155  1  0.22514313  0.09000370  0.91736096  1
  Te  Te156  1  0.22215557  0.37732064  0.24863758  1
  Te  Te157  1  0.24551010  0.41165611  0.58165224  1
  Te  Te158  1  0.26529610  0.40484618  0.91880407  1
  Te  Te159  1  0.21896639  0.78883583  0.26401873  1
  Te  Te160  1  0.23724164  0.74865726  0.59023374  1
  Te  Te161  1  0.26544668  0.77692087  0.91925572  1
  Te  Te162  1  0.59170386  0.06609041  0.27328487  1
  Te  Te163  1  0.57475356  0.09826740  0.58215140  1
  Te  Te164  1  0.62168131  0.05376421  0.90879660  1
  Te  Te165  1  0.57162651  0.41563033  0.24637689  1
  Te  Te166  1  0.58239584  0.42116626  0.56687538  1
  Te  Te167  1  0.59587956  0.39186563  0.93873537  1
  Te  Te168  1  0.57055531  0.75265475  0.24327085  1
  Te  Te169  1  0.59666166  0.77608974  0.59182748  1
  Te  Te170  1  0.58364348  0.76888905  0.88900778  1
  Te  Te171  1  0.90256674  0.09253884  0.29105178  1
  Te  Te172  1  0.93581670  0.08799139  0.53483534  1
  Te  Te173  1  0.88500350  0.03577887  0.91292199  1
  Te  Te174  1  0.95259085  0.37734200  0.24047117  1
  Te  Te175  1  0.91639825  0.39761917  0.57968160  1
  Te  Te176  1  0.91751764  0.41939076  0.89854612  1
  Te  Te177  1  0.91960929  0.75888260  0.24416790  1
  Te  Te178  1  0.91689298  0.74590532  0.58181082  1
  Te  Te179  1  0.90338611  0.76453548  0.93578270  1
