# generated using pymatgen
data_In2Te3
_symmetry_space_group_name_H-M   'P 1'
_cell_length_a   18.91165323
_cell_length_b   18.89776291
_cell_length_c   18.90671556
_cell_angle_alpha   89.95192690
_cell_angle_beta   89.79654361
_cell_angle_gamma   90.08649863
_symmetry_Int_Tables_number   1
_chemical_formula_structural   In2Te3
_chemical_formula_sum   'In72 Te108'
_cell_volume   6756.97939179
_cell_formula_units_Z   36
loop_
 _symmetry_equiv_pos_site_id
 _symmetry_equiv_pos_as_xyz
  1  'x, y, z'
loop_
 _atom_site_type_symbol
 _atom_site_label
 _atom_site_symmetry_multiplicity
 _atom_site_fract_x
 _atom_site_fract_y
 _atom_site_fract_z
 _atom_site_occupancy
  In  In0  1  0.66291690  0.34733997  0.32641784  1
  In  In1  1  0.34622320  0.80664635  0.82239154  1
  In  In2  1  0.01177070  0.34935540  0.67173112  1
  In  In3  1  0.80631460  0.50280586  0.33232672  1
  In  In4  1  0.69381031  0.37296480  0.01560131  1
  In  In5  1  0.50257608  0.15301114  0.01760923  1
  In  In6  1  0.35527230  -0.00741532  0.65767021  1
  In  In7  1  0.51069227  0.31563444  0.17810713  1
  In  In8  1  0.16565207  0.52236209  0.66281687  1
  In  In9  1  0.30405993  0.32153484  -0.01244473  1
  In  In10  1  -0.00687832  0.17409046  0.16103516  1
  In  In11  1  0.17938816  0.79128992  0.39400785  1
  In  In12  1  0.83002305  0.36220375  0.81921988  1
  In  In13  1  0.50310714  0.68108175  0.81790133  1
  In  In14  1  0.16308347  0.48038880  -0.00979370  1
  In  In15  1  0.14371159  -0.00090110  0.16405906  1
  In  In16  1  0.35115251  0.17969750  0.48758668  1
  In  In17  1  0.51234094  0.52603865  0.36223222  1
  In  In18  1  0.67124903  -0.00524450  0.66350299  1
  In  In19  1  0.17635949  0.67440844  0.17458306  1
  In  In20  1  0.34398600  0.67751262  0.02047019  1
  In  In21  1  0.00958064  0.82280557  0.82477027  1
  In  In22  1  0.69456573  0.64605822  -0.02010595  1
  In  In23  1  -0.00559278  0.50618493  0.82112044  1
  In  In24  1  0.84898263  0.81945698  0.33750626  1
  In  In25  1  -0.01803275  0.64877052  0.01153081  1
  In  In26  1  0.35887685  0.85437772  0.20064187  1
  In  In27  1  0.34327488  0.32881013  0.32547805  1
  In  In28  1  0.16570063  0.15766939  0.68201573  1
  In  In29  1  0.50848314  0.49543569  -0.01586878  1
  In  In30  1  0.17688854  0.49808709  0.33998490  1
  In  In31  1  -0.00140594  0.36256474  0.34342286  1
  In  In32  1  -0.02218519  0.83280291  0.16670589  1
  In  In33  1  0.85414045  0.68326042  0.50771594  1
  In  In34  1  0.81021363  0.32404527  0.47956045  1
  In  In35  1  0.82284744  0.17995892  0.65258894  1
  In  In36  1  0.68252755  0.84614702  0.46966237  1
  In  In37  1  0.67282728  0.67309189  0.66268389  1
  In  In38  1  0.81460687  -0.01859340  0.48011271  1
  In  In39  1  0.51951212  -0.01931028  0.49798189  1
  In  In40  1  0.48848612  0.35463508  0.81987458  1
  In  In41  1  -0.02335948  0.33365075  -0.02044339  1
  In  In42  1  0.65253530  0.84337885  0.16809993  1
  In  In43  1  0.79424569  0.52914708  0.73146419  1
  In  In44  1  0.80558973  0.15661229  0.31872424  1
  In  In45  1  0.34184772  0.35415125  0.67256971  1
  In  In46  1  0.83309643  0.83987247  0.00150054  1
  In  In47  1  0.14534570  -0.00939529  0.82324688  1
  In  In48  1  0.34769101  0.54161449  0.53704534  1
  In  In49  1  -0.01026838  0.51287826  0.51641073  1
  In  In50  1  0.33878546  -0.00389321  0.00053649  1
  In  In51  1  0.17682176  0.80857548  0.65144395  1
  In  In52  1  0.79460365  0.14896234  0.03003375  1
  In  In53  1  0.68137088  0.81634018  0.82554356  1
  In  In54  1  0.01573410  0.00534346  0.32074128  1
  In  In55  1  0.33938117  0.15081380  0.82387910  1
  In  In56  1  0.48317205  0.00287588  0.83849135  1
  In  In57  1  0.16096623  0.31262749  0.13874718  1
  In  In58  1  0.16646481  0.84107003  -0.02434777  1
  In  In59  1  -0.02729660  0.50974660  0.18854537  1
  In  In60  1  0.84379153  -0.00984745  0.84356559  1
  In  In61  1  0.00952759  0.16631501  0.85416829  1
  In  In62  1  0.50146514  0.65783317  0.17735118  1
  In  In63  1  -0.00872734  0.16265629  0.51673928  1
  In  In64  1  0.51689433  0.15451721  0.33197769  1
  In  In65  1  0.65468456  0.19595769  0.83374644  1
  In  In66  1  0.48027678  0.81982073  0.65877817  1
  In  In67  1  0.51348074  0.37670336  0.51573540  1
  In  In68  1  0.18958905  0.15344830  0.32151032  1
  In  In69  1  0.17446615  -0.03382467  0.50820396  1
  In  In70  1  0.36887333  0.49699149  0.17103329  1
  In  In71  1  0.63938129  -0.00948503  0.31626978  1
  Te  Te72  1  0.08909049  0.10268350  0.07614442  1
  Te  Te73  1  0.09239627  0.08313101  0.42960996  1
  Te  Te74  1  0.05157524  0.07486433  0.73883053  1
  Te  Te75  1  0.06209507  0.42303684  0.09265430  1
  Te  Te76  1  0.09183006  0.42150131  0.44291833  1
  Te  Te77  1  0.10535470  0.41883198  0.76517628  1
  Te  Te78  1  0.08697947  0.74675167  0.07417203  1
  Te  Te79  1  0.05877006  0.72765495  0.46254704  1
  Te  Te80  1  0.11149289  0.73514246  0.76147757  1
  Te  Te81  1  0.43721051  0.04762802  0.10048632  1
  Te  Te82  1  0.42135579  0.06950001  0.41447515  1
  Te  Te83  1  0.44211912  0.09665578  0.72545260  1
  Te  Te84  1  0.42418628  0.39742142  0.07035046  1
  Te  Te85  1  0.40045456  0.42997661  0.42166967  1
  Te  Te86  1  0.42679978  0.46056728  0.73374039  1
  Te  Te87  1  0.43490202  0.76971392  0.09644365  1
  Te  Te88  1  0.37716254  0.68125456  0.48223765  1
  Te  Te89  1  0.38796557  0.70586608  0.70694501  1
  Te  Te90  1  0.69821737  0.05666638  0.09792354  1
  Te  Te91  1  0.72010142  0.08117379  0.41792793  1
  Te  Te92  1  0.74860706  0.08881866  0.75867367  1
  Te  Te93  1  0.75281013  0.46741106  0.11257981  1
  Te  Te94  1  0.71751912  0.43693437  0.43836969  1
  Te  Te95  1  0.73936639  0.39254980  0.70880129  1
  Te  Te96  1  0.74194560  0.74964341  0.08231446  1
  Te  Te97  1  0.74779142  0.72533414  0.40451034  1
  Te  Te98  1  0.77666933  0.74319207  0.74332480  1
  Te  Te99  1  0.08246405  0.25461070  0.26426915  1
  Te  Te100  1  0.09231114  0.25141805  0.58659692  1
  Te  Te101  1  0.09290890  0.26699866  0.92078129  1
  Te  Te102  1  0.08409197  0.58930505  0.26091101  1
  Te  Te103  1  0.08009117  0.61426568  0.57828933  1
  Te  Te104  1  0.08404901  0.58638547  0.91666587  1
  Te  Te105  1  0.08770321  0.88728918  0.25746317  1
  Te  Te106  1  0.07662687  0.90609685  0.59975893  1
  Te  Te107  1  0.05571226  0.93132726  0.92982312  1
  Te  Te108  1  0.40983159  0.22193243  0.24207083  1
  Te  Te109  1  0.42989257  0.26565127  0.58335183  1
  Te  Te110  1  0.42408797  0.24082017  0.91311467  1
  Te  Te111  1  0.40174256  0.59643903  0.27691169  1
  Te  Te112  1  0.49874190  0.58645600  0.55540380  1
  Te  Te113  1  0.41846244  0.59542533  0.91519074  1
  Te  Te114  1  0.47608464  0.92619019  0.25834175  1
  Te  Te115  1  0.40304261  0.89595049  0.55257464  1
  Te  Te116  1  0.42203290  0.89248913  0.92273369  1
  Te  Te117  1  0.73290234  0.25360930  0.23481709  1
  Te  Te118  1  0.72248984  0.25275890  0.57532576  1
  Te  Te119  1  0.76384132  0.25926609  0.91906638  1
  Te  Te120  1  0.71630841  0.55850583  0.23167162  1
  Te  Te121  1  0.77072603  0.58450140  0.58604675  1
  Te  Te122  1  0.76653853  0.56467614  0.88051969  1
  Te  Te123  1  0.75606620  0.91291652  0.25820118  1
  Te  Te124  1  0.75992904  0.89382378  0.59272865  1
  Te  Te125  1  0.73204035  0.92245922  0.92155646  1
  Te  Te126  1  0.26402018  0.22255211  0.08765870  1
  Te  Te127  1  0.24325157  0.25978725  0.41809590  1
  Te  Te128  1  0.25418362  0.25577137  0.75596326  1
  Te  Te129  1  0.25441255  0.57096345  0.08944219  1
  Te  Te130  1  0.24055899  0.59123694  0.43670306  1
  Te  Te131  1  0.26259659  0.61353453  0.72211879  1
  Te  Te132  1  0.25241091  0.89883097  0.08699422  1
  Te  Te133  1  0.25934120  0.91639071  0.40010464  1
  Te  Te134  1  0.26373290  0.91638987  0.75300710  1
  Te  Te135  1  0.59827748  0.26303978  0.06650815  1
  Te  Te136  1  0.56792415  0.26889687  0.41609732  1
  Te  Te137  1  0.56954715  0.26347213  0.73696438  1
  Te  Te138  1  0.58819708  0.58421914  0.07572317  1
  Te  Te139  1  0.59296513  0.61891756  0.44014258  1
  Te  Te140  1  0.59137828  0.58240564  0.75171983  1
  Te  Te141  1  0.58050489  0.95327314  0.09769020  1
  Te  Te142  1  0.55235648  0.87529240  0.38513666  1
  Te  Te143  1  0.56976087  0.90655123  0.74982787  1
  Te  Te144  1  0.89484221  0.25837554  0.08255086  1
  Te  Te145  1  0.91479603  0.23480362  0.40634887  1
  Te  Te146  1  0.92218128  0.25169725  0.75313732  1
  Te  Te147  1  0.87948959  0.58308553  0.09831638  1
  Te  Te148  1  0.91428304  0.58121803  0.40469314  1
  Te  Te149  1  0.92851061  0.58946486  0.72091449  1
  Te  Te150  1  0.90788246  0.93277373  0.08786597  1
  Te  Te151  1  0.93637029  0.91563368  0.41661075  1
  Te  Te152  1  0.90942240  0.89998041  0.74917847  1
  Te  Te153  1  0.25700123  0.05061707  0.24378449  1
  Te  Te154  1  0.26017317  0.08715240  0.58283653  1
  Te  Te155  1  0.24173721  0.07279460  0.91030894  1
  Te  Te156  1  0.24863199  0.40763580  0.23181921  1
  Te  Te157  1  0.24950668  0.42586412  0.57864027  1
  Te  Te158  1  0.27389561  0.43738478  0.90432048  1
  Te  Te159  1  0.26676968  0.75041800  0.26760766  1
  Te  Te160  1  0.24825688  0.75366494  0.52958439  1
  Te  Te161  1  0.24959562  0.73057978  0.91303267  1
  Te  Te162  1  0.61800307  0.11280331  0.22757535  1
  Te  Te163  1  0.58955995  0.08114847  0.57760665  1
  Te  Te164  1  0.58817225  0.08235269  0.91291773  1
  Te  Te165  1  0.56810783  0.43682772  0.24635692  1
  Te  Te166  1  0.55999283  0.46339256  0.62881675  1
  Te  Te167  1  0.60707888  0.41818831  0.90002277  1
  Te  Te168  1  0.58919924  0.74358829  0.25877298  1
  Te  Te169  1  0.59607781  0.77156158  0.57552690  1
  Te  Te170  1  0.58967267  0.74542617  0.92425339  1
  Te  Te171  1  0.90751488  0.07468639  0.23918845  1
  Te  Te172  1  0.89583453  0.06637447  0.58254445  1
  Te  Te173  1  0.90526420  0.09306260  0.93745735  1
  Te  Te174  1  0.88933121  0.39698617  0.24950035  1
  Te  Te175  1  0.90800746  0.39856033  0.57445102  1
  Te  Te176  1  0.89576793  0.45064027  0.92630334  1
  Te  Te177  1  0.91385361  0.72624650  0.24422182  1
  Te  Te178  1  0.95451665  0.77936004  0.56093141  1
  Te  Te179  1  0.91158458  0.74212833  0.91576700  1
