# generated using pymatgen
data_In2Te3
_symmetry_space_group_name_H-M   'P 1'
_cell_length_a   18.93064202
_cell_length_b   18.93465495
_cell_length_c   18.93085910
_cell_angle_alpha   89.94186662
_cell_angle_beta   90.02449129
_cell_angle_gamma   90.08963003
_symmetry_Int_Tables_number   1
_chemical_formula_structural   In2Te3
_chemical_formula_sum   'In72 Te108'
_cell_volume   6785.66268360
_cell_formula_units_Z   36
loop_
 _symmetry_equiv_pos_site_id
 _symmetry_equiv_pos_as_xyz
  1  'x, y, z'
loop_
 _atom_site_type_symbol
 _atom_site_label
 _atom_site_symmetry_multiplicity
 _atom_site_fract_x
 _atom_site_fract_y
 _atom_site_fract_z
 _atom_site_occupancy
  In  In0  1  0.34191336  0.65723258  0.33622729  1
  In  In1  1  0.79816919  0.84326329  0.64818677  1
  In  In2  1  0.52610906  0.49859988  0.00228042  1
  In  In3  1  0.52545165  0.82565801  0.32279251  1
  In  In4  1  0.79601609  0.34934284  0.18058003  1
  In  In5  1  0.15928709  0.66277621  0.16828177  1
  In  In6  1  0.66404002  0.51410319  0.86179079  1
  In  In7  1  0.49303843  0.81912213  0.65338860  1
  In  In8  1  0.34779283  0.35294371  0.31340014  1
  In  In9  1  0.00631289  0.16443010  0.17188613  1
  In  In10  1  0.52431552  0.02515918  0.48949910  1
  In  In11  1  0.16553044  0.01313346  0.82364021  1
  In  In12  1  0.52476189  0.65891610  0.48200371  1
  In  In13  1  0.15341069  0.00376884  0.49463628  1
  In  In14  1  -0.00802583  0.85630377  0.18608698  1
  In  In15  1  0.35467241  0.51393303  0.16535117  1
  In  In16  1  0.49291587  0.01310064  0.17103358  1
  In  In17  1  0.16314280  0.30637411  0.86431129  1
  In  In18  1  0.80851080  0.13657532  0.64211515  1
  In  In19  1  -0.00034135  0.66030840  0.31148279  1
  In  In20  1  0.31252952  0.49929439  0.82838519  1
  In  In21  1  0.33181527  0.31637978  -0.00169825  1
  In  In22  1  0.50714382  -0.01339815  0.83991444  1
  In  In23  1  0.00376031  0.05573681  0.01262341  1
  In  In24  1  0.34973811  0.17044980  0.49423354  1
  In  In25  1  -0.00290703  0.66152128  0.69186384  1
  In  In26  1  0.67659847  0.82130773  0.83258151  1
  In  In27  1  0.51506533  0.18539617  0.02955666  1
  In  In28  1  0.30410647  0.84630012  0.48752279  1
  In  In29  1  0.19368614  0.15440140  0.30957750  1
  In  In30  1  0.82903048  0.17434912  0.00814384  1
  In  In31  1  0.15854843  0.16190353  0.02045937  1
  In  In32  1  0.83395426  0.68588128  0.17015653  1
  In  In33  1  0.14112418  0.17118355  0.64258276  1
  In  In34  1  0.84212535  0.34124115  0.85044819  1
  In  In35  1  0.32828210  0.31105027  0.64231107  1
  In  In36  1  0.17839000  0.49094913  0.66854103  1
  In  In37  1  0.80477410  0.69241458  0.47912838  1
  In  In38  1  0.49772252  0.66783615  0.82167525  1
  In  In39  1  -0.00126510  0.33710150  0.32428174  1
  In  In40  1  0.81884321  0.00535218  0.79004594  1
  In  In41  1  0.01042438  0.47994499  0.88577899  1
  In  In42  1  0.83118673  0.35210248  0.48303352  1
  In  In43  1  0.50851158  0.17007348  0.33110007  1
  In  In44  1  0.47694270  0.49296047  0.63537821  1
  In  In45  1  0.00962386  0.19057204  0.84141937  1
  In  In46  1  0.17991722  0.65618553  0.48841599  1
  In  In47  1  0.66394644  0.34640621  0.65998466  1
  In  In48  1  0.00319439  0.48093320  0.48700113  1
  In  In49  1  0.50147680  0.33950812  0.45775906  1
  In  In50  1  0.82598122  0.53269717  0.65871871  1
  In  In51  1  0.65415747  0.66881640  0.63925070  1
  In  In52  1  0.81979229  0.50494142  0.33278472  1
  In  In53  1  0.01253724  0.30854330  0.65811896  1
  In  In54  1  0.34244829  -0.01545900  0.67934433  1
  In  In55  1  -0.03696615  -0.02121552  0.63339356  1
  In  In56  1  0.52707860  0.34212120  0.19442985  1
  In  In57  1  0.48292453  0.84488738  0.00631198  1
  In  In58  1  0.35061830  0.14920591  0.82530912  1
  In  In59  1  0.34894510  0.81225821  0.16645245  1
  In  In60  1  0.02229796  0.82352602  0.85430992  1
  In  In61  1  -0.00366161  -0.00625110  0.35317754  1
  In  In62  1  0.18422984  0.84378536  0.01548637  1
  In  In63  1  -0.00697597  0.82636563  0.49211506  1
  In  In64  1  0.66923992  0.65454098  0.03036757  1
  In  In65  1  0.65733025  -0.00811629  0.00755598  1
  In  In66  1  0.00503150  0.64828274  0.00004622  1
  In  In67  1  0.80194351  -0.02220902  0.20054100  1
  In  In68  1  0.85834694  0.82840250  0.00692846  1
  In  In69  1  0.80071041  0.15337365  0.34871257  1
  In  In70  1  0.34193705  0.68383357  0.00958103  1
  In  In71  1  0.52760077  0.36655776  0.83661832  1
  Te  Te72  1  0.10824595  0.05299966  0.12915662  1
  Te  Te73  1  0.08470756  0.10615775  0.40651430  1
  Te  Te74  1  0.05934912  0.08253368  0.74028782  1
  Te  Te75  1  0.02817114  0.43989164  0.02743059  1
  Te  Te76  1  0.09813351  0.42046985  0.39551034  1
  Te  Te77  1  0.09618703  0.39291064  0.75400526  1
  Te  Te78  1  0.06792107  0.76617013  0.08951623  1
  Te  Te79  1  0.08538589  0.74415301  0.40600269  1
  Te  Te80  1  0.09784877  0.74561004  0.75656994  1
  Te  Te81  1  0.41874047  0.08243663  0.06476178  1
  Te  Te82  1  0.40865107  0.07250858  0.39828326  1
  Te  Te83  1  0.44614786  0.08234199  0.73043324  1
  Te  Te84  1  0.43414417  0.40293348  0.07841252  1
  Te  Te85  1  0.38277345  0.42645082  0.43822356  1
  Te  Te86  1  0.40281730  0.40605832  0.74690663  1
  Te  Te87  1  0.45426206  0.72499157  0.10118596  1
  Te  Te88  1  0.42057488  0.76257796  0.41762046  1
  Te  Te89  1  0.40750249  0.76317901  0.75791232  1
  Te  Te90  1  0.74902341  0.07463018  0.09502327  1
  Te  Te91  1  0.78451632  0.04283517  0.44759061  1
  Te  Te92  1  0.70781019  0.08905558  0.74142366  1
  Te  Te93  1  0.72058090  0.44616942  0.10082825  1
  Te  Te94  1  0.72748978  0.40172173  0.38873267  1
  Te  Te95  1  0.74999507  0.43315552  0.75513125  1
  Te  Te96  1  0.74290971  0.77771485  0.08924712  1
  Te  Te97  1  0.71365135  0.77151223  0.39306959  1
  Te  Te98  1  0.75156525  0.72731734  0.74080481  1
  Te  Te99  1  0.09993767  0.26016062  0.23965030  1
  Te  Te100  1  0.10232434  0.27543437  0.54714422  1
  Te  Te101  1  0.05534067  0.26618752  0.96433993  1
  Te  Te102  1  0.07571007  0.56171908  0.23498211  1
  Te  Te103  1  0.07359207  0.57656909  0.58428821  1
  Te  Te104  1  0.09709893  0.59896573  0.89759736  1
  Te  Te105  1  0.09359561  0.90996202  0.27905027  1
  Te  Te106  1  0.08528051  0.90280323  0.58660470  1
  Te  Te107  1  0.07894560  0.93972529  0.93535554  1
  Te  Te108  1  0.41818713  0.24296250  0.23436946  1
  Te  Te109  1  0.44827032  0.24770857  0.57775631  1
  Te  Te110  1  0.43094301  0.25524394  0.90039344  1
  Te  Te111  1  0.44640237  0.57821893  0.26367528  1
  Te  Te112  1  0.41997902  0.61272688  0.57514810  1
  Te  Te113  1  0.42229237  0.57102287  0.91731936  1
  Te  Te114  1  0.41770728  0.91156469  0.25838437  1
  Te  Te115  1  0.42299335  0.92737452  0.56187802  1
  Te  Te116  1  0.40053188  0.91056269  0.90570289  1
  Te  Te117  1  0.72464800  0.23880259  0.25278658  1
  Te  Te118  1  0.74853124  0.25681089  0.56990064  1
  Te  Te119  1  0.74736255  0.24420808  0.90921825  1
  Te  Te120  1  0.74084321  0.61072347  0.26347837  1
  Te  Te121  1  0.73226973  0.57599601  0.54642030  1
  Te  Te122  1  0.76012444  0.59979353  0.93019097  1
  Te  Te123  1  0.72439671  0.88981312  0.28918932  1
  Te  Te124  1  0.73767618  0.95202079  0.56777189  1
  Te  Te125  1  0.76020763  0.92009564  0.91428371  1
  Te  Te126  1  0.24767479  0.24908003  0.09801856  1
  Te  Te127  1  0.26447618  0.25214236  0.40223454  1
  Te  Te128  1  0.24243422  0.23273179  0.75176882  1
  Te  Te129  1  0.24943020  0.58413000  0.07589612  1
  Te  Te130  1  0.24726200  0.56238581  0.39806099  1
  Te  Te131  1  0.26572010  0.59370210  0.72767494  1
  Te  Te132  1  0.27118391  0.92398012  0.10371830  1
  Te  Te133  1  0.23060284  0.93071522  0.39203166  1
  Te  Te134  1  0.23650787  0.91097370  0.74771711  1
  Te  Te135  1  0.61463629  0.24598159  0.11983525  1
  Te  Te136  1  0.58998488  0.22255673  0.44185838  1
  Te  Te137  1  0.58398322  0.26309018  0.75116327  1
  Te  Te138  1  0.60593135  0.55026770  0.11906072  1
  Te  Te139  1  0.55843364  0.55544034  0.38164914  1
  Te  Te140  1  0.57912666  0.57125097  0.73736027  1
  Te  Te141  1  0.58153112  0.90462445  0.10445269  1
  Te  Te142  1  0.59610990  0.95172900  0.37766454  1
  Te  Te143  1  0.58826766  0.90255351  0.74192872  1
  Te  Te144  1  0.90180897  0.25594024  0.11105491  1
  Te  Te145  1  0.90896928  0.24735964  0.40670606  1
  Te  Te146  1  0.90163794  0.24384497  0.74589187  1
  Te  Te147  1  0.92435311  0.58694558  0.10747359  1
  Te  Te148  1  0.91428341  0.59007554  0.42700478  1
  Te  Te149  1  0.92532238  0.55527779  0.76988397  1
  Te  Te150  1  0.91376586  0.94568497  0.08632405  1
  Te  Te151  1  0.89244672  0.92127360  0.43410677  1
  Te  Te152  1  0.91573611  0.89352746  0.75094706  1
  Te  Te153  1  0.24359321  0.06701223  0.20237885  1
  Te  Te154  1  0.25441073  0.08303785  0.58711246  1
  Te  Te155  1  0.25196393  0.08717833  0.92350716  1
  Te  Te156  1  0.25662121  0.41958941  0.21850566  1
  Te  Te157  1  0.26367860  0.42058403  0.56828793  1
  Te  Te158  1  0.23876034  0.41883570  0.93420671  1
  Te  Te159  1  0.24647761  0.74747689  0.25766181  1
  Te  Te160  1  0.25209971  0.74615278  0.57938177  1
  Te  Te161  1  0.25040129  0.75455820  0.92096542  1
  Te  Te162  1  0.59682881  0.07114067  0.26143503  1
  Te  Te163  1  0.62804840  0.06151965  0.58900430  1
  Te  Te164  1  0.58027007  0.08987843  0.92427905  1
  Te  Te165  1  0.58272963  0.41934591  0.30796041  1
  Te  Te166  1  0.58640736  0.42722510  0.55822006  1
  Te  Te167  1  0.62749383  0.39509287  0.95195662  1
  Te  Te168  1  0.61732724  0.71460060  0.28160725  1
  Te  Te169  1  0.59855090  0.77888687  0.55230058  1
  Te  Te170  1  0.58260504  0.74453811  0.92442609  1
  Te  Te171  1  0.90841405  0.07959922  0.25379060  1
  Te  Te172  1  0.93321183  0.10654866  0.57060564  1
  Te  Te173  1  0.90431151  0.08529155  0.89705260  1
  Te  Te174  1  0.91295700  0.42997305  0.24081405  1
  Te  Te175  1  0.90978806  0.41644996  0.60047079  1
  Te  Te176  1  0.88840170  0.42529005  0.96577047  1
  Te  Te177  1  0.90349592  0.77253231  0.27485513  1
  Te  Te178  1  0.90659623  0.74217185  0.58819058  1
  Te  Te179  1  0.91110960  0.73328956  0.90556644  1
