# generated using pymatgen
data_In2Te3
_symmetry_space_group_name_H-M   'P 1'
_cell_length_a   18.83169960
_cell_length_b   18.84434203
_cell_length_c   18.83343363
_cell_angle_alpha   89.96404608
_cell_angle_beta   90.02300761
_cell_angle_gamma   90.03484598
_symmetry_Int_Tables_number   1
_chemical_formula_structural   In2Te3
_chemical_formula_sum   'In72 Te108'
_cell_volume   6683.43611675
_cell_formula_units_Z   36
loop_
 _symmetry_equiv_pos_site_id
 _symmetry_equiv_pos_as_xyz
  1  'x, y, z'
loop_
 _atom_site_type_symbol
 _atom_site_label
 _atom_site_symmetry_multiplicity
 _atom_site_fract_x
 _atom_site_fract_y
 _atom_site_fract_z
 _atom_site_occupancy
  In  In0  1  0.01887625  0.83542452  0.15674083  1
  In  In1  1  0.46885750  0.01172380  0.48119058  1
  In  In2  1  0.47570918  0.67358108  0.50895869  1
  In  In3  1  0.03481772  0.20471784  0.88200408  1
  In  In4  1  0.04954763  0.83774792  0.84035828  1
  In  In5  1  0.32423286  0.84820000  0.15167146  1
  In  In6  1  0.48315800  0.83674760  0.67276109  1
  In  In7  1  0.83389921  0.18902569  0.64893987  1
  In  In8  1  0.00458851  0.33258104  0.31412853  1
  In  In9  1  0.16964558  0.65947202  0.51235903  1
  In  In10  1  0.47811139  0.33851084  0.85509553  1
  In  In11  1  0.14072232  0.01417639  0.48993783  1
  In  In12  1  0.32562900  0.02926831  0.32783098  1
  In  In13  1  0.66559866  0.62923001  0.29500786  1
  In  In14  1  0.65109504  0.19393067  0.14642118  1
  In  In15  1  0.82783363  -0.03244400  0.48163280  1
  In  In16  1  0.83955266  0.35845252  0.47312836  1
  In  In17  1  0.17555725  0.00667042  0.85197300  1
  In  In18  1  0.83018647  0.63485282  0.46487215  1
  In  In19  1  0.83949881  0.33051743  0.16242255  1
  In  In20  1  0.84083668  0.16997551  0.00874000  1
  In  In21  1  0.84462096  0.83137980  0.00773967  1
  In  In22  1  0.34883687  0.46879807  0.14216520  1
  In  In23  1  0.16670690  0.64683771  0.13952040  1
  In  In24  1  0.50577427  0.84785343  -0.00986354  1
  In  In25  1  0.65075144  0.01497131  0.68241856  1
  In  In26  1  0.63179937  0.18326322  0.46479238  1
  In  In27  1  0.46657126  0.63460821  0.88320720  1
  In  In28  1  0.00194199  0.31273401  0.65953510  1
  In  In29  1  0.64558029  0.62837905  0.66383389  1
  In  In30  1  0.66213872  0.35223134  0.67482861  1
  In  In31  1  0.32146072  0.65697189  0.69220918  1
  In  In32  1  0.29999215  0.83027660  0.85899514  1
  In  In33  1  0.49065810  0.67140087  0.16103937  1
  In  In34  1  0.33454835  0.34970525  0.67182512  1
  In  In35  1  0.00530059  0.64682458  0.33152011  1
  In  In36  1  0.66761731  0.48090673  0.16711547  1
  In  In37  1  0.48575348  0.04075739  0.11983693  1
  In  In38  1  0.16781612  0.03497802  0.13681111  1
  In  In39  1  0.48688526  0.31828430  0.48138108  1
  In  In40  1  0.16283175  0.30778861  0.14470563  1
  In  In41  1  0.16954260  0.50698291  0.68230568  1
  In  In42  1  0.66648334  0.49235019  0.85563279  1
  In  In43  1  0.01069477  -0.00545111  0.66692773  1
  In  In44  1  0.67555986  0.02641825  0.30069248  1
  In  In45  1  0.85404314  0.80547050  0.66840419  1
  In  In46  1  0.01359392  0.15585377  0.48626795  1
  In  In47  1  0.17426573  0.47416528  -0.00787238  1
  In  In48  1  0.65739734  0.15721893  0.87588952  1
  In  In49  1  0.50622880  0.49449570  0.33237552  1
  In  In50  1  0.83476782  0.65424585  0.84807992  1
  In  In51  1  0.65544159  0.47353771  0.49624164  1
  In  In52  1  0.50887782  0.83300889  0.33137107  1
  In  In53  1  0.83698139  0.00158413  0.86085315  1
  In  In54  1  0.32541132  0.19103320  0.86057623  1
  In  In55  1  0.49206698  0.02426270  0.85934837  1
  In  In56  1  0.67745162  0.65948796  0.01548658  1
  In  In57  1  0.47824614  0.18611753  0.68017029  1
  In  In58  1  0.18023880  0.82505778  0.31840967  1
  In  In59  1  0.86791195  0.15241680  0.28037079  1
  In  In60  1  -0.00287234  0.64683771  0.02262968  1
  In  In61  1  0.68706314  0.83477151  0.48798324  1
  In  In62  1  0.84892648  0.85505246  0.32457069  1
  In  In63  1  0.32993612  0.50806543  0.49747136  1
  In  In64  1  -0.00714750  0.48673885  0.84609184  1
  In  In65  1  0.16218879  0.47661888  0.33577808  1
  In  In66  1  0.01965739  0.66816895  0.67863145  1
  In  In67  1  -0.01426989  0.86034128  0.49119352  1
  In  In68  1  0.85090807  0.34346214  0.86657735  1
  In  In69  1  0.18646130  0.15467669  0.67297726  1
  In  In70  1  0.36648286  0.83994551  0.49330923  1
  In  In71  1  0.69613514  0.84076114  0.85057787  1
  Te  Te72  1  0.05690145  0.13845289  0.10877791  1
  Te  Te73  1  0.10089233  0.10346281  0.37706250  1
  Te  Te74  1  0.07246480  0.09929951  0.75762156  1
  Te  Te75  1  0.07341809  0.41460877  0.08436682  1
  Te  Te76  1  0.08551952  0.38840550  0.42465185  1
  Te  Te77  1  0.08191442  0.40354267  0.75397791  1
  Te  Te78  1  0.11007755  0.76411533  0.05534335  1
  Te  Te79  1  0.08390711  0.75739250  0.41648472  1
  Te  Te80  1  0.12091460  0.74693323  0.74939603  1
  Te  Te81  1  0.38199497  0.13134492  0.06176360  1
  Te  Te82  1  0.41927037  0.12902483  0.39972779  1
  Te  Te83  1  0.39486687  0.08993721  0.76187199  1
  Te  Te84  1  0.43541422  0.38257531  0.05552301  1
  Te  Te85  1  0.39535265  0.41220831  0.40007519  1
  Te  Te86  1  0.39909506  0.43465531  0.77391009  1
  Te  Te87  1  0.40871602  0.75434874  0.06336918  1
  Te  Te88  1  0.40637233  0.73557344  0.38840589  1
  Te  Te89  1  0.42011542  0.74439099  0.77566771  1
  Te  Te90  1  0.75232928  0.09558141  0.10103874  1
  Te  Te91  1  0.74369126  0.08334413  0.42436283  1
  Te  Te92  1  0.75322273  0.09201701  0.76669931  1
  Te  Te93  1  0.73848700  0.39195777  0.07179500  1
  Te  Te94  1  0.74246040  0.42770568  0.38775427  1
  Te  Te95  1  0.76425411  0.42120831  0.76139740  1
  Te  Te96  1  0.75514690  0.75531857  0.09622766  1
  Te  Te97  1  0.75399523  0.74181112  0.38640628  1
  Te  Te98  1  0.73913649  0.72718960  0.74981252  1
  Te  Te99  1  0.09481985  0.22812666  0.25614511  1
  Te  Te100  1  0.10475760  0.24117007  0.57313681  1
  Te  Te101  1  0.11870122  0.31918787  0.94081065  1
  Te  Te102  1  0.08323409  0.56104640  0.23286344  1
  Te  Te103  1  0.06994166  0.56586860  0.57691432  1
  Te  Te104  1  0.08507066  0.58379751  0.91657657  1
  Te  Te105  1  0.10830933  0.92965809  0.23768296  1
  Te  Te106  1  0.09628938  0.89828991  0.58901201  1
  Te  Te107  1  0.07481113  0.94219844  0.93970292  1
  Te  Te108  1  0.37587983  0.23392424  0.26212527  1
  Te  Te109  1  0.38650232  0.24398946  0.57532212  1
  Te  Te110  1  0.45392739  0.21367131  0.94407976  1
  Te  Te111  1  0.41028770  0.57111559  0.24226527  1
  Te  Te112  1  0.41675611  0.57312540  0.60494150  1
  Te  Te113  1  0.39764280  0.53288058  0.96471773  1
  Te  Te114  1  0.41267799  0.92393433  0.25399086  1
  Te  Te115  1  0.40343918  0.94443652  0.60202543  1
  Te  Te116  1  0.39320832  0.93397757  0.93082093  1
  Te  Te117  1  0.75265721  0.24583629  0.25498413  1
  Te  Te118  1  0.72308881  0.25912085  0.56899189  1
  Te  Te119  1  0.73737068  0.26890758  0.94003256  1
  Te  Te120  1  0.77841100  0.57950465  0.21011551  1
  Te  Te121  1  0.75142650  0.56389007  0.57951935  1
  Te  Te122  1  0.77171324  0.55946956  0.94652161  1
  Te  Te123  1  0.75292221  0.92129327  0.23438215  1
  Te  Te124  1  0.74853494  0.91744070  0.61157948  1
  Te  Te125  1  0.73769825  0.93860072  0.95631962  1
  Te  Te126  1  0.26535425  0.23961909  0.05404803  1
  Te  Te127  1  0.30080173  0.23457158  0.38433615  1
  Te  Te128  1  0.24029753  0.26737398  0.75912606  1
  Te  Te129  1  0.27816962  0.58270692  0.05472748  1
  Te  Te130  1  0.24534184  0.58992619  0.40056126  1
  Te  Te131  1  0.26327018  0.55766572  0.78602175  1
  Te  Te132  1  0.25217044  0.93907481  0.05999451  1
  Te  Te133  1  0.25651861  0.91631341  0.41768709  1
  Te  Te134  1  0.24581205  0.92057610  0.75546317  1
  Te  Te135  1  0.53607162  0.26496055  0.08445704  1
  Te  Te136  1  0.58122807  0.28557399  0.36976124  1
  Te  Te137  1  0.58996609  0.24872541  0.76381905  1
  Te  Te138  1  0.57334983  0.57153797  0.08259237  1
  Te  Te139  1  0.58251633  0.60025472  0.42634253  1
  Te  Te140  1  0.56230008  0.57049639  0.77433595  1
  Te  Te141  1  0.56615859  0.91704235  0.10542006  1
  Te  Te142  1  0.58445808  0.93504660  0.41695364  1
  Te  Te143  1  0.57481781  0.91512231  0.77194759  1
  Te  Te144  1  0.94303989  0.24790835  0.08796299  1
  Te  Te145  1  0.90435588  0.23345643  0.41050446  1
  Te  Te146  1  0.91575830  0.24178435  0.77225926  1
  Te  Te147  1  0.90160763  0.58415121  0.11135249  1
  Te  Te148  1  0.92378294  0.54239675  0.39854926  1
  Te  Te149  1  0.91664302  0.57853193  0.74437008  1
  Te  Te150  1  0.92427464  0.92962040  0.08866847  1
  Te  Te151  1  0.94493678  0.95842680  0.38281232  1
  Te  Te152  1  0.91556590  0.91559049  0.75915780  1
  Te  Te153  1  0.26964179  0.11824743  0.21993844  1
  Te  Te154  1  0.25012231  0.07838847  0.56465940  1
  Te  Te155  1  0.21905963  0.11987554  0.94030920  1
  Te  Te156  1  0.24863064  0.39922577  0.23383784  1
  Te  Te157  1  0.23624322  0.41843619  0.57631661  1
  Te  Te158  1  0.26718652  0.36069622  0.95132777  1
  Te  Te159  1  0.25863231  0.73156538  0.22958560  1
  Te  Te160  1  0.27289270  0.74859819  0.57939950  1
  Te  Te161  1  0.21084292  0.74551531  0.93578737  1
  Te  Te162  1  0.56068120  0.10289198  0.23979651  1
  Te  Te163  1  0.56870554  0.09475953  0.58206436  1
  Te  Te164  1  0.58549196  0.06517349  0.96858797  1
  Te  Te165  1  0.56436808  0.39638655  0.23670124  1
  Te  Te166  1  0.55160779  0.41130225  0.58930141  1
  Te  Te167  1  0.57330849  0.41527251  0.94142317  1
  Te  Te168  1  0.59608310  0.75326833  0.23573759  1
  Te  Te169  1  0.58467009  0.75907518  0.58842063  1
  Te  Te170  1  0.59192855  0.73950308  0.91384219  1
  Te  Te171  1  0.94124680  0.06590048  0.18562121  1
  Te  Te172  1  0.91243439  0.07267360  0.58016453  1
  Te  Te173  1  0.94214562  0.08553029  0.92827623  1
  Te  Te174  1  0.91695894  0.42827584  0.24371329  1
  Te  Te175  1  0.90369307  0.40329799  0.59698954  1
  Te  Te176  1  0.93807542  0.41357903  0.96396871  1
  Te  Te177  1  0.93069192  0.75013088  0.24720730  1
  Te  Te178  1  0.91879376  0.73441520  0.55080502  1
  Te  Te179  1  0.93307026  0.75368202  0.90813343  1
