# generated using pymatgen
data_In2Te3
_symmetry_space_group_name_H-M   'P 1'
_cell_length_a   18.93718440
_cell_length_b   18.91118459
_cell_length_c   18.94338977
_cell_angle_alpha   89.97663641
_cell_angle_beta   90.12337519
_cell_angle_gamma   89.97663687
_symmetry_Int_Tables_number   1
_chemical_formula_structural   In2Te3
_chemical_formula_sum   'In72 Te108'
_cell_volume   6784.07683429
_cell_formula_units_Z   36
loop_
 _symmetry_equiv_pos_site_id
 _symmetry_equiv_pos_as_xyz
  1  'x, y, z'
loop_
 _atom_site_type_symbol
 _atom_site_label
 _atom_site_symmetry_multiplicity
 _atom_site_fract_x
 _atom_site_fract_y
 _atom_site_fract_z
 _atom_site_occupancy
  In  In0  1  0.34328089  0.51257794  0.82335010  1
  In  In1  1  0.84400246  0.00374776  0.15342632  1
  In  In2  1  0.34529232  0.70008360  0.67721729  1
  In  In3  1  0.17928062  0.14854370  -0.00121827  1
  In  In4  1  0.83746826  0.80790834  0.36062942  1
  In  In5  1  0.17141427  0.84305264  0.68325870  1
  In  In6  1  0.19294219  0.13803606  0.65107300  1
  In  In7  1  0.82297033  0.12001797  0.00193021  1
  In  In8  1  0.33837977  0.11901729  0.84282277  1
  In  In9  1  0.65369202  0.34007289  0.00592499  1
  In  In10  1  0.12298821  0.32493625  0.16071186  1
  In  In11  1  0.00571803  0.34930117  0.01917652  1
  In  In12  1  0.66117213  0.32845655  0.66744316  1
  In  In13  1  0.85394446  0.51941490  -0.00715317  1
  In  In14  1  -0.00441709  0.17752511  0.82042553  1
  In  In15  1  0.70172652  0.64023130  0.34109985  1
  In  In16  1  0.14567916  0.33907238  0.49767088  1
  In  In17  1  -0.00640376  0.00677524  0.68306813  1
  In  In18  1  0.30545610  0.32468462  0.64798006  1
  In  In19  1  0.65500204  0.65007723  0.66244009  1
  In  In20  1  0.36567690  0.17222494  0.16230532  1
  In  In21  1  0.50860000  0.52209422  -0.01430590  1
  In  In22  1  0.15091757  0.50157961  0.66830189  1
  In  In23  1  0.32249317  0.50944725  0.15689364  1
  In  In24  1  0.65068924  -0.01364963  0.33097516  1
  In  In25  1  0.15330363  0.68270169  0.85452246  1
  In  In26  1  0.00444275  0.84507675  0.18417079  1
  In  In27  1  0.16478175  0.67157366  0.15888619  1
  In  In28  1  0.68398181  0.82378836  0.17075647  1
  In  In29  1  0.85681512  0.33646018  0.17031596  1
  In  In30  1  0.84567594  -0.00782018  0.49678895  1
  In  In31  1  0.15509759  0.35006725  0.81412065  1
  In  In32  1  0.51091520  0.00488828  0.16048023  1
  In  In33  1  0.50838328  0.36361264  0.17114012  1
  In  In34  1  0.48799414  0.72457031  0.50263555  1
  In  In35  1  0.84946077  -0.05059660  0.87198386  1
  In  In36  1  -0.01976519  0.65750924  0.65640599  1
  In  In37  1  0.78750760  0.15947023  0.66215826  1
  In  In38  1  0.33439889  0.32354738  0.35268175  1
  In  In39  1  -0.03095328  0.64767365  0.34997878  1
  In  In40  1  0.34282249  0.14139288  0.49704026  1
  In  In41  1  0.49861384  0.14410473  -0.00736522  1
  In  In42  1  0.01409579  0.82681734  0.51688253  1
  In  In43  1  -0.03613187  0.34258028  0.32178396  1
  In  In44  1  0.03467964  0.14047593  0.48433292  1
  In  In45  1  0.52764716  0.48899898  0.34062236  1
  In  In46  1  0.33799174  0.83428618  0.83474206  1
  In  In47  1  0.83495697  0.69427118  0.86096587  1
  In  In48  1  0.31863184  0.32717367  -0.02629946  1
  In  In49  1  0.00746288  0.16028837  0.18337103  1
  In  In50  1  0.51013471  0.84095204  0.33228222  1
  In  In51  1  0.01401218  0.51701604  0.82627638  1
  In  In52  1  0.63978887  0.16589763  0.50197429  1
  In  In53  1  0.16709006  0.49019049  0.33831293  1
  In  In54  1  0.50014934  0.32863335  0.48670013  1
  In  In55  1  0.17715075  0.67971240  0.50259820  1
  In  In56  1  0.67560825  0.48108953  0.82770442  1
  In  In57  1  0.65009287  0.00299784  0.67434041  1
  In  In58  1  0.82403827  0.18381685  0.32931119  1
  In  In59  1  0.32386105  0.81711203  0.15562057  1
  In  In60  1  0.18524117  -0.00546678  0.17520278  1
  In  In61  1  0.66145790  0.14823076  0.82400057  1
  In  In62  1  0.32299897  -0.00011364  0.34429347  1
  In  In63  1  0.47467152  0.51283843  0.65983551  1
  In  In64  1  0.53390177  0.69889600  0.87337616  1
  In  In65  1  -0.01652971  0.48940019  0.16262008  1
  In  In66  1  0.68688891  0.49472558  0.48377578  1
  In  In67  1  0.81346391  0.83652311  0.67462010  1
  In  In68  1  0.33038151  0.66407060  0.29530595  1
  In  In69  1  0.51485285  0.67947553  0.13150313  1
  In  In70  1  0.50071550  -0.02219217  0.84378630  1
  In  In71  1  0.80944689  0.33506155  0.82328222  1
  Te  Te72  1  0.08125965  0.07191973  0.08589194  1
  Te  Te73  1  0.11150537  0.05140074  0.39787150  1
  Te  Te74  1  0.09830195  0.08094530  0.76292986  1
  Te  Te75  1  0.10654292  0.44719741  0.07636499  1
  Te  Te76  1  0.05126541  0.42910483  0.41628176  1
  Te  Te77  1  0.04797136  0.40499912  0.72141267  1
  Te  Te78  1  0.08952251  0.77579840  0.08022793  1
  Te  Te79  1  0.07631853  0.74281935  0.40725614  1
  Te  Te80  1  0.07130592  0.74484250  0.74294436  1
  Te  Te81  1  0.39732293  0.06046193  0.06722435  1
  Te  Te82  1  0.43515176  0.07765646  0.40133081  1
  Te  Te83  1  0.43291043  0.06566667  0.74528289  1
  Te  Te84  1  0.40922536  0.41902010  0.05963698  1
  Te  Te85  1  0.41033494  0.43337466  0.42334912  1
  Te  Te86  1  0.40518243  0.40414463  0.73876081  1
  Te  Te87  1  0.42627638  0.77208189  0.05618835  1
  Te  Te88  1  0.39040509  0.76516400  0.39333582  1
  Te  Te89  1  0.45327437  0.76425687  0.75970776  1
  Te  Te90  1  0.72686446  0.07543904  0.10156355  1
  Te  Te91  1  0.74666662  0.08032699  0.42101833  1
  Te  Te92  1  0.77566836  0.05516340  0.77291317  1
  Te  Te93  1  0.77011258  0.41302212  0.06571112  1
  Te  Te94  1  0.79239721  0.41639497  0.41293419  1
  Te  Te95  1  0.76431901  0.43195183  0.71530604  1
  Te  Te96  1  0.75503391  0.75413143  0.05780879  1
  Te  Te97  1  0.71482626  0.76057509  0.42361211  1
  Te  Te98  1  0.73135977  0.74325616  0.76001978  1
  Te  Te99  1  0.08185876  0.24870300  0.28212568  1
  Te  Te100  1  0.08818824  0.23265028  0.59186948  1
  Te  Te101  1  0.08999308  0.25646281  0.92283061  1
  Te  Te102  1  0.07812176  0.57999276  0.25334271  1
  Te  Te103  1  0.07567275  0.58362924  0.56513573  1
  Te  Te104  1  0.06852296  0.59473826  0.93767897  1
  Te  Te105  1  0.07924370  0.94427651  0.26785220  1
  Te  Te106  1  0.09020968  0.93412423  0.59084513  1
  Te  Te107  1  0.02914720  0.87564942  0.96367283  1
  Te  Te108  1  0.43789902  0.26168602  0.26179931  1
  Te  Te109  1  0.41620806  0.24604883  0.58199881  1
  Te  Te110  1  0.41659224  0.23683581  0.90342538  1
  Te  Te111  1  0.43570274  0.57127511  0.23831017  1
  Te  Te112  1  0.40343057  0.60873810  0.57126224  1
  Te  Te113  1  0.41013906  0.61342753  0.91402710  1
  Te  Te114  1  0.40957518  0.91429963  0.23916831  1
  Te  Te115  1  0.47088828  0.86447797  0.56307242  1
  Te  Te116  1  0.42619454  0.89307979  0.94097247  1
  Te  Te117  1  0.74738287  0.26124742  0.23195952  1
  Te  Te118  1  0.74722208  0.26422449  0.56146296  1
  Te  Te119  1  0.74691500  0.23951687  0.92363047  1
  Te  Te120  1  0.78255623  0.59702503  0.22894780  1
  Te  Te121  1  0.75812417  0.59008356  0.57444403  1
  Te  Te122  1  0.73912440  0.58373344  0.91724362  1
  Te  Te123  1  0.76878210  0.91406385  0.26349723  1
  Te  Te124  1  0.73794081  0.92271877  0.57532821  1
  Te  Te125  1  0.75295165  0.87675720  0.95858164  1
  Te  Te126  1  0.24812767  0.25642069  0.09014053  1
  Te  Te127  1  0.24059972  0.23853880  0.43316158  1
  Te  Te128  1  0.24822410  0.24149061  0.76165576  1
  Te  Te129  1  0.26935064  0.61593356  0.07233625  1
  Te  Te130  1  0.25733242  0.58934779  0.40717271  1
  Te  Te131  1  0.24168507  0.59929781  0.74126950  1
  Te  Te132  1  0.23240981  0.89904737  0.07192128  1
  Te  Te133  1  0.21504517  0.94051420  0.42243006  1
  Te  Te134  1  0.27778477  0.93013880  0.73744914  1
  Te  Te135  1  0.56462093  0.24684590  0.08396979  1
  Te  Te136  1  0.60385633  0.26957561  0.40398228  1
  Te  Te137  1  0.57694231  0.23957705  0.74692167  1
  Te  Te138  1  0.60136999  0.56984753  0.08738984  1
  Te  Te139  1  0.57538439  0.59826498  0.43382505  1
  Te  Te140  1  0.56676797  0.57638365  0.76499763  1
  Te  Te141  1  0.58348515  0.89718528  0.08874176  1
  Te  Te142  1  0.55573343  0.93742266  0.43826094  1
  Te  Te143  1  0.61021900  0.90578413  0.77553741  1
  Te  Te144  1  0.92049937  0.22994565  0.07258470  1
  Te  Te145  1  0.92933424  0.23621130  0.42734388  1
  Te  Te146  1  0.89464630  0.24835213  0.73220887  1
  Te  Te147  1  0.93384361  0.60261065  0.08214253  1
  Te  Te148  1  0.87734900  0.58916944  0.45256711  1
  Te  Te149  1  0.89767445  0.58967243  0.76301863  1
  Te  Te150  1  0.91826174  0.90341051  0.07119038  1
  Te  Te151  1  0.93855486  0.91074167  0.41280392  1
  Te  Te152  1  0.92945460  0.89052226  0.75705966  1
  Te  Te153  1  0.26153971  0.10668285  0.24809933  1
  Te  Te154  1  0.28555494  0.04142784  0.59071917  1
  Te  Te155  1  0.23889716  0.04300174  0.91780607  1
  Te  Te156  1  0.25383034  0.40528390  0.24695320  1
  Te  Te157  1  0.24285955  0.43587188  0.56669425  1
  Te  Te158  1  0.23862347  0.43842729  0.90603841  1
  Te  Te159  1  0.22501790  0.76767475  0.26122986  1
  Te  Te160  1  0.26287858  0.78092168  0.57689350  1
  Te  Te161  1  0.22761172  0.78851848  0.92319484  1
  Te  Te162  1  0.58244831  0.09130926  0.25483017  1
  Te  Te163  1  0.55925350  0.09018052  0.59871682  1
  Te  Te164  1  0.60498682  0.05789551  0.93025769  1
  Te  Te165  1  0.61848291  0.42530291  0.24544885  1
  Te  Te166  1  0.57787985  0.43287564  0.58183828  1
  Te  Te167  1  0.56671988  0.40506819  0.90092056  1
  Te  Te168  1  0.58648377  0.73383621  0.25609627  1
  Te  Te169  1  0.58714647  0.77331779  0.60598872  1
  Te  Te170  1  0.62917587  0.77579498  0.96167635  1
  Te  Te171  1  0.91428274  0.07721596  0.26738838  1
  Te  Te172  1  0.91342759  0.09360362  0.58812336  1
  Te  Te173  1  0.93679865  0.07246210  0.91340581  1
  Te  Te174  1  0.86512894  0.46916232  0.25836780  1
  Te  Te175  1  0.89818305  0.45182791  0.51318104  1
  Te  Te176  1  0.92199389  0.40480533  0.90259088  1
  Te  Te177  1  0.90848307  0.73999217  0.24418232  1
  Te  Te178  1  0.89480345  0.75414682  0.57559433  1
  Te  Te179  1  0.95551095  0.75021587  0.92837143  1
