# generated using pymatgen
data_In2Te3
_symmetry_space_group_name_H-M   'P 1'
_cell_length_a   18.97601402
_cell_length_b   18.99827996
_cell_length_c   19.01719692
_cell_angle_alpha   90.09517592
_cell_angle_beta   90.20454306
_cell_angle_gamma   89.81509134
_symmetry_Int_Tables_number   1
_chemical_formula_structural   In2Te3
_chemical_formula_sum   'In72 Te108'
_cell_volume   6855.83188166
_cell_formula_units_Z   36
loop_
 _symmetry_equiv_pos_site_id
 _symmetry_equiv_pos_as_xyz
  1  'x, y, z'
loop_
 _atom_site_type_symbol
 _atom_site_label
 _atom_site_symmetry_multiplicity
 _atom_site_fract_x
 _atom_site_fract_y
 _atom_site_fract_z
 _atom_site_occupancy
  In  In0  1  0.66460519  0.33441631  0.32916046  1
  In  In1  1  0.53146570  0.66955192  0.15007313  1
  In  In2  1  -0.04751764  0.13880037  0.85509382  1
  In  In3  1  0.82778003  0.83314654  0.32676555  1
  In  In4  1  0.63068593  -0.00158985  0.34635468  1
  In  In5  1  0.47356907  0.16204314  0.33333379  1
  In  In6  1  0.67009175  -0.02783093  0.64549783  1
  In  In7  1  0.13241212  0.29915548  0.82747603  1
  In  In8  1  -0.01054729  0.32940828  0.65205869  1
  In  In9  1  0.30638669  -0.02479817  0.32007490  1
  In  In10  1  0.14580545  0.33532834  0.15559348  1
  In  In11  1  0.83562586  0.84009852  -0.00709050  1
  In  In12  1  0.85150647  0.49142152  0.32835436  1
  In  In13  1  0.49945023  0.01080170  0.16756030  1
  In  In14  1  0.15973804  0.01659264  0.15566924  1
  In  In15  1  0.51454122  0.00254870  0.83070901  1
  In  In16  1  0.00044813  0.66309051  0.67228969  1
  In  In17  1  0.69365560  0.65261386  0.33968086  1
  In  In18  1  0.64947286  0.51160579  0.80461312  1
  In  In19  1  0.85283465  0.33440923  0.46064962  1
  In  In20  1  -0.03827816  0.18369224  0.15143903  1
  In  In21  1  -0.01250791  0.65945730  -0.02211658  1
  In  In22  1  0.00713043  0.85027673  0.14702949  1
  In  In23  1  0.32562884  0.15470390  0.50443366  1
  In  In24  1  0.48233414  0.52501590  0.64549882  1
  In  In25  1  0.50977530  0.84016522  0.00468095  1
  In  In26  1  0.84446049  -0.01312913  0.51473436  1
  In  In27  1  0.14765113  -0.00096159  0.47414209  1
  In  In28  1  0.47347628  0.73628356  0.61852986  1
  In  In29  1  0.33739949  0.65825241  0.01313735  1
  In  In30  1  0.90070456  0.63376579  0.17950387  1
  In  In31  1  0.12856617  0.52083058  0.31110647  1
  In  In32  1  0.15937523  0.82310926  0.34467466  1
  In  In33  1  0.34879169  -0.01068060  0.00988512  1
  In  In34  1  0.32657139  0.33464476  0.68511864  1
  In  In35  1  0.18284806  0.68152944  0.82096333  1
  In  In36  1  -0.00025509  0.52489376  0.49878766  1
  In  In37  1  0.50710923  0.33300489  0.17151859  1
  In  In38  1  0.16411070  0.35972660  0.50375098  1
  In  In39  1  0.33532669  0.16113210  0.85060527  1
  In  In40  1  0.10587810  -0.02636466  0.80013518  1
  In  In41  1  0.17429384  0.48616593  0.68839029  1
  In  In42  1  0.34078656  0.33457902  0.35447899  1
  In  In43  1  0.85900222  0.13681061  0.35222316  1
  In  In44  1  0.75137098  0.20436108  0.11861448  1
  In  In45  1  0.31288995  0.35450356  0.02801903  1
  In  In46  1  0.69236704  0.53422557  0.54070570  1
  In  In47  1  0.66425231  0.84492574  0.16070570  1
  In  In48  1  0.53102119  0.52417468  0.35253865  1
  In  In49  1  -0.02284800  0.31215503  0.31434196  1
  In  In50  1  0.65217001  0.17109004  0.52018725  1
  In  In51  1  0.51339070  0.17992755  -0.00603818  1
  In  In52  1  0.84845012  0.37603449  0.85485977  1
  In  In53  1  0.72326098  0.16794407  0.85562740  1
  In  In54  1  0.30588133  0.66647261  0.33406682  1
  In  In55  1  0.49553600  0.83541568  0.35547792  1
  In  In56  1  0.48507741  0.35837711  0.51569128  1
  In  In57  1  0.68225116  0.81670391  0.82351592  1
  In  In58  1  0.68651072  0.32816472  0.69361325  1
  In  In59  1  0.83480411  0.66471759  0.80980903  1
  In  In60  1  0.15516293  0.85209344  -0.01769504  1
  In  In61  1  0.34260291  0.49933766  0.87248275  1
  In  In62  1  0.34091329  0.49712999  0.18808811  1
  In  In63  1  0.84852502  0.15749614  0.65560919  1
  In  In64  1  0.32624980  -0.01224065  0.66513880  1
  In  In65  1  0.15991435  0.49962198  0.00553771  1
  In  In66  1  0.52529624  0.32807353  0.82963046  1
  In  In67  1  0.50394880  -0.04419749  0.50408509  1
  In  In68  1  0.17483297  0.82202045  0.65432543  1
  In  In69  1  0.00358159  0.81802160  0.49111723  1
  In  In70  1  0.13967897  0.15097478  -0.01953342  1
  In  In71  1  0.68197213  0.68633554  -0.00184608  1
  Te  Te72  1  0.04795656  0.07879503  0.07365915  1
  Te  Te73  1  0.05345887  0.09678686  0.42159698  1
  Te  Te74  1  0.06608954  0.11058947  0.75855759  1
  Te  Te75  1  0.05666545  0.41361219  0.06680381  1
  Te  Te76  1  0.06072470  0.41238298  0.40316432  1
  Te  Te77  1  0.06196457  0.41382957  0.75791828  1
  Te  Te78  1  0.07987430  0.74694119  0.06175676  1
  Te  Te79  1  0.09988552  0.72145259  0.43340282  1
  Te  Te80  1  0.07596632  0.76572888  0.75590592  1
  Te  Te81  1  0.41561013  0.10419322  0.08239873  1
  Te  Te82  1  0.41398663  0.05744728  0.42384863  1
  Te  Te83  1  0.41489260  0.08308633  0.74882077  1
  Te  Te84  1  0.43019729  0.43194586  0.08351326  1
  Te  Te85  1  0.41473455  0.45013870  0.41842447  1
  Te  Te86  1  0.43026640  0.42193420  0.75457772  1
  Te  Te87  1  0.42182335  0.75802695  0.09480914  1
  Te  Te88  1  0.40356736  0.74134069  0.41691867  1
  Te  Te89  1  0.36799399  0.73279387  0.72270592  1
  Te  Te90  1  0.78638815  0.06432165  0.07675405  1
  Te  Te91  1  0.73572461  0.07820480  0.43416224  1
  Te  Te92  1  0.74075135  0.08214826  0.72584477  1
  Te  Te93  1  0.79087417  0.34883452  0.14899727  1
  Te  Te94  1  0.73571883  0.43373672  0.42190554  1
  Te  Te95  1  0.77069161  0.44212424  0.74084833  1
  Te  Te96  1  0.76964136  0.75493053  0.10141986  1
  Te  Te97  1  0.79444016  0.72366916  0.42151667  1
  Te  Te98  1  0.73067969  0.72210320  0.71627684  1
  Te  Te99  1  0.08100592  0.23057749  0.24207366  1
  Te  Te100  1  0.10362030  0.26125296  0.59220487  1
  Te  Te101  1  0.03740344  0.24955313  0.93045615  1
  Te  Te102  1  0.04196945  0.58137619  0.21380733  1
  Te  Te103  1  0.10288366  0.58150096  0.59412147  1
  Te  Te104  1  0.09483749  0.58503000  0.89946033  1
  Te  Te105  1  0.08888303  0.92397984  0.25224903  1
  Te  Te106  1  0.07914844  0.91395186  0.58156758  1
  Te  Te107  1  0.04404535  0.93264782  0.92742045  1
  Te  Te108  1  0.39788199  0.25371707  0.23942853  1
  Te  Te109  1  0.41092342  0.24986780  0.58942536  1
  Te  Te110  1  0.41044730  0.27121951  0.92499924  1
  Te  Te111  1  0.43727721  0.59496594  0.25212020  1
  Te  Te112  1  0.40478596  0.61587475  0.55696295  1
  Te  Te113  1  0.43882495  0.58889469  0.93275880  1
  Te  Te114  1  0.41975045  0.90855501  0.24441687  1
  Te  Te115  1  0.41537399  0.88522856  0.60010978  1
  Te  Te116  1  0.41950794  0.90914509  0.90344829  1
  Te  Te117  1  0.76275783  0.23345592  0.27891133  1
  Te  Te118  1  0.76216695  0.26394073  0.56894444  1
  Te  Te119  1  0.73413066  0.30381409  0.91669046  1
  Te  Te120  1  0.76682682  0.57602281  0.23391534  1
  Te  Te121  1  0.78539449  0.62521924  0.60776996  1
  Te  Te122  1  0.74268536  0.58781347  0.90030267  1
  Te  Te123  1  0.73686064  0.93617575  0.25753799  1
  Te  Te124  1  0.79017858  0.89284518  0.61311734  1
  Te  Te125  1  0.75574617  0.91903385  0.89695100  1
  Te  Te126  1  0.22984056  0.23900516  0.07152221  1
  Te  Te127  1  0.23936797  0.24771304  0.42217408  1
  Te  Te128  1  0.24209760  0.22800782  0.75017752  1
  Te  Te129  1  0.24487695  0.57902220  0.10310481  1
  Te  Te130  1  0.21382670  0.58267675  0.41311916  1
  Te  Te131  1  0.27511460  0.57569017  0.76030401  1
  Te  Te132  1  0.24733378  0.91126701  0.08865930  1
  Te  Te133  1  0.25669545  0.89934830  0.43760202  1
  Te  Te134  1  0.24035320  0.90987662  0.76076774  1
  Te  Te135  1  0.60428897  0.25579488  0.08671276  1
  Te  Te136  1  0.56311416  0.25681938  0.42188123  1
  Te  Te137  1  0.59515570  0.22680688  0.74813124  1
  Te  Te138  1  0.62018037  0.57968664  0.07937787  1
  Te  Te139  1  0.59421332  0.61748748  0.45644672  1
  Te  Te140  1  0.56714689  0.60958791  0.72915070  1
  Te  Te141  1  0.59607462  0.94568378  0.07048837  1
  Te  Te142  1  0.62571751  0.87924148  0.44573707  1
  Te  Te143  1  0.58009596  0.89873251  0.74246823  1
  Te  Te144  1  0.87830921  0.26269272  0.05481499  1
  Te  Te145  1  0.95727212  0.21937903  0.44114066  1
  Te  Te146  1  0.90177724  0.25723456  0.75931106  1
  Te  Te147  1  0.88710543  0.56933082  0.04369441  1
  Te  Te148  1  0.90975592  0.60143201  0.40979033  1
  Te  Te149  1  0.93000873  0.56636246  0.75647122  1
  Te  Te150  1  0.89077588  0.93101672  0.09817568  1
  Te  Te151  1  0.92497347  0.91808502  0.40672684  1
  Te  Te152  1  0.95442198  1.00105692  0.78597452  1
  Te  Te153  1  0.24990329  0.08756281  0.24870144  1
  Te  Te154  1  0.23012112  0.07360044  0.58609777  1
  Te  Te155  1  0.24672125  0.06162979  0.92043937  1
  Te  Te156  1  0.24071777  0.40661712  0.25672570  1
  Te  Te157  1  0.27112091  0.43223186  0.58334499  1
  Te  Te158  1  0.23098481  0.39501260  0.90409397  1
  Te  Te159  1  0.23104894  0.74892836  0.24123204  1
  Te  Te160  1  0.27437048  0.72221149  0.60759206  1
  Te  Te161  1  0.26245306  0.75648767  0.92499152  1
  Te  Te162  1  0.58554806  0.10638392  0.24837005  1
  Te  Te163  1  0.56348821  0.07047642  0.58591786  1
  Te  Te164  1  0.60353981  0.08849630  0.91718207  1
  Te  Te165  1  0.59244041  0.43641001  0.24383113  1
  Te  Te166  1  0.59739379  0.41983857  0.59597994  1
  Te  Te167  1  0.60622642  0.41722341  0.91280085  1
  Te  Te168  1  0.59889880  0.75503128  0.26626054  1
  Te  Te169  1  0.59653604  0.76254407  0.54412467  1
  Te  Te170  1  0.57615571  0.74633799  0.90772343  1
  Te  Te171  1  0.92113714  0.07185274  0.23818658  1
  Te  Te172  1  0.94322936  0.07543494  0.57981001  1
  Te  Te173  1  0.82944570  0.08779917  0.93422063  1
  Te  Te174  1  0.91718505  0.41032216  0.21950095  1
  Te  Te175  1  0.90816640  0.42714543  0.56837304  1
  Te  Te176  1  0.92823090  0.44589900  0.95739584  1
  Te  Te177  1  0.93947771  0.76185681  0.25052183  1
  Te  Te178  1  0.91360914  0.74927273  0.58804015  1
  Te  Te179  1  0.91814851  0.76268436  0.89169134  1
