# generated using pymatgen
data_In2Te3
_symmetry_space_group_name_H-M   'P 1'
_cell_length_a   18.74117855
_cell_length_b   18.73780155
_cell_length_c   18.72808971
_cell_angle_alpha   89.99291426
_cell_angle_beta   90.06273338
_cell_angle_gamma   90.03116103
_symmetry_Int_Tables_number   1
_chemical_formula_structural   In2Te3
_chemical_formula_sum   'In72 Te108'
_cell_volume   6576.70991334
_cell_formula_units_Z   36
loop_
 _symmetry_equiv_pos_site_id
 _symmetry_equiv_pos_as_xyz
  1  'x, y, z'
loop_
 _atom_site_type_symbol
 _atom_site_label
 _atom_site_symmetry_multiplicity
 _atom_site_fract_x
 _atom_site_fract_y
 _atom_site_fract_z
 _atom_site_occupancy
  In  In0  1  0.17657444  0.00669070  0.17502840  1
  In  In1  1  0.36590902  0.29268742  0.64111065  1
  In  In2  1  0.66105806  0.66101198  0.65792921  1
  In  In3  1  0.34666975  0.70370063  0.00963451  1
  In  In4  1  0.51970153  0.46784561  0.62428506  1
  In  In5  1  0.17489193  0.51595351  0.03003698  1
  In  In6  1  -0.01828696  0.34345811  0.01725520  1
  In  In7  1  0.17570784  0.67094156  0.48084556  1
  In  In8  1  0.33106274  0.00424112  0.66655845  1
  In  In9  1  0.53411127  0.30179973  0.82940842  1
  In  In10  1  0.65781949  0.49646081  0.48511030  1
  In  In11  1  -0.01915565  0.69438482  0.34832998  1
  In  In12  1  0.37596702  0.32011461  0.32031842  1
  In  In13  1  0.14782304  0.67418559  0.83576665  1
  In  In14  1  0.19215460  0.14505734  0.66292077  1
  In  In15  1  0.67884426  0.33037774  -0.00009392  1
  In  In16  1  0.31760920  0.68903774  0.62028819  1
  In  In17  1  -0.00486386  0.14656534  0.47649925  1
  In  In18  1  0.66661307  0.15618770  0.18567123  1
  In  In19  1  0.84371662  0.01645752  0.83528385  1
  In  In20  1  0.67229434  0.01524792  0.33574110  1
  In  In21  1  0.67506411  0.16605395  0.82795303  1
  In  In22  1  0.01644137  0.82360362  0.16529992  1
  In  In23  1  0.51033564  0.52295086  0.03457838  1
  In  In24  1  0.68309316  0.48012316  0.83036739  1
  In  In25  1  0.18003199  0.18059195  0.03524027  1
  In  In26  1  -0.00226303  0.83771130  0.84521482  1
  In  In27  1  0.33973599  0.33183924  0.04191700  1
  In  In28  1  -0.00577128  0.15015855  0.82981071  1
  In  In29  1  0.33348635  0.49371227  0.46187905  1
  In  In30  1  0.50345879  0.86599361  0.31249178  1
  In  In31  1  0.64585495  0.84694768  0.81767308  1
  In  In32  1  0.16990178  0.51847099  0.64274338  1
  In  In33  1  0.35040515  0.14169922  0.49560857  1
  In  In34  1  0.65311860  -0.00478949  0.01993107  1
  In  In35  1  0.82491673  0.83284150  0.02204281  1
  In  In36  1  0.33249126  -0.01363240  0.02677965  1
  In  In37  1  0.30915989  0.85983901  0.45845844  1
  In  In38  1  0.17734677  0.52082432  0.31904879  1
  In  In39  1  -0.01066684  0.50182419  0.52057694  1
  In  In40  1  -0.00977610  0.50401595  0.85131381  1
  In  In41  1  0.80646489  0.69807512  0.46093431  1
  In  In42  1  0.16030637  0.33797779  0.84146033  1
  In  In43  1  -0.01732408  0.31155344  0.34115930  1
  In  In44  1  0.64362924  0.32259880  0.32127333  1
  In  In45  1  0.48640470  0.85659397  0.02856268  1
  In  In46  1  -0.01631481  0.16074088  0.17822022  1
  In  In47  1  0.16043314  0.14629327  0.33088609  1
  In  In48  1  0.50996046  0.82736842  0.65472541  1
  In  In49  1  0.82233010  0.00005997  0.48681457  1
  In  In50  1  0.15370368  -0.00202698  0.84442740  1
  In  In51  1  0.84445114  0.66461415  0.84363724  1
  In  In52  1  -0.01363127  0.32421106  0.66498306  1
  In  In53  1  0.34230976  0.48982895  0.82091224  1
  In  In54  1  0.65194526  0.66140167  0.04279124  1
  In  In55  1  0.80930927  0.50785315  0.30064232  1
  In  In56  1  0.50540485  0.02945328  0.49884704  1
  In  In57  1  0.16799554  0.33432862  0.49229953  1
  In  In58  1  0.83538193  0.49743190  0.02310055  1
  In  In59  1  0.82982692  0.00342300  0.18503480  1
  In  In60  1  0.50678096  0.66795729  0.47711856  1
  In  In61  1  -0.00260266  0.85912907  0.49994362  1
  In  In62  1  0.81575885  0.17001146  0.63650889  1
  In  In63  1  0.50841409  0.67835700  0.83585327  1
  In  In64  1  0.33038141  0.83970938  0.85524789  1
  In  In65  1  0.49629541  0.15498877  0.01200151  1
  In  In66  1  0.82998526  0.48265124  0.67714284  1
  In  In67  1  0.35757615  0.14464709  0.82763760  1
  In  In68  1  0.00061989  0.50098393  0.16467285  1
  In  In69  1  0.34384775  0.51217095  0.16961194  1
  In  In70  1  0.50770307  0.67188398  0.16764419  1
  In  In71  1  0.82500712  0.85172050  0.64144032  1
  Te  Te72  1  0.07716011  0.08060950  0.08340073  1
  Te  Te73  1  0.09218305  0.04954339  0.42197955  1
  Te  Te74  1  0.07766362  0.06884850  0.73113587  1
  Te  Te75  1  0.09988549  0.40236586  0.09908868  1
  Te  Te76  1  0.07667183  0.42857579  0.41322753  1
  Te  Te77  1  0.08334033  0.42702302  0.73977417  1
  Te  Te78  1  0.12975038  0.75129338  0.10244326  1
  Te  Te79  1  0.09535656  0.77585429  0.40500276  1
  Te  Te80  1  0.07315054  0.75996707  0.74261135  1
  Te  Te81  1  0.41926411  0.07438308  0.11242346  1
  Te  Te82  1  0.41289969  0.06207884  0.38433515  1
  Te  Te83  1  0.44039261  0.09411862  0.71653263  1
  Te  Te84  1  0.44974859  0.40551688  0.11942348  1
  Te  Te85  1  0.44615928  0.40806412  0.41859293  1
  Te  Te86  1  0.43641620  0.39595817  0.74072881  1
  Te  Te87  1  0.39503244  0.77770702  0.14013248  1
  Te  Te88  1  0.41767642  0.76911879  0.40140985  1
  Te  Te89  1  0.40279884  0.75327069  0.74749760  1
  Te  Te90  1  0.75655415  0.08850576  0.07897940  1
  Te  Te91  1  0.75311743  0.11453170  0.41603311  1
  Te  Te92  1  0.74602960  0.06919799  0.73127659  1
  Te  Te93  1  0.75399697  0.40525275  0.10512718  1
  Te  Te94  1  0.75176415  0.41027552  0.40112167  1
  Te  Te95  1  0.73946090  0.38084432  0.73727312  1
  Te  Te96  1  0.74762961  0.74906971  0.12043894  1
  Te  Te97  1  0.72746171  0.77441731  0.36201477  1
  Te  Te98  1  0.74710994  0.74768108  0.75328992  1
  Te  Te99  1  0.08905806  0.25331642  0.24918094  1
  Te  Te100  1  0.08705429  0.24079134  0.58271548  1
  Te  Te101  1  0.07725585  0.24480574  0.92863039  1
  Te  Te102  1  0.07071751  0.60542333  0.25346564  1
  Te  Te103  1  0.07171183  0.61674251  0.58165767  1
  Te  Te104  1  0.07286877  0.59205441  0.94298897  1
  Te  Te105  1  0.08954264  0.91709778  0.26304800  1
  Te  Te106  1  0.10331307  0.90523276  0.59044119  1
  Te  Te107  1  0.07239359  0.92315639  0.94099749  1
  Te  Te108  1  0.41527198  0.21833255  0.22057167  1
  Te  Te109  1  0.45625826  0.25110141  0.52680301  1
  Te  Te110  1  0.40942281  0.25845145  0.92302775  1
  Te  Te111  1  0.43867071  0.57952998  0.26301346  1
  Te  Te112  1  0.41908530  0.58188187  0.57877235  1
  Te  Te113  1  0.40679807  0.58668736  0.93185520  1
  Te  Te114  1  0.40073613  0.91214745  0.21498386  1
  Te  Te115  1  0.41133660  0.90943063  0.56888968  1
  Te  Te116  1  0.42984300  0.93860649  0.91113454  1
  Te  Te117  1  0.75733858  0.24633382  0.26069647  1
  Te  Te118  1  0.70968178  0.24070036  0.55246449  1
  Te  Te119  1  0.76394013  0.23779534  0.92218814  1
  Te  Te120  1  0.74377630  0.61701906  0.22510707  1
  Te  Te121  1  0.75990407  0.58118644  0.57466706  1
  Te  Te122  1  0.73399560  0.59257087  0.92417806  1
  Te  Te123  1  0.75247654  0.90374475  0.26960525  1
  Te  Te124  1  0.72135124  0.92695502  0.57072736  1
  Te  Te125  1  0.74862840  0.91334178  0.91418368  1
  Te  Te126  1  0.27951248  0.23098560  0.13778145  1
  Te  Te127  1  0.26109235  0.24623147  0.41230087  1
  Te  Te128  1  0.25590631  0.25656261  0.75321838  1
  Te  Te129  1  0.24374388  0.62597457  0.11948756  1
  Te  Te130  1  0.28447487  0.62232906  0.38028987  1
  Te  Te131  1  0.25194988  0.59699967  0.74913609  1
  Te  Te132  1  0.23231416  0.89528922  0.08948561  1
  Te  Te133  1  0.22001773  0.92005009  0.35480199  1
  Te  Te134  1  0.24342091  0.91308028  0.75333221  1
  Te  Te135  1  0.58578496  0.24898034  0.09061757  1
  Te  Te136  1  0.57859676  0.23982815  0.42853884  1
  Te  Te137  1  0.58346603  0.21704775  0.71483478  1
  Te  Te138  1  0.62920505  0.54051143  0.14495826  1
  Te  Te139  1  0.58266476  0.57860350  0.38586807  1
  Te  Te140  1  0.57754464  0.56857856  0.74664066  1
  Te  Te141  1  0.58537994  0.91367765  0.12264197  1
  Te  Te142  1  0.58910911  0.92268729  0.42858440  1
  Te  Te143  1  0.56881352  0.93851188  0.73277050  1
  Te  Te144  1  0.89758352  0.25181538  0.09648577  1
  Te  Te145  1  0.88530830  0.22924625  0.41897433  1
  Te  Te146  1  0.89733991  0.24145006  0.75407269  1
  Te  Te147  1  0.91791173  0.59913743  0.09017636  1
  Te  Te148  1  0.90643703  0.57342208  0.41174605  1
  Te  Te149  1  0.92566677  0.58717672  0.73965457  1
  Te  Te150  1  0.92314903  0.92610362  0.09050159  1
  Te  Te151  1  0.90849378  0.91854626  0.39672256  1
  Te  Te152  1  0.91733773  0.92012049  0.74127457  1
  Te  Te153  1  0.27599621  0.06348210  0.27641428  1
  Te  Te154  1  0.23725357  0.05144168  0.55230089  1
  Te  Te155  1  0.25197390  0.09115908  0.92503963  1
  Te  Te156  1  0.26270910  0.41347843  0.25587811  1
  Te  Te157  1  0.26638468  0.41368273  0.58585291  1
  Te  Te158  1  0.25527684  0.41639885  0.93554251  1
  Te  Te159  1  0.22363601  0.69949602  0.25590574  1
  Te  Te160  1  0.21719672  0.79627672  0.57571289  1
  Te  Te161  1  0.22495382  0.76375985  0.93489546  1
  Te  Te162  1  0.56109414  0.08895394  0.26727559  1
  Te  Te163  1  0.58445649  0.12143465  0.58615876  1
  Te  Te164  1  0.58014330  0.07582368  0.91175188  1
  Te  Te165  1  0.57384563  0.42383592  0.23593048  1
  Te  Te166  1  0.63418152  0.37929996  0.58225078  1
  Te  Te167  1  0.57025207  0.42556749  0.92349166  1
  Te  Te168  1  0.59104880  0.74962517  0.26955176  1
  Te  Te169  1  0.60457392  0.75791676  0.55552419  1
  Te  Te170  1  0.58440315  0.76225561  0.94285260  1
  Te  Te171  1  0.92475940  0.06853265  0.27970173  1
  Te  Te172  1  0.92181986  0.07132086  0.58671139  1
  Te  Te173  1  0.92318482  0.08239328  0.94009885  1
  Te  Te174  1  0.91089853  0.40568148  0.24368395  1
  Te  Te175  1  0.89306439  0.39170175  0.56498353  1
  Te  Te176  1  0.89094776  0.40692230  0.90799303  1
  Te  Te177  1  0.90392254  0.76027011  0.24090500  1
  Te  Te178  1  0.90578121  0.74791700  0.56673801  1
  Te  Te179  1  0.92463607  0.74406926  0.94494135  1
