# generated using pymatgen
data_In2Te3
_symmetry_space_group_name_H-M   'P 1'
_cell_length_a   18.90445126
_cell_length_b   18.89775413
_cell_length_c   18.88696720
_cell_angle_alpha   89.85386581
_cell_angle_beta   90.01082526
_cell_angle_gamma   90.03734171
_symmetry_Int_Tables_number   1
_chemical_formula_structural   In2Te3
_chemical_formula_sum   'In72 Te108'
_cell_volume   6747.37711231
_cell_formula_units_Z   36
loop_
 _symmetry_equiv_pos_site_id
 _symmetry_equiv_pos_as_xyz
  1  'x, y, z'
loop_
 _atom_site_type_symbol
 _atom_site_label
 _atom_site_symmetry_multiplicity
 _atom_site_fract_x
 _atom_site_fract_y
 _atom_site_fract_z
 _atom_site_occupancy
  In  In0  1  0.65478009  -0.00301825  0.65623178  1
  In  In1  1  -0.00299326  -0.01981622  0.01777630  1
  In  In2  1  0.80766670  0.15612906  0.63501818  1
  In  In3  1  0.34779590  0.14619855  0.48122661  1
  In  In4  1  0.17698838  0.36307345  0.85312428  1
  In  In5  1  0.50624291  0.48547029  0.68433202  1
  In  In6  1  0.01456029  0.34657002  0.66787950  1
  In  In7  1  0.18858864  0.33566914  0.47479432  1
  In  In8  1  0.32367383  0.16274798  0.15268677  1
  In  In9  1  -0.00890585  0.83304983  0.15279604  1
  In  In10  1  0.17597716  0.50973637  0.02065131  1
  In  In11  1  -0.00250796  0.34696861  0.32176691  1
  In  In12  1  0.49856998  0.00054850  0.84143316  1
  In  In13  1  -0.02352817  0.51929793  0.84264720  1
  In  In14  1  -0.01302775  0.81497143  0.87962784  1
  In  In15  1  0.81360563  -0.02520412  0.86916303  1
  In  In16  1  0.35123580  0.30548494  0.30898749  1
  In  In17  1  0.18069866  0.20183910  0.66762664  1
  In  In18  1  0.82826666  0.65321642  0.16315553  1
  In  In19  1  0.33801929  0.83094632  0.84041989  1
  In  In20  1  0.65130132  -0.00790086  -0.00182724  1
  In  In21  1  -0.00911418  0.17528633  0.17190589  1
  In  In22  1  0.67857332  0.31167669  0.28780989  1
  In  In23  1  0.82146039  0.00063641  0.48090504  1
  In  In24  1  0.83771880  0.67539719  0.49601186  1
  In  In25  1  0.47724304  0.16844371  0.30906548  1
  In  In26  1  0.15899570  0.83621027  0.01539797  1
  In  In27  1  0.01986914  0.65962010  0.33404303  1
  In  In28  1  0.17164463  0.16021974  0.00172382  1
  In  In29  1  -0.00986459  0.16471072  0.80458499  1
  In  In30  1  -0.02870286  -0.00301515  0.31836319  1
  In  In31  1  0.34624555  0.35966186  0.68233259  1
  In  In32  1  -0.00310572  0.51412183  0.17286324  1
  In  In33  1  0.49930744  0.16218833  0.66688187  1
  In  In34  1  0.47665881  0.01571647  0.16845086  1
  In  In35  1  0.51050932  0.48330443  0.33214908  1
  In  In36  1  0.82963121  0.84330231  0.34648685  1
  In  In37  1  0.82052737  0.34357616  0.50063763  1
  In  In38  1  0.82018006  0.15750683  0.00038542  1
  In  In39  1  0.83888450  0.80502156  0.67299377  1
  In  In40  1  0.32824792  -0.00447382  0.32430889  1
  In  In41  1  0.49845849  0.52762452  -0.01066211  1
  In  In42  1  0.32634885  0.51587745  0.51870534  1
  In  In43  1  0.66120829  0.18392459  0.80650982  1
  In  In44  1  0.50359570  0.34196194  0.49565284  1
  In  In45  1  0.50679858  0.84212091  0.33425012  1
  In  In46  1  -0.00468406  0.35461081  -0.01193687  1
  In  In47  1  0.01906061  -0.01685366  0.68276394  1
  In  In48  1  0.02392313  0.55565219  0.54466768  1
  In  In49  1  -0.02178595  0.16372000  0.47404626  1
  In  In50  1  0.31323415  -0.01435198  -0.00030186  1
  In  In51  1  0.50687683  0.66630941  0.49639087  1
  In  In52  1  0.33537805  0.65865118  0.31563642  1
  In  In53  1  0.36264533  -0.00531787  0.67052936  1
  In  In54  1  0.67109228  0.66090795  0.67088381  1
  In  In55  1  0.48802134  0.31899968  0.86901890  1
  In  In56  1  0.66940591  0.82919771  0.16260432  1
  In  In57  1  0.81532611  0.51025366  0.31774992  1
  In  In58  1  0.15331405  0.00270486  0.49535638  1
  In  In59  1  0.64082395  0.36077669  0.08344210  1
  In  In60  1  0.16968396  0.82521529  0.33901364  1
  In  In61  1  0.18342521  0.66535710  0.83160420  1
  In  In62  1  0.83114391  0.52028379  0.68707117  1
  In  In63  1  0.65953139  0.00434852  0.33338954  1
  In  In64  1  0.48088417  0.81782821  0.68375311  1
  In  In65  1  0.83879374  0.35395550  0.84275260  1
  In  In66  1  0.68724044  0.66137660  0.31134708  1
  In  In67  1  0.17722035  0.49139211  0.32870985  1
  In  In68  1  0.50518723  0.71864156  -0.00306061  1
  In  In69  1  0.19702675  0.81153967  0.67773384  1
  In  In70  1  0.68206471  0.51036398  0.85746001  1
  In  In71  1  0.34952469  0.49398943  0.16662522  1
  Te  Te72  1  0.08174814  0.07880879  0.09505778  1
  Te  Te73  1  0.07689296  0.08420418  0.39196289  1
  Te  Te74  1  0.10750599  0.09034362  0.74582678  1
  Te  Te75  1  0.08390952  0.41361956  0.09534517  1
  Te  Te76  1  0.07612981  0.42787816  0.42624674  1
  Te  Te77  1  0.08442244  0.44108468  0.76055018  1
  Te  Te78  1  0.07058511  0.73399324  0.07861140  1
  Te  Te79  1  0.08348650  0.74797981  0.43148364  1
  Te  Te80  1  0.08422996  0.76454560  0.77140679  1
  Te  Te81  1  0.42154758  0.09605492  0.04934093  1
  Te  Te82  1  0.44217589  0.05571331  0.40779252  1
  Te  Te83  1  0.40776503  0.10094203  0.76941081  1
  Te  Te84  1  0.41281699  0.42318017  0.05223236  1
  Te  Te85  1  0.39240686  0.42188933  0.40908182  1
  Te  Te86  1  0.41265191  0.43521612  0.79314248  1
  Te  Te87  1  0.38658963  0.71017598  0.08581675  1
  Te  Te88  1  0.41217375  0.74952144  0.41287617  1
  Te  Te89  1  0.41171005  0.71993974  0.77344908  1
  Te  Te90  1  0.74314200  0.06731636  0.08513166  1
  Te  Te91  1  0.74143030  0.10044643  0.41232954  1
  Te  Te92  1  0.75980236  0.07637604  0.75697365  1
  Te  Te93  1  0.76460603  0.43523527  0.10788334  1
  Te  Te94  1  0.73160355  0.41095181  0.39583768  1
  Te  Te95  1  0.73840662  0.41636510  0.74740305  1
  Te  Te96  1  0.72902211  0.72312288  0.07602096  1
  Te  Te97  1  0.73192926  0.75676484  0.42300965  1
  Te  Te98  1  0.75571636  0.73172700  0.77312870  1
  Te  Te99  1  0.08609516  0.25783234  0.24831461  1
  Te  Te100  1  0.07656535  0.24886535  0.56239266  1
  Te  Te101  1  0.07078188  0.25605058  0.89835217  1
  Te  Te102  1  0.11268663  0.59227136  0.23529976  1
  Te  Te103  1  0.14299979  0.61868578  0.61798065  1
  Te  Te104  1  0.08905956  0.58632292  0.92200333  1
  Te  Te105  1  0.07558723  0.91285455  0.24896358  1
  Te  Te106  1  0.09817554  0.89615258  0.58918833  1
  Te  Te107  1  0.08924603  0.92411429  0.91171283  1
  Te  Te108  1  0.44574294  0.26604160  0.19255170  1
  Te  Te109  1  0.39788394  0.25914968  0.57216130  1
  Te  Te110  1  0.42176490  0.21991762  0.95246077  1
  Te  Te111  1  0.44659210  0.58599261  0.23935683  1
  Te  Te112  1  0.42730023  0.58990207  0.60239578  1
  Te  Te113  1  0.41913449  0.62374552  0.90703215  1
  Te  Te114  1  0.40466062  0.89935801  0.23549155  1
  Te  Te115  1  0.42147538  0.90107935  0.57707768  1
  Te  Te116  1  0.42850442  0.90539660  0.93701999  1
  Te  Te117  1  0.78375823  0.21608171  0.25011313  1
  Te  Te118  1  0.72465734  0.25957773  0.57575983  1
  Te  Te119  1  0.74441279  0.25681746  0.91318757  1
  Te  Te120  1  0.71513523  0.54751585  0.20490196  1
  Te  Te121  1  0.74928441  0.57661284  0.57072823  1
  Te  Te122  1  0.77615689  0.61860252  0.89477773  1
  Te  Te123  1  0.75563940  0.92465622  0.24366823  1
  Te  Te124  1  0.76278448  0.91278781  0.59073264  1
  Te  Te125  1  0.71633953  0.87482043  0.92478103  1
  Te  Te126  1  0.25139526  0.26183474  0.07053597  1
  Te  Te127  1  0.25063157  0.22443450  0.39350312  1
  Te  Te128  1  0.26595379  0.26585761  0.77420773  1
  Te  Te129  1  0.27556480  0.60245546  0.09003896  1
  Te  Te130  1  0.24116028  0.59392441  0.41991229  1
  Te  Te131  1  0.24864462  0.58646494  0.72358674  1
  Te  Te132  1  0.24102328  0.91702251  0.10736318  1
  Te  Te133  1  0.25728635  0.91313004  0.43126303  1
  Te  Te134  1  0.25674292  0.92755717  0.75610436  1
  Te  Te135  1  0.58008015  0.23170058  0.11777345  1
  Te  Te136  1  0.57168550  0.25745982  0.39136019  1
  Te  Te137  1  0.56408595  0.27806172  0.73796242  1
  Te  Te138  1  0.60190568  0.61498855  0.05143420  1
  Te  Te139  1  0.59714328  0.58103585  0.40881574  1
  Te  Te140  1  0.58342271  0.58538590  0.76931835  1
  Te  Te141  1  0.56278835  0.91274232  0.09350851  1
  Te  Te142  1  0.60263893  0.90456904  0.42590380  1
  Te  Te143  1  0.58466909  0.90837234  0.75657631  1
  Te  Te144  1  0.91055416  0.25771377  0.07083150  1
  Te  Te145  1  0.89355676  0.25913607  0.39428365  1
  Te  Te146  1  0.89849657  0.26156422  0.73077545  1
  Te  Te147  1  0.94151504  0.61340352  0.07509759  1
  Te  Te148  1  0.91851021  0.57151272  0.41172302  1
  Te  Te149  1  0.93856642  0.61063370  0.73205208  1
  Te  Te150  1  0.88741206  0.90185615  0.07507642  1
  Te  Te151  1  0.93295749  0.90733568  0.43722743  1
  Te  Te152  1  0.91410621  0.91022750  0.76622895  1
  Te  Te153  1  0.24154728  0.08200265  0.24365607  1
  Te  Te154  1  0.25162373  0.08806353  0.58517874  1
  Te  Te155  1  0.24411839  0.07649156  0.90679353  1
  Te  Te156  1  0.25203162  0.39827358  0.23666056  1
  Te  Te157  1  0.23506844  0.41828112  0.59364223  1
  Te  Te158  1  0.27416461  0.42779544  0.94445780  1
  Te  Te159  1  0.25001432  0.75194309  0.23933835  1
  Te  Te160  1  0.26828639  0.70969241  0.59947820  1
  Te  Te161  1  0.25571919  0.74727088  0.93731374  1
  Te  Te162  1  0.59104179  0.09637393  0.22957662  1
  Te  Te163  1  0.58104646  0.09003502  0.57069435  1
  Te  Te164  1  0.58766691  0.10232346  0.91133221  1
  Te  Te165  1  0.57695833  0.40711952  0.22133646  1
  Te  Te166  1  0.58430245  0.43925822  0.56822904  1
  Te  Te167  1  0.59935201  0.40845484  0.93502990  1
  Te  Te168  1  0.57598477  0.74042776  0.24344246  1
  Te  Te169  1  0.58704497  0.75684812  0.58873249  1
  Te  Te170  1  0.60096787  0.77383187  0.89872822  1
  Te  Te171  1  0.88446339  0.09547424  0.24512419  1
  Te  Te172  1  0.93207571  0.07713852  0.59213973  1
  Te  Te173  1  0.92858575  0.07992408  0.91429049  1
  Te  Te174  1  0.89521483  0.41395471  0.22785598  1
  Te  Te175  1  0.91697443  0.42974253  0.58513601  1
  Te  Te176  1  0.88661446  0.45275834  0.94777178  1
  Te  Te177  1  0.90939718  0.74291551  0.26410711  1
  Te  Te178  1  0.93732556  0.72745665  0.59316571  1
  Te  Te179  1  0.89706093  0.71168027  0.93003922  1
