# generated using pymatgen
data_In2Te3
_symmetry_space_group_name_H-M   'P 1'
_cell_length_a   18.78271864
_cell_length_b   18.78090602
_cell_length_c   18.79326459
_cell_angle_alpha   90.01988263
_cell_angle_beta   90.03992612
_cell_angle_gamma   90.04562971
_symmetry_Int_Tables_number   1
_chemical_formula_structural   In2Te3
_chemical_formula_sum   'In72 Te108'
_cell_volume   6629.44162952
_cell_formula_units_Z   36
loop_
 _symmetry_equiv_pos_site_id
 _symmetry_equiv_pos_as_xyz
  1  'x, y, z'
loop_
 _atom_site_type_symbol
 _atom_site_label
 _atom_site_symmetry_multiplicity
 _atom_site_fract_x
 _atom_site_fract_y
 _atom_site_fract_z
 _atom_site_occupancy
  In  In0  1  0.16848333  0.83986018  -0.00408870  1
  In  In1  1  0.16352482  0.34462446  0.19474286  1
  In  In2  1  -0.01388433  0.67051332  0.33328927  1
  In  In3  1  0.16266694  0.82705928  0.66445166  1
  In  In4  1  0.51669136  0.82059398  0.64815017  1
  In  In5  1  0.33525387  0.17639757  0.48416500  1
  In  In6  1  0.16886914  0.51066862  0.01750153  1
  In  In7  1  0.47532470  -0.02097439  0.83591004  1
  In  In8  1  0.33624829  0.82083819  0.47952271  1
  In  In9  1  0.85967650  0.29974633  0.14617257  1
  In  In10  1  0.68138290  0.16726476  0.50259488  1
  In  In11  1  0.01476554  0.50148556  0.83599441  1
  In  In12  1  -0.00968809  0.00289800  0.33902028  1
  In  In13  1  0.85137683  0.32253287  0.82640284  1
  In  In14  1  0.84192169  0.69436930  0.81335980  1
  In  In15  1  0.48442230  -0.00816009  0.17416618  1
  In  In16  1  0.52410760  0.37274260  0.19743660  1
  In  In17  1  0.34072257  0.33729565  0.00992578  1
  In  In18  1  0.31637776  0.15041183  0.83892527  1
  In  In19  1  0.64441988  0.51773515  0.18724325  1
  In  In20  1  0.51490884  -0.01265798  0.48692334  1
  In  In21  1  0.01519188  0.83822007  0.83505464  1
  In  In22  1  0.82889251  -0.02526821  0.16694226  1
  In  In23  1  0.00274970  0.83827665  0.48206256  1
  In  In24  1  -0.00824503  0.82489922  0.15864090  1
  In  In25  1  -0.00131494  0.18292165  0.50074590  1
  In  In26  1  0.32198293  0.82288680  0.84719775  1
  In  In27  1  -0.00349051  0.00790677  0.66967760  1
  In  In28  1  0.84464618  0.49626270  0.01090107  1
  In  In29  1  0.82468972  0.67508197  0.50837370  1
  In  In30  1  0.51548215  0.14300985  0.02225488  1
  In  In31  1  0.66092594  0.01292178  0.66313625  1
  In  In32  1  0.20496224  0.68664997  0.18634059  1
  In  In33  1  0.33425573  0.34418018  0.34860257  1
  In  In34  1  0.16879960  -0.01143305  0.14788128  1
  In  In35  1  0.64581180  0.81479251  0.20148956  1
  In  In36  1  0.68543884  0.33841616  -0.00862734  1
  In  In37  1  0.64878718  0.51456482  0.81328638  1
  In  In38  1  0.01052994  0.63922832  0.65122689  1
  In  In39  1  0.16480849  0.15089289  -0.01275456  1
  In  In40  1  0.49561681  0.52709507  0.00583419  1
  In  In41  1  0.32385392  0.00597309  0.67796085  1
  In  In42  1  0.15888156  0.33863026  0.80652416  1
  In  In43  1  0.17135999  0.48964595  0.35496984  1
  In  In44  1  0.66145498  -0.03438610  0.01007509  1
  In  In45  1  0.82988919  0.16847973  0.66534301  1
  In  In46  1  -0.01159957  0.14883741  0.83563858  1
  In  In47  1  0.68169567  0.69264927  -0.02347945  1
  In  In48  1  0.50055263  0.16149214  0.34671847  1
  In  In49  1  0.50014133  0.35986188  0.49892292  1
  In  In50  1  0.81631524  0.49298654  0.35949669  1
  In  In51  1  0.81737664  0.16182166  0.33111360  1
  In  In52  1  0.33553030  0.15097499  0.17461415  1
  In  In53  1  0.67928615  0.18015275  0.83488653  1
  In  In54  1  0.33823988  0.63693425  0.65020191  1
  In  In55  1  0.01208082  0.49726743  0.16173461  1
  In  In56  1  0.35764578  0.65720080  0.33705850  1
  In  In57  1  0.17719426  0.17356125  0.32913859  1
  In  In58  1  0.67192573  0.16874417  0.17582608  1
  In  In59  1  0.15944090  0.17813777  0.66177246  1
  In  In60  1  0.85329556  0.48032387  0.61950269  1
  In  In61  1  0.65729118  0.82579772  0.48854212  1
  In  In62  1  0.81407690  0.83754084  0.67408038  1
  In  In63  1  0.48788603  0.33162776  0.81565779  1
  In  In64  1  0.83181499  0.64077472  0.18700324  1
  In  In65  1  0.65596882  0.34314194  0.64806208  1
  In  In66  1  0.32233302  0.37125448  0.62529229  1
  In  In67  1  0.34297090  0.50855487  0.82247170  1
  In  In68  1  0.00509273  0.33968049  0.33248955  1
  In  In69  1  0.17409267  0.81401571  0.34971536  1
  In  In70  1  0.50755411  0.67413600  0.83240540  1
  In  In71  1  0.83572986  0.83887677  -0.00152431  1
  Te  Te72  1  0.08035342  0.09560983  0.09579180  1
  Te  Te73  1  0.08803588  0.08783379  0.42093826  1
  Te  Te74  1  0.10038959  0.07679651  0.75858690  1
  Te  Te75  1  0.08241600  0.39545833  0.07438140  1
  Te  Te76  1  0.05679131  0.43416732  0.43679378  1
  Te  Te77  1  0.08965136  0.43909110  0.72117509  1
  Te  Te78  1  0.09451189  0.73781060  0.09224119  1
  Te  Te79  1  0.08839967  0.72085079  0.43604348  1
  Te  Te80  1  0.08495614  0.72933679  0.75198085  1
  Te  Te81  1  0.39455050  0.06439745  0.06342217  1
  Te  Te82  1  0.40325508  0.06293184  0.40789638  1
  Te  Te83  1  0.42676009  0.09453149  0.74784458  1
  Te  Te84  1  0.42023581  0.43219945  0.09823796  1
  Te  Te85  1  0.41903667  0.45295625  0.41059010  1
  Te  Te86  1  0.42858112  0.43353888  0.72052037  1
  Te  Te87  1  0.39179742  0.69547335  0.13596323  1
  Te  Te88  1  0.45412005  0.74719220  0.42017384  1
  Te  Te89  1  0.40445207  0.75482105  0.73466525  1
  Te  Te90  1  0.74307081  0.07304734  0.08240412  1
  Te  Te91  1  0.73724276  0.06709070  0.41032568  1
  Te  Te92  1  0.76208484  0.07341548  0.76236127  1
  Te  Te93  1  0.74481226  0.42751389  0.10354455  1
  Te  Te94  1  0.70571167  0.42252196  0.42611063  1
  Te  Te95  1  0.74673276  0.40874514  0.75580247  1
  Te  Te96  1  0.75810007  0.75075138  0.09927481  1
  Te  Te97  1  0.74361689  0.73850333  0.40161489  1
  Te  Te98  1  0.72448184  0.73927398  0.73888126  1
  Te  Te99  1  0.06744248  0.23448733  0.24184943  1
  Te  Te100  1  0.08657521  0.27793863  0.57781796  1
  Te  Te101  1  0.08436786  0.25208923  0.90506197  1
  Te  Te102  1  0.09244149  0.58839286  0.25409305  1
  Te  Te103  1  0.11343258  0.54885208  0.59403748  1
  Te  Te104  1  0.09157994  0.59320517  0.92281807  1
  Te  Te105  1  0.08265031  0.90147954  0.25779269  1
  Te  Te106  1  0.08662008  0.92599999  0.57654644  1
  Te  Te107  1  0.07848698  0.93577469  0.92549081  1
  Te  Te108  1  0.42165579  0.25537798  0.25045974  1
  Te  Te109  1  0.41894976  0.25890590  0.58081462  1
  Te  Te110  1  0.42384343  0.24147222  0.92277754  1
  Te  Te111  1  0.44786747  0.59428718  0.22947208  1
  Te  Te112  1  0.42069291  0.56734660  0.54347845  1
  Te  Te113  1  0.40040490  0.61081063  0.92090090  1
  Te  Te114  1  0.39608340  0.91638883  0.26218045  1
  Te  Te115  1  0.41094054  0.91838837  0.58654961  1
  Te  Te116  1  0.42289670  0.88599598  0.93710172  1
  Te  Te117  1  0.74946433  0.27458646  0.25094514  1
  Te  Te118  1  0.76804497  0.27226047  0.57267728  1
  Te  Te119  1  0.78262455  0.23477101  0.93381509  1
  Te  Te120  1  0.72558109  0.60299500  0.28898518  1
  Te  Te121  1  0.74354137  0.56803911  0.57479670  1
  Te  Te122  1  0.75450473  0.57141641  0.91187424  1
  Te  Te123  1  0.73048299  0.91981709  0.26257906  1
  Te  Te124  1  0.74531709  0.92545346  0.57145822  1
  Te  Te125  1  0.74755276  0.90954235  0.90442722  1
  Te  Te126  1  0.24746048  0.25032012  0.09498622  1
  Te  Te127  1  0.22851729  0.27514354  0.43198353  1
  Te  Te128  1  0.27386542  0.26263317  0.73925095  1
  Te  Te129  1  0.27316874  0.58937167  0.09213301  1
  Te  Te130  1  0.25600162  0.58996777  0.42820249  1
  Te  Te131  1  0.23931596  0.57836061  0.74372820  1
  Te  Te132  1  0.26838572  0.89562598  0.09227041  1
  Te  Te133  1  0.23743713  0.91953460  0.43107210  1
  Te  Te134  1  0.23420076  0.91829115  0.76392932  1
  Te  Te135  1  0.58031332  0.26489452  0.08860626  1
  Te  Te136  1  0.58964618  0.25828242  0.41943666  1
  Te  Te137  1  0.58148234  0.24170630  0.73490208  1
  Te  Te138  1  0.59384193  0.61601965  0.07891373  1
  Te  Te139  1  0.51088857  0.59984411  0.42729138  1
  Te  Te140  1  0.56167531  0.59067252  0.72307781  1
  Te  Te141  1  0.56210759  0.88692451  0.09265531  1
  Te  Te142  1  0.57332255  0.89740184  0.38666030  1
  Te  Te143  1  0.58427978  0.91286415  0.74948607  1
  Te  Te144  1  0.92880912  0.20635928  0.05668392  1
  Te  Te145  1  0.90061555  0.26137951  0.41288794  1
  Te  Te146  1  0.94233507  0.25037352  0.72911377  1
  Te  Te147  1  0.93321200  0.59957305  0.07966381  1
  Te  Te148  1  0.91929046  0.57816101  0.43428989  1
  Te  Te149  1  0.89985930  0.57001721  0.74320831  1
  Te  Te150  1  0.93783649  0.93156455  0.06418538  1
  Te  Te151  1  0.89841208  0.91293025  0.41113485  1
  Te  Te152  1  0.90981050  0.92171463  0.76101172  1
  Te  Te153  1  0.25110037  0.05934632  0.26070614  1
  Te  Te154  1  0.24637416  0.08794691  0.57459605  1
  Te  Te155  1  0.25643321  0.05075874  0.92817142  1
  Te  Te156  1  0.26839267  0.44021046  0.24597336  1
  Te  Te157  1  0.24234994  0.47018982  0.54851447  1
  Te  Te158  1  0.25114098  0.41420676  0.91259988  1
  Te  Te159  1  0.30142345  0.79175184  0.25405363  1
  Te  Te160  1  0.24880665  0.73888002  0.57579494  1
  Te  Te161  1  0.23320269  0.72903526  0.91984005  1
  Te  Te162  1  0.58660312  0.07299194  0.25726061  1
  Te  Te163  1  0.56681244  0.09805921  0.57828926  1
  Te  Te164  1  0.59003740  0.07674143  0.90753694  1
  Te  Te165  1  0.59774116  0.43995672  0.31092249  1
  Te  Te166  1  0.59879216  0.45339507  0.56488149  1
  Te  Te167  1  0.57178340  0.41859843  0.91705611  1
  Te  Te168  1  0.53389114  0.72660079  0.24585384  1
  Te  Te169  1  0.59742841  0.72088124  0.57677856  1
  Te  Te170  1  0.57673032  0.77664134  0.91433996  1
  Te  Te171  1  0.91032338  0.08493673  0.23821588  1
  Te  Te172  1  0.90699910  0.07866406  0.56825357  1
  Te  Te173  1  0.90901067  0.09623000  0.94681023  1
  Te  Te174  1  0.90663822  0.42712653  0.24606543  1
  Te  Te175  1  0.95510345  0.39340842  0.56191552  1
  Te  Te176  1  0.93326348  0.40669471  0.92593674  1
  Te  Te177  1  0.89406685  0.76424659  0.25865995  1
  Te  Te178  1  0.92673065  0.75915142  0.59842804  1
  Te  Te179  1  0.93040324  0.74337447  0.92445427  1
