# generated using pymatgen
data_In2Te3
_symmetry_space_group_name_H-M   'P 1'
_cell_length_a   18.75762680
_cell_length_b   18.75660322
_cell_length_c   18.75007715
_cell_angle_alpha   89.95003243
_cell_angle_beta   90.09208356
_cell_angle_gamma   90.14254338
_symmetry_Int_Tables_number   1
_chemical_formula_structural   In2Te3
_chemical_formula_sum   'In72 Te108'
_cell_volume   6596.79628303
_cell_formula_units_Z   36
loop_
 _symmetry_equiv_pos_site_id
 _symmetry_equiv_pos_as_xyz
  1  'x, y, z'
loop_
 _atom_site_type_symbol
 _atom_site_label
 _atom_site_symmetry_multiplicity
 _atom_site_fract_x
 _atom_site_fract_y
 _atom_site_fract_z
 _atom_site_occupancy
  In  In0  1  0.50142427  0.31350787  0.82950978  1
  In  In1  1  0.50392376  -0.00510702  0.49822094  1
  In  In2  1  0.65654769  0.67333714  0.66154772  1
  In  In3  1  0.01178599  0.68304944  0.32136608  1
  In  In4  1  0.65423400  0.15738056  0.50558492  1
  In  In5  1  0.66509266  0.67954872  -0.00981640  1
  In  In6  1  0.33661312  -0.01421055  0.67534553  1
  In  In7  1  0.15136644  0.35788541  0.13400165  1
  In  In8  1  0.01688339  0.35085736  0.00125309  1
  In  In9  1  0.82067935  0.32558240  0.83806735  1
  In  In10  1  0.83834784  0.83055286  0.00588808  1
  In  In11  1  0.35798104  0.15033200  0.15630874  1
  In  In12  1  0.84008285  0.83058521  0.66380867  1
  In  In13  1  0.64776957  0.50194364  0.51911411  1
  In  In14  1  0.50956448  0.68034459  0.19031209  1
  In  In15  1  0.18673514  -0.01701798  0.50970193  1
  In  In16  1  0.35707791  0.48037298  0.81660471  1
  In  In17  1  -0.00291908  0.53068118  0.48810910  1
  In  In18  1  0.82656011  0.17055620  -0.00412038  1
  In  In19  1  -0.00547271  -0.02278296  -0.01464435  1
  In  In20  1  0.00438012  0.15337899  0.51798306  1
  In  In21  1  0.34912479  0.66984085  0.66780583  1
  In  In22  1  -0.01349111  -0.03970107  0.35322036  1
  In  In23  1  0.50255170  0.83741502  0.67145183  1
  In  In24  1  0.33305304  0.68247121  0.34092085  1
  In  In25  1  0.16370434  0.18555869  0.33864338  1
  In  In26  1  0.65814140  0.32544834  0.34053257  1
  In  In27  1  0.33747797  0.51919144  0.51313470  1
  In  In28  1  0.52104106  -0.01180346  0.83600329  1
  In  In29  1  0.16821913  0.83700606  0.66968099  1
  In  In30  1  0.66686470  -0.00554982  0.31649864  1
  In  In31  1  0.82788440  -0.01122732  0.80884948  1
  In  In32  1  0.34051225  0.01981974  -0.02052652  1
  In  In33  1  0.15818839  0.68292657  0.82096297  1
  In  In34  1  0.82287339  0.32645574  0.49110868  1
  In  In35  1  0.51695355  0.52147750  0.34583692  1
  In  In36  1  0.30461211  0.50506001  0.14309593  1
  In  In37  1  0.83618227  -0.01924971  0.50672364  1
  In  In38  1  0.69135780  0.49251600  0.15701859  1
  In  In39  1  0.32067794  0.64125404  -0.01058897  1
  In  In40  1  0.49933476  0.83382165  0.35004169  1
  In  In41  1  0.16425749  0.33575234  0.50900785  1
  In  In42  1  0.15770222  0.50269046  0.64007207  1
  In  In43  1  0.16038556  0.50970062  0.01285318  1
  In  In44  1  0.20481108  0.29679012  0.81306179  1
  In  In45  1  0.82081378  0.18360535  0.30600228  1
  In  In46  1  0.81978271  0.51161878  0.68580737  1
  In  In47  1  0.50900255  0.15526293  0.34398066  1
  In  In48  1  -0.00366829  0.33438291  0.66224308  1
  In  In49  1  0.66795367  -0.00107581  0.00538268  1
  In  In50  1  0.00038530  0.50516508  0.83034360  1
  In  In51  1  0.81212598  0.16000936  0.65912971  1
  In  In52  1  0.33921217  0.83489650  0.17402153  1
  In  In53  1  0.83401656  0.67388486  0.85048559  1
  In  In54  1  0.85519107  0.53591221  0.33507852  1
  In  In55  1  0.65844698  0.51659525  0.83548302  1
  In  In56  1  0.15745593  -0.01311282  0.18130490  1
  In  In57  1  0.84313882  0.65778405  0.16406882  1
  In  In58  1  0.48322917  0.50261650  -0.00688989  1
  In  In59  1  0.34153838  -0.01830654  0.34989014  1
  In  In60  1  0.51828352  0.83797707  -0.00397792  1
  In  In61  1  0.33419728  0.34872362  0.33894195  1
  In  In62  1  -0.02301159  0.16649904  0.14496445  1
  In  In63  1  0.49725211  0.17902982  0.65838161  1
  In  In64  1  0.35242719  0.32819128  -0.01591582  1
  In  In65  1  0.83439698  -0.02073025  0.15775347  1
  In  In66  1  0.54250963  0.29855520  0.14219603  1
  In  In67  1  0.03649380  0.12156522  0.79590883  1
  In  In68  1  -0.01101260  0.36644406  0.32034402  1
  In  In69  1  0.14104465  0.81542476  0.01580846  1
  In  In70  1  0.18257022  0.16354938  -0.02124193  1
  In  In71  1  0.15903593  0.66830281  0.49061901  1
  Te  Te72  1  0.08783127  0.08506236  0.07738986  1
  Te  Te73  1  0.08752011  0.07345828  0.41349414  1
  Te  Te74  1  0.11558989  0.04248942  0.69749599  1
  Te  Te75  1  0.03704169  0.46551550  0.11410484  1
  Te  Te76  1  0.09007717  0.43260873  0.41525534  1
  Te  Te77  1  0.09486909  0.41079986  0.75407815  1
  Te  Te78  1  0.08096294  0.71057100  0.10690528  1
  Te  Te79  1  0.07952404  0.77140136  0.42114445  1
  Te  Te80  1  0.05968347  0.76872499  0.74879294  1
  Te  Te81  1  0.44608108  0.06878458  0.07250141  1
  Te  Te82  1  0.40377184  0.09232580  0.43559526  1
  Te  Te83  1  0.42772216  0.07946170  0.75471270  1
  Te  Te84  1  0.41820412  0.40760980  0.09795260  1
  Te  Te85  1  0.42929296  0.42616715  0.42984336  1
  Te  Te86  1  0.45395264  0.41333267  0.72255721  1
  Te  Te87  1  0.41287529  0.73424156  0.08156847  1
  Te  Te88  1  0.42725149  0.73931878  0.43914485  1
  Te  Te89  1  0.40785004  0.76647405  0.76245981  1
  Te  Te90  1  0.74892776  0.09075567  0.10085530  1
  Te  Te91  1  0.76448944  0.09488514  0.41948349  1
  Te  Te92  1  0.73511164  0.09744739  0.76925523  1
  Te  Te93  1  0.76559328  0.38644441  0.09150606  1
  Te  Te94  1  0.74676782  0.43278697  0.41145630  1
  Te  Te95  1  0.72829713  0.40909248  0.74709758  1
  Te  Te96  1  0.74085900  0.75615459  0.09673967  1
  Te  Te97  1  0.70086370  0.70409419  0.37491714  1
  Te  Te98  1  0.74171057  0.75333046  0.76077300  1
  Te  Te99  1  0.07181352  0.25520709  0.23705168  1
  Te  Te100  1  0.09917763  0.23652412  0.60592724  1
  Te  Te101  1  0.07934448  0.24862202  0.90455999  1
  Te  Te102  1  0.06597485  0.58666215  0.22320843  1
  Te  Te103  1  0.06451560  0.61325784  0.60022423  1
  Te  Te104  1  0.07474688  0.60087589  0.92283676  1
  Te  Te105  1  0.07725378  0.88940459  0.25853289  1
  Te  Te106  1  0.07235104  0.92765098  0.59117611  1
  Te  Te107  1  0.10482575  0.91521013  0.91069445  1
  Te  Te108  1  0.42171976  0.25350439  0.25386333  1
  Te  Te109  1  0.38811474  0.25874181  0.59639187  1
  Te  Te110  1  0.40920578  0.22087868  0.90310244  1
  Te  Te111  1  0.40496480  0.57851080  0.24519441  1
  Te  Te112  1  0.44561827  0.57948938  0.59791476  1
  Te  Te113  1  0.42685096  0.59783492  0.88838812  1
  Te  Te114  1  0.43774531  0.92982282  0.24456552  1
  Te  Te115  1  0.40314868  0.90399055  0.56608403  1
  Te  Te116  1  0.41251115  0.90501844  0.90814289  1
  Te  Te117  1  0.72768072  0.26472829  0.22197123  1
  Te  Te118  1  0.72563286  0.26778065  0.59044182  1
  Te  Te119  1  0.72217889  0.24919045  0.92248094  1
  Te  Te120  1  0.72579576  0.59469169  0.26549044  1
  Te  Te121  1  0.75696932  0.59346155  0.57506740  1
  Te  Te122  1  0.75946250  0.57181458  0.93751511  1
  Te  Te123  1  0.77618606  0.90524699  0.27215609  1
  Te  Te124  1  0.73823800  0.92071151  0.60023379  1
  Te  Te125  1  0.74641936  0.90825532  0.91157241  1
  Te  Te126  1  0.25173609  0.24689876  0.08981605  1
  Te  Te127  1  0.26566892  0.24741651  0.43360065  1
  Te  Te128  1  0.30274278  0.23948241  0.71892409  1
  Te  Te129  1  0.21771755  0.62818042  0.10724628  1
  Te  Te130  1  0.24312606  0.57423391  0.40517792  1
  Te  Te131  1  0.24605595  0.57526594  0.75206849  1
  Te  Te132  1  0.25361930  0.92423798  0.07868388  1
  Te  Te133  1  0.23951329  0.88984376  0.40512573  1
  Te  Te134  1  0.24157690  0.91999818  0.77175727  1
  Te  Te135  1  0.58476523  0.22658689  0.02185181  1
  Te  Te136  1  0.56233323  0.26157600  0.44180217  1
  Te  Te137  1  0.60086501  0.23482446  0.75115940  1
  Te  Te138  1  0.57886025  0.58177678  0.08494224  1
  Te  Te139  1  0.58620300  0.62238594  0.43642870  1
  Te  Te140  1  0.56687947  0.58172656  0.73892124  1
  Te  Te141  1  0.59837909  0.90615206  0.09893090  1
  Te  Te142  1  0.61051899  0.91047218  0.43033043  1
  Te  Te143  1  0.60905533  0.91803292  0.73986517  1
  Te  Te144  1  0.90125305  0.28228174  0.08342591  1
  Te  Te145  1  0.93196199  0.25019440  0.41524682  1
  Te  Te146  1  0.91625652  0.24012886  0.75148103  1
  Te  Te147  1  0.93963085  0.58603030  0.07983615  1
  Te  Te148  1  0.89986698  0.63940020  0.44114320  1
  Te  Te149  1  0.92344046  0.60532406  0.74413724  1
  Te  Te150  1  0.94578882  0.89239840  0.10087900  1
  Te  Te151  1  0.89995031  0.86571690  0.43425193  1
  Te  Te152  1  0.93315905  0.89458120  0.76472464  1
  Te  Te153  1  0.25517690  0.08791826  0.25730904  1
  Te  Te154  1  0.24574512  0.08520952  0.60309694  1
  Te  Te155  1  0.24473693  0.07500269  0.87826443  1
  Te  Te156  1  0.23251497  0.42269826  0.25141211  1
  Te  Te157  1  0.26864066  0.40794611  0.59774143  1
  Te  Te158  1  0.24890558  0.42107566  0.91992894  1
  Te  Te159  1  0.24008318  0.77309544  0.26722588  1
  Te  Te160  1  0.25540573  0.74993680  0.57774293  1
  Te  Te161  1  0.24924495  0.75617982  0.92042000  1
  Te  Te162  1  0.59421429  0.09670136  0.23919872  1
  Te  Te163  1  0.58978114  0.06278551  0.60412994  1
  Te  Te164  1  0.57579288  0.09398709  0.93202854  1
  Te  Te165  1  0.57474280  0.42070883  0.24592394  1
  Te  Te166  1  0.54973047  0.42425521  0.59660697  1
  Te  Te167  1  0.58238167  0.41497776  0.92258883  1
  Te  Te168  1  0.60579960  0.77087368  0.26125605  1
  Te  Te169  1  0.58082947  0.76187184  0.56880339  1
  Te  Te170  1  0.57767247  0.74870547  0.89455618  1
  Te  Te171  1  0.92767691  0.07528182  0.25789168  1
  Te  Te172  1  0.91906732  0.06417871  0.60690988  1
  Te  Te173  1  0.92170223  0.08723624  0.90890354  1
  Te  Te174  1  0.87420426  0.41926682  0.24283188  1
  Te  Te175  1  0.91321246  0.42903521  0.57617881  1
  Te  Te176  1  0.90649356  0.42384647  0.91883220  1
  Te  Te177  1  0.89934252  0.75896425  0.25753282  1
  Te  Te178  1  0.90352904  0.74729087  0.55854379  1
  Te  Te179  1  0.93405700  0.75751578  0.92084364  1
