# generated using pymatgen
data_In2Te3
_symmetry_space_group_name_H-M   'P 1'
_cell_length_a   18.91915638
_cell_length_b   18.91837637
_cell_length_c   18.89978949
_cell_angle_alpha   90.08234811
_cell_angle_beta   90.08733659
_cell_angle_gamma   90.02316361
_symmetry_Int_Tables_number   1
_chemical_formula_structural   In2Te3
_chemical_formula_sum   'In72 Te108'
_cell_volume   6764.59197590
_cell_formula_units_Z   36
loop_
 _symmetry_equiv_pos_site_id
 _symmetry_equiv_pos_as_xyz
  1  'x, y, z'
loop_
 _atom_site_type_symbol
 _atom_site_label
 _atom_site_symmetry_multiplicity
 _atom_site_fract_x
 _atom_site_fract_y
 _atom_site_fract_z
 _atom_site_occupancy
  In  In0  1  0.00585991  0.70911641  0.29549528  1
  In  In1  1  0.85035671  0.01271562  0.80421135  1
  In  In2  1  0.16163534  0.17196411  0.32613547  1
  In  In3  1  0.66903770  0.35273900  -0.00905274  1
  In  In4  1  0.01127945  0.18546288  0.15507266  1
  In  In5  1  0.84410532  0.82828981  0.68837306  1
  In  In6  1  0.00563766  -0.02373067  0.38453174  1
  In  In7  1  0.32893789  0.82567466  0.17224879  1
  In  In8  1  0.66752204  0.84091836  0.48505986  1
  In  In9  1  0.17650511  0.49557163  0.66940992  1
  In  In10  1  0.65946094  -0.01677714  0.65719616  1
  In  In11  1  0.66709146  0.65798940  0.34626967  1
  In  In12  1  0.17084447  0.68905807  0.49583972  1
  In  In13  1  0.33277056  0.01224189  0.00483701  1
  In  In14  1  0.84239096  0.66163523  0.84362641  1
  In  In15  1  0.33290324  0.49865880  0.50751991  1
  In  In16  1  0.81942346  0.34433752  0.50952971  1
  In  In17  1  0.47104481  0.00757320  0.48826279  1
  In  In18  1  0.00676605  0.65925875  0.68667746  1
  In  In19  1  0.87335999  -0.00515478  0.15936148  1
  In  In20  1  0.16102040  0.83705742  0.00130610  1
  In  In21  1  0.17716714  0.51386246  0.00651766  1
  In  In22  1  0.65662276  0.50192924  0.18050295  1
  In  In23  1  -0.00468184  -0.01042724  -0.00280644  1
  In  In24  1  0.03142334  -0.02504241  0.63164612  1
  In  In25  1  0.49512650  0.19393947  0.66968357  1
  In  In26  1  0.65864226  0.01484837  0.01074499  1
  In  In27  1  0.48845523  0.33400771  0.50104480  1
  In  In28  1  0.49799908  0.17502987  0.00626275  1
  In  In29  1  0.01773171  0.67658821  0.00762175  1
  In  In30  1  0.18172375  0.65026130  0.82201851  1
  In  In31  1  -0.01475204  0.48790494  0.49747088  1
  In  In32  1  0.33520185  0.65866861  0.00975746  1
  In  In33  1  0.65416802  0.18216989  0.48110487  1
  In  In34  1  0.83144304  0.30997569  0.17613781  1
  In  In35  1  0.00874236  0.51190544  0.15451275  1
  In  In36  1  0.19540921  0.48398071  0.31350522  1
  In  In37  1  0.31706733  0.00345476  0.34089673  1
  In  In38  1  0.84553401  0.83909549  0.00424261  1
  In  In39  1  -0.00429573  0.17489491  0.52156379  1
  In  In40  1  0.63641820  0.14808794  0.20174963  1
  In  In41  1  0.02356958  0.13753700  0.80600950  1
  In  In42  1  0.34183265  0.17786573  0.18285294  1
  In  In43  1  0.45565201  0.35503328  0.81003192  1
  In  In44  1  0.69853937  0.81366247  0.85015164  1
  In  In45  1  0.17523312  0.28217002  0.50166665  1
  In  In46  1  0.81663598  0.66760332  0.50654672  1
  In  In47  1  0.64093544  0.66703156  0.02338832  1
  In  In48  1  0.18176847  0.16272564  -0.01686316  1
  In  In49  1  0.47865025  0.65545784  0.49771906  1
  In  In50  1  0.47621333  0.35264319  0.14832705  1
  In  In51  1  0.48670912  0.00302285  0.83863259  1
  In  In52  1  0.83060012  0.17712124  0.65135599  1
  In  In53  1  0.64739731  0.49860573  0.52232285  1
  In  In54  1  0.19393126  0.35157988  0.83525182  1
  In  In55  1  0.32957817  0.16455162  0.81913632  1
  In  In56  1  0.81901316  0.15426780  0.31967188  1
  In  In57  1  0.00955805  0.32312711  0.32989784  1
  In  In58  1  0.83251760  0.34602290  0.83639027  1
  In  In59  1  0.32652465  0.86268314  0.81287413  1
  In  In60  1  0.85085449  0.51041563  -0.01225677  1
  In  In61  1  0.17545799  0.84205771  0.33095948  1
  In  In62  1  0.51189249  0.83443287  0.34727400  1
  In  In63  1  0.67322208  0.86405832  0.18474429  1
  In  In64  1  0.83129320  0.18822153  0.01989253  1
  In  In65  1  0.52207746  0.79731967  0.67341839  1
  In  In66  1  0.81997549  0.49863181  0.35850262  1
  In  In67  1  0.28334610  0.02190559  0.63716343  1
  In  In68  1  0.49860357  0.65203220  0.84280547  1
  In  In69  1  0.46647823  0.62576460  0.19012329  1
  In  In70  1  0.64450194  0.48946031  0.82115611  1
  In  In71  1  0.33259484  0.80875839  0.51760862  1
  Te  Te72  1  0.08776408  0.08309495  0.07430685  1
  Te  Te73  1  0.09605919  0.09041951  0.43806657  1
  Te  Te74  1  0.11396621  0.08204894  0.70152368  1
  Te  Te75  1  0.09795866  0.41796401  0.08805553  1
  Te  Te76  1  0.09333757  0.41395761  0.41773017  1
  Te  Te77  1  0.08803880  0.42073389  0.75922292  1
  Te  Te78  1  0.11899690  0.73354314  0.10126556  1
  Te  Te79  1  0.06167735  0.77025317  0.42318047  1
  Te  Te80  1  0.11161659  0.74940888  0.73711445  1
  Te  Te81  1  0.43089495  0.07780633  0.09969042  1
  Te  Te82  1  0.38015445  0.10511808  0.42806256  1
  Te  Te83  1  0.40660640  0.06115902  0.72354885  1
  Te  Te84  1  0.36923122  0.42787873  0.07977299  1
  Te  Te85  1  0.41478889  0.42667195  0.40496387  1
  Te  Te86  1  0.40395890  0.46277034  0.72162910  1
  Te  Te87  1  0.43075592  0.74127463  0.09679757  1
  Te  Te88  1  0.40337654  0.74116331  0.39824565  1
  Te  Te89  1  0.40767973  0.74662495  0.75659989  1
  Te  Te90  1  0.75678095  0.08703847  0.10564593  1
  Te  Te91  1  0.76284316  0.09302338  0.44011443  1
  Te  Te92  1  0.73676375  0.08719990  0.73827053  1
  Te  Te93  1  0.76318818  0.42230122  0.09080011  1
  Te  Te94  1  0.71776013  0.40530681  0.41488366  1
  Te  Te95  1  0.75357570  0.42890548  0.74422034  1
  Te  Te96  1  0.74107999  0.76486836  0.08470684  1
  Te  Te97  1  0.76494309  0.76361222  0.39651718  1
  Te  Te98  1  0.74522235  0.72507374  0.73843900  1
  Te  Te99  1  0.10958254  0.27713336  0.22526995  1
  Te  Te100  1  0.06070753  0.28453277  0.59808078  1
  Te  Te101  1  0.09169749  0.24207152  0.89183284  1
  Te  Te102  1  0.08308819  0.58162197  0.26679143  1
  Te  Te103  1  0.08527296  0.57963131  0.56984496  1
  Te  Te104  1  0.07916083  0.57990102  0.90869397  1
  Te  Te105  1  0.08160585  0.93370837  0.26649863  1
  Te  Te106  1  0.09741497  0.89781006  0.52544930  1
  Te  Te107  1  0.08828132  0.92309465  0.90641788  1
  Te  Te108  1  0.45547421  0.24591351  0.25244766  1
  Te  Te109  1  0.39423706  0.25308069  0.58388322  1
  Te  Te110  1  0.40492504  0.25292507  0.91735483  1
  Te  Te111  1  0.40003558  0.52265387  0.27414498  1
  Te  Te112  1  0.42299500  0.57023255  0.60719259  1
  Te  Te113  1  0.40597794  0.56690285  0.91937258  1
  Te  Te114  1  0.41395996  0.91609308  0.26249532  1
  Te  Te115  1  0.44163041  0.89235055  0.58346439  1
  Te  Te116  1  0.41559651  0.90775980  0.93096604  1
  Te  Te117  1  0.72070994  0.25781960  0.26703709  1
  Te  Te118  1  0.72051321  0.26391922  0.59293497  1
  Te  Te119  1  0.74294075  0.24638961  0.91168978  1
  Te  Te120  1  0.76086008  0.58819575  0.24894187  1
  Te  Te121  1  0.77121027  0.55161201  0.58387354  1
  Te  Te122  1  0.73030986  0.58751017  0.92855270  1
  Te  Te123  1  0.77482216  0.94440919  0.26294247  1
  Te  Te124  1  0.76649340  0.90719330  0.58313231  1
  Te  Te125  1  0.76281512  0.93885678  0.91398020  1
  Te  Te126  1  0.27194307  0.24018515  0.06963001  1
  Te  Te127  1  0.25900344  0.26648224  0.38248656  1
  Te  Te128  1  0.26579530  0.26681188  0.73661411  1
  Te  Te129  1  0.23323518  0.61073956  0.10689471  1
  Te  Te130  1  0.24945932  0.58626620  0.41450181  1
  Te  Te131  1  0.28110778  0.55175755  0.76463966  1
  Te  Te132  1  0.24470855  0.92530467  0.09338364  1
  Te  Te133  1  0.24793760  0.91743995  0.44828493  1
  Te  Te134  1  0.23220984  0.90344045  0.70688338  1
  Te  Te135  1  0.60409945  0.25072612  0.08507485  1
  Te  Te136  1  0.53996956  0.23119192  0.40225520  1
  Te  Te137  1  0.56760946  0.26659852  0.77335001  1
  Te  Te138  1  0.55330638  0.55945827  0.08338450  1
  Te  Te139  1  0.56700536  0.56697753  0.41077919  1
  Te  Te140  1  0.58890011  0.59869648  0.73998884  1
  Te  Te141  1  0.58017157  0.91706370  0.08422586  1
  Te  Te142  1  0.59888815  0.95361021  0.40634848  1
  Te  Te143  1  0.58925417  0.90306179  0.76831784  1
  Te  Te144  1  0.93778354  0.28501186  0.06756682  1
  Te  Te145  1  0.90538102  0.24926918  0.41625371  1
  Te  Te146  1  0.91698695  0.23620236  0.76025167  1
  Te  Te147  1  0.90954438  0.60737518  0.08945458  1
  Te  Te148  1  0.92197706  0.59845634  0.41175650  1
  Te  Te149  1  0.91413574  0.56979064  0.75602745  1
  Te  Te150  1  0.95493611  0.87388162  0.10879857  1
  Te  Te151  1  0.87400221  0.91352135  0.37832177  1
  Te  Te152  1  0.95143104  0.91523394  0.75156492  1
  Te  Te153  1  0.23748743  0.07783204  0.23507792  1
  Te  Te154  1  0.20155440  0.11834556  0.56251086  1
  Te  Te155  1  0.24560473  0.05974317  0.88951757  1
  Te  Te156  1  0.29404902  0.42137794  0.21609806  1
  Te  Te157  1  0.24689006  0.39671661  0.57807461  1
  Te  Te158  1  0.27695927  0.42359281  0.93948265  1
  Te  Te159  1  0.25556241  0.73828224  0.26520598  1
  Te  Te160  1  0.25962404  0.71948953  0.60919058  1
  Te  Te161  1  0.25782672  0.75539495  0.91115001  1
  Te  Te162  1  0.58205644  0.03514591  0.27353659  1
  Te  Te163  1  0.57215828  0.08371792  0.58401977  1
  Te  Te164  1  0.58492404  0.09642712  0.90502034  1
  Te  Te165  1  0.56204383  0.41693104  0.25212024  1
  Te  Te166  1  0.55889814  0.41514514  0.60349164  1
  Te  Te167  1  0.55414981  0.41646020  0.91794084  1
  Te  Te168  1  0.58515933  0.74266494  0.24982561  1
  Te  Te169  1  0.59843489  0.72960465  0.56111224  1
  Te  Te170  1  0.57774211  0.76153896  0.92344033  1
  Te  Te171  1  0.94461660  0.09379411  0.25497334  1
  Te  Te172  1  0.91413883  0.06667126  0.58767548  1
  Te  Te173  1  0.91216177  0.09509184  0.92537998  1
  Te  Te174  1  0.91080805  0.41696946  0.25852536  1
  Te  Te175  1  0.93236639  0.38888094  0.59579798  1
  Te  Te176  1  0.93475867  0.41529638  0.91706912  1
  Te  Te177  1  0.90342054  0.78078744  0.22202228  1
  Te  Te178  1  0.92051391  0.74314938  0.58899775  1
  Te  Te179  1  0.93571295  0.76167699  0.90952921  1
