# generated using pymatgen
data_In2Te3
_symmetry_space_group_name_H-M   'P 1'
_cell_length_a   18.77008298
_cell_length_b   18.77642144
_cell_length_c   18.78034868
_cell_angle_alpha   89.93546137
_cell_angle_beta   90.00364520
_cell_angle_gamma   90.03372980
_symmetry_Int_Tables_number   1
_chemical_formula_structural   In2Te3
_chemical_formula_sum   'In72 Te108'
_cell_volume   6618.84661129
_cell_formula_units_Z   36
loop_
 _symmetry_equiv_pos_site_id
 _symmetry_equiv_pos_as_xyz
  1  'x, y, z'
loop_
 _atom_site_type_symbol
 _atom_site_label
 _atom_site_symmetry_multiplicity
 _atom_site_fract_x
 _atom_site_fract_y
 _atom_site_fract_z
 _atom_site_occupancy
  In  In0  1  0.82121048  0.00734905  0.15095131  1
  In  In1  1  0.84500477  0.16076792  0.00331228  1
  In  In2  1  0.19220832  0.68683431  0.18619918  1
  In  In3  1  0.32652146  0.31460982  0.34295840  1
  In  In4  1  0.46427368  0.15408755  0.33954951  1
  In  In5  1  0.36069686  0.64996602  0.67112688  1
  In  In6  1  0.32955142  0.17514932  0.82418144  1
  In  In7  1  0.17137712  0.48049115  0.68023583  1
  In  In8  1  0.85210228  0.50801592  0.67050706  1
  In  In9  1  0.01803212  0.00912387  0.34302170  1
  In  In10  1  0.03191007  0.84577937  0.15995589  1
  In  In11  1  0.64344918  -0.01180288  -0.02213201  1
  In  In12  1  0.86039316  0.33212161  0.82650623  1
  In  In13  1  0.48349247  0.32728735  0.84370726  1
  In  In14  1  0.82624071  0.68579737  0.50935804  1
  In  In15  1  0.82966429  0.82638316  0.33467041  1
  In  In16  1  0.04507360  0.32385752  0.32110032  1
  In  In17  1  0.33093814  0.33072446  0.65878470  1
  In  In18  1  0.34327841  0.83742698  0.49056898  1
  In  In19  1  0.00779918  0.16639807  0.84115279  1
  In  In20  1  0.15328966  0.50208753  -0.03426157  1
  In  In21  1  0.66313988  0.50857934  0.82178120  1
  In  In22  1  0.03224731  0.69199290  0.34235471  1
  In  In23  1  0.82077007  0.19229668  0.33080253  1
  In  In24  1  0.33228900  0.66213524  0.00751710  1
  In  In25  1  0.83770530  0.66123780  0.82108285  1
  In  In26  1  0.00498145  0.48392978  0.48652572  1
  In  In27  1  0.03390500  0.18900014  0.52815401  1
  In  In28  1  0.83762874  0.50809548  0.31882338  1
  In  In29  1  -0.00528168  0.01231069  -0.01846264  1
  In  In30  1  0.63467530  0.50027187  0.50089042  1
  In  In31  1  0.61021494  -0.00868794  0.35522321  1
  In  In32  1  0.33757149  0.00679057  0.64459907  1
  In  In33  1  0.14642194  0.82671992  0.66882689  1
  In  In34  1  0.84109892  0.29487242  0.16782636  1
  In  In35  1  0.49902487  0.67861587  0.17261621  1
  In  In36  1  0.65018391  0.32346737  0.01955953  1
  In  In37  1  0.49671065  0.33921723  0.51004506  1
  In  In38  1  0.15719493  -0.00109346  0.83305953  1
  In  In39  1  0.49763567  0.17300901  0.66284007  1
  In  In40  1  0.83686180  0.65582452  0.14728523  1
  In  In41  1  0.50073383  0.51560510  0.33776978  1
  In  In42  1  0.62568898  -0.02135466  0.68433650  1
  In  In43  1  0.66934274  0.14964179  0.83277673  1
  In  In44  1  0.81654793  0.83103378  -0.02968806  1
  In  In45  1  0.17138083  0.67003884  0.48996129  1
  In  In46  1  0.69798239  0.32360773  0.33755813  1
  In  In47  1  0.82855687  -0.00396803  0.50652784  1
  In  In48  1  0.83394266  0.83442163  0.66834699  1
  In  In49  1  0.50493538  0.32700710  0.15483199  1
  In  In50  1  0.18052211  0.84096919  0.00260039  1
  In  In51  1  0.17614292  0.51177760  0.35270195  1
  In  In52  1  0.62985251  0.65956553  0.34353350  1
  In  In53  1  0.00709151  0.18319023  0.16934090  1
  In  In54  1  0.35450492  0.48046320  0.16576652  1
  In  In55  1  0.67432552  0.17181991  0.50655314  1
  In  In56  1  0.65989467  0.83189564  0.16456940  1
  In  In57  1  -0.01521024  0.66401061  0.67564326  1
  In  In58  1  0.63523990  0.69334789  0.64650655  1
  In  In59  1  0.00776846  0.48832845  0.13948001  1
  In  In60  1  0.50266612  0.82246384  -0.00488549  1
  In  In61  1  0.20434853  0.03434899  0.19254183  1
  In  In62  1  0.83400117  0.48038342  -0.02179812  1
  In  In63  1  0.17843176  0.01790837  0.50801602  1
  In  In64  1  0.49969325  0.67595382  0.83432754  1
  In  In65  1  0.36213096  0.01272543  0.02939141  1
  In  In66  1  0.17236724  0.17694369  0.01275368  1
  In  In67  1  0.33971898  0.82058237  0.84502434  1
  In  In68  1  0.63668001  0.50212448  0.13832836  1
  In  In69  1  0.32028259  0.49139180  0.82861925  1
  In  In70  1  0.84039576  0.32019299  0.52401947  1
  In  In71  1  -0.01704930  0.00732437  0.67500216  1
  Te  Te72  1  0.08209799  0.06514748  0.09305923  1
  Te  Te73  1  0.10199094  0.11886247  0.40571910  1
  Te  Te74  1  0.09446194  0.09399717  0.73489483  1
  Te  Te75  1  0.11361991  0.40894241  0.07743196  1
  Te  Te76  1  0.11735150  0.39298098  0.43610129  1
  Te  Te77  1  0.08688476  0.37587492  0.74167483  1
  Te  Te78  1  0.09286687  0.73450200  0.07861261  1
  Te  Te79  1  0.10627553  0.78684335  0.42498455  1
  Te  Te80  1  0.07790260  0.73756532  0.76620745  1
  Te  Te81  1  0.44833487  0.10009298  0.11024533  1
  Te  Te82  1  0.39553408  0.04651452  0.41960220  1
  Te  Te83  1  0.42134424  0.07609467  0.75351817  1
  Te  Te84  1  0.42768974  0.41126826  0.05911916  1
  Te  Te85  1  0.40838941  0.42200073  0.41746142  1
  Te  Te86  1  0.42339091  0.42231234  0.73965054  1
  Te  Te87  1  0.39859912  0.76714402  0.09364138  1
  Te  Te88  1  0.39913087  0.75855614  0.37300147  1
  Te  Te89  1  0.43784255  0.78036238  0.73310814  1
  Te  Te90  1  0.72686087  0.08886235  0.06830452  1
  Te  Te91  1  0.74379439  0.07541845  0.40316916  1
  Te  Te92  1  0.73581235  0.06780609  0.72922646  1
  Te  Te93  1  0.76076392  0.41721996  0.10400087  1
  Te  Te94  1  0.76303432  0.42627983  0.43704865  1
  Te  Te95  1  0.75658782  0.41510356  0.74633972  1
  Te  Te96  1  0.73710254  0.74246626  0.07010829  1
  Te  Te97  1  0.72530725  0.75735498  0.42186859  1
  Te  Te98  1  0.73485924  0.74949403  0.74775442  1
  Te  Te99  1  0.13159783  0.24573037  0.22567495  1
  Te  Te100  1  0.10638910  0.28056950  0.62037472  1
  Te  Te101  1  0.10217035  0.25722601  0.91076266  1
  Te  Te102  1  0.07516300  0.57754243  0.25159616  1
  Te  Te103  1  0.07966599  0.58019938  0.58155061  1
  Te  Te104  1  0.07085201  0.58535443  0.87711082  1
  Te  Te105  1  0.11344720  0.92290874  0.26103448  1
  Te  Te106  1  0.07652972  0.93002314  0.57968014  1
  Te  Te107  1  0.07119298  0.90048905  0.91183461  1
  Te  Te108  1  0.38597129  0.25061279  0.21624459  1
  Te  Te109  1  0.40037306  0.23231084  0.56068665  1
  Te  Te110  1  0.39294220  0.25170080  0.93376009  1
  Te  Te111  1  0.39989134  0.59525598  0.25529530  1
  Te  Te112  1  0.43170083  0.57367581  0.56972749  1
  Te  Te113  1  0.41700981  0.57604177  0.91537401  1
  Te  Te114  1  0.39289835  0.87160814  0.27364006  1
  Te  Te115  1  0.44085610  0.91698779  0.57799217  1
  Te  Te116  1  0.42186460  0.92789380  0.91545730  1
  Te  Te117  1  0.71678151  0.22347711  0.22136118  1
  Te  Te118  1  0.74637382  0.24728807  0.61015099  1
  Te  Te119  1  0.75232799  0.26146756  0.92436837  1
  Te  Te120  1  0.72974186  0.59578843  0.24445678  1
  Te  Te121  1  0.74434600  0.58640001  0.59128343  1
  Te  Te122  1  0.74422681  0.58956057  0.92178805  1
  Te  Te123  1  0.74201179  0.92677757  0.25597306  1
  Te  Te124  1  0.73221817  0.91207325  0.58554242  1
  Te  Te125  1  0.74489671  0.92900317  0.88764813  1
  Te  Te126  1  0.25652618  0.23272635  0.12076430  1
  Te  Te127  1  0.24782207  0.19901844  0.39580262  1
  Te  Te128  1  0.23191778  0.26085873  0.74913911  1
  Te  Te129  1  0.24268526  0.57297421  0.09448604  1
  Te  Te130  1  0.27760132  0.59323293  0.42199130  1
  Te  Te131  1  0.24282850  0.59776281  0.75087111  1
  Te  Te132  1  0.26297074  0.92186595  0.10253023  1
  Te  Te133  1  0.26929268  0.94569554  0.41016187  1
  Te  Te134  1  0.25466569  0.91447793  0.74781029  1
  Te  Te135  1  0.55147623  0.21649581  0.06009259  1
  Te  Te136  1  0.57806181  0.24953690  0.40535185  1
  Te  Te137  1  0.58565073  0.25548439  0.75531888  1
  Te  Te138  1  0.56434059  0.60356067  0.06179175  1
  Te  Te139  1  0.53548141  0.61611835  0.45905238  1
  Te  Te140  1  0.56681213  0.58401670  0.73062723  1
  Te  Te141  1  0.56358788  0.92443138  0.09417556  1
  Te  Te142  1  0.54902344  0.90219385  0.45529783  1
  Te  Te143  1  0.54867565  0.88597813  0.77138702  1
  Te  Te144  1  0.94324411  0.26500192  0.05782422  1
  Te  Te145  1  0.93192877  0.25724469  0.41465620  1
  Te  Te146  1  0.90780970  0.21953267  0.74469464  1
  Te  Te147  1  0.92881723  0.58461147  0.05125879  1
  Te  Te148  1  0.91982816  0.60162663  0.42024203  1
  Te  Te149  1  0.94926027  0.55061617  0.78490995  1
  Te  Te150  1  0.91384875  0.90854471  0.08084398  1
  Te  Te151  1  0.92359204  0.91411404  0.41788947  1
  Te  Te152  1  0.92272658  0.90511977  0.76261043  1
  Te  Te153  1  0.30005591  0.08652718  0.30020635  1
  Te  Te154  1  0.24915346  0.11441247  0.59508248  1
  Te  Te155  1  0.25228942  0.06986601  0.92913217  1
  Te  Te156  1  0.24934827  0.41739364  0.25646329  1
  Te  Te157  1  0.26071256  0.43035499  0.57349005  1
  Te  Te158  1  0.24571077  0.39704314  0.91453168  1
  Te  Te159  1  0.26964994  0.77500925  0.27621409  1
  Te  Te160  1  0.26130152  0.75388757  0.59356315  1
  Te  Te161  1  0.23569737  0.73117413  0.91048529  1
  Te  Te162  1  0.55269418  0.07546564  0.24649825  1
  Te  Te163  1  0.57350240  0.07892598  0.57048016  1
  Te  Te164  1  0.55828899  0.08756949  0.90738267  1
  Te  Te165  1  0.59101023  0.41536624  0.26373312  1
  Te  Te166  1  0.59547431  0.39950292  0.60107577  1
  Te  Te167  1  0.58477277  0.41920004  0.91950819  1
  Te  Te168  1  0.56476809  0.77905252  0.27263722  1
  Te  Te169  1  0.55652416  0.78749040  0.56345882  1
  Te  Te170  1  0.60012103  0.76447593  0.89969690  1
  Te  Te171  1  0.91672889  0.08025575  0.24878022  1
  Te  Te172  1  0.91356846  0.10223582  0.57555914  1
  Te  Te173  1  0.89011931  0.06964442  0.89060937  1
  Te  Te174  1  0.92711674  0.40063003  0.25066830  1
  Te  Te175  1  0.94133526  0.40462821  0.60117508  1
  Te  Te176  1  0.94760593  0.40446765  0.92195818  1
  Te  Te177  1  0.92063216  0.74933331  0.23798517  1
  Te  Te178  1  0.93576662  0.76772353  0.57306163  1
  Te  Te179  1  0.91990676  0.74370243  0.91216239  1
