# generated using pymatgen
data_In2Te3
_symmetry_space_group_name_H-M   'P 1'
_cell_length_a   19.01352134
_cell_length_b   18.96926706
_cell_length_c   19.03531757
_cell_angle_alpha   90.06560945
_cell_angle_beta   89.96887067
_cell_angle_gamma   90.06117973
_symmetry_Int_Tables_number   1
_chemical_formula_structural   In2Te3
_chemical_formula_sum   'In72 Te108'
_cell_volume   6865.50737124
_cell_formula_units_Z   36
loop_
 _symmetry_equiv_pos_site_id
 _symmetry_equiv_pos_as_xyz
  1  'x, y, z'
loop_
 _atom_site_type_symbol
 _atom_site_label
 _atom_site_symmetry_multiplicity
 _atom_site_fract_x
 _atom_site_fract_y
 _atom_site_fract_z
 _atom_site_occupancy
  In  In0  1  0.33482198  0.31886157  0.68588178  1
  In  In1  1  0.68261532  0.00690016  0.67386967  1
  In  In2  1  0.02206598  0.15504075  0.51833629  1
  In  In3  1  -0.00771313  0.00468028  0.01454363  1
  In  In4  1  0.16291677  0.00217173  0.83183185  1
  In  In5  1  0.83200334  0.48928554  0.65981345  1
  In  In6  1  0.82704840  -0.00305501  0.17062497  1
  In  In7  1  0.16198398  0.49388376  0.66037573  1
  In  In8  1  0.41119350  0.21239454  0.34504902  1
  In  In9  1  0.00452370  0.48250614  0.19811145  1
  In  In10  1  0.64133296  0.66786878  0.68230178  1
  In  In11  1  -0.03633812  0.86229782  0.81743375  1
  In  In12  1  0.01365837  0.66602480  0.66042980  1
  In  In13  1  0.49702266  0.48215038  0.31900338  1
  In  In14  1  0.52164059  0.49868790  -0.00460614  1
  In  In15  1  0.80747054  0.82414549  0.31161173  1
  In  In16  1  0.68411681  0.49172917  0.48743374  1
  In  In17  1  -0.01313246  0.67756115  0.34944514  1
  In  In18  1  0.64750277  0.16329593  0.17017423  1
  In  In19  1  0.86707477  0.66333524  0.50354756  1
  In  In20  1  0.48359209  0.68056088  0.50392375  1
  In  In21  1  0.03279527  0.48951844  0.46626887  1
  In  In22  1  0.19385584  0.86357177  0.02032395  1
  In  In23  1  0.80442938  0.31175387  0.16480679  1
  In  In24  1  -0.02741856  -0.00993487  0.32167356  1
  In  In25  1  0.33759796  0.84337766  0.17513759  1
  In  In26  1  0.20901606  0.50604489  0.32535244  1
  In  In27  1  0.64035014  0.82218121  0.84475994  1
  In  In28  1  0.32388151  -0.00060144  0.65520678  1
  In  In29  1  -0.03334473  0.34945702  0.00763853  1
  In  In30  1  0.15287273  0.84578856  0.32462654  1
  In  In31  1  0.82980266  0.33382049  0.49486340  1
  In  In32  1  0.83073228  0.15591715  0.67010024  1
  In  In33  1  0.15405483  0.32796175  0.80944716  1
  In  In34  1  0.81661867  0.19039030  -0.01777367  1
  In  In35  1  0.47949016  0.00197489  0.86305648  1
  In  In36  1  0.65723415  0.66683870  0.32391830  1
  In  In37  1  0.33134842  0.68056317  0.65970446  1
  In  In38  1  0.50591974  0.15223658  0.66088059  1
  In  In39  1  -0.00908446  0.15392455  0.81980399  1
  In  In40  1  0.51085682  0.32315687  0.85914435  1
  In  In41  1  0.79857017  0.54487642  -0.01240038  1
  In  In42  1  0.17961762  0.67313658  0.15879781  1
  In  In43  1  0.17792390  0.82691879  0.67549812  1
  In  In44  1  0.81735389  0.00786884  0.51096586  1
  In  In45  1  0.65223710  0.50285866  0.16810731  1
  In  In46  1  0.00608052  0.68244043  0.00493085  1
  In  In47  1  0.35958118  0.50665637  0.15220981  1
  In  In48  1  0.01962155  0.30853742  0.32553097  1
  In  In49  1  0.15688605  0.16129888  -0.01832667  1
  In  In50  1  0.66401282  0.34479374  0.67803569  1
  In  In51  1  0.34651393  0.85523066  0.46099699  1
  In  In52  1  0.35006745  0.50125807  0.51095372  1
  In  In53  1  0.65044987  0.87338918  0.17738956  1
  In  In54  1  0.80285272  0.81963656  -0.00245297  1
  In  In55  1  0.32441062  0.49530448  0.81225105  1
  In  In56  1  0.49116313  0.82651202  0.66505897  1
  In  In57  1  -0.00912934  0.30043463  0.66230181  1
  In  In58  1  0.23748364  0.25872347  0.22829709  1
  In  In59  1  0.49929957  0.00839916  0.35056814  1
  In  In60  1  0.64144291  0.16380931  0.48527476  1
  In  In61  1  0.00389170  0.85459289  0.51753553  1
  In  In62  1  0.50461232  0.65670014  0.83481565  1
  In  In63  1  0.51175946  0.33355363  0.48512624  1
  In  In64  1  0.35709787  0.03464711  0.04556207  1
  In  In65  1  0.35458703  0.32987813  0.01309570  1
  In  In66  1  -0.02075192  0.52486139  0.85089565  1
  In  In67  1  0.83109162  0.65563308  0.15730722  1
  In  In68  1  0.13552456  0.48007774  -0.00765183  1
  In  In69  1  0.18633277  -0.00913956  0.49319433  1
  In  In70  1  0.34133929  0.68876214  0.00680306  1
  In  In71  1  0.64172824  -0.00314303  -0.00241568  1
  Te  Te72  1  0.07943241  0.09646417  0.08747639  1
  Te  Te73  1  0.07383671  0.05804216  0.41645276  1
  Te  Te74  1  0.11038654  0.11058242  0.74573080  1
  Te  Te75  1  0.07896891  0.39218992  0.10198737  1
  Te  Te76  1  0.12586236  0.39706610  0.39406448  1
  Te  Te77  1  0.05715902  0.43147421  0.75252431  1
  Te  Te78  1  0.09013884  0.77284812  0.09174720  1
  Te  Te79  1  0.08452436  0.76027936  0.43053333  1
  Te  Te80  1  0.07077949  0.76417531  0.76060374  1
  Te  Te81  1  0.45988104  0.14502383  0.06015980  1
  Te  Te82  1  0.40579290  0.09038166  0.43486090  1
  Te  Te83  1  0.40913927  0.08045850  0.75142435  1
  Te  Te84  1  0.45608228  0.40399271  0.09566756  1
  Te  Te85  1  0.40076956  0.40362970  0.40592586  1
  Te  Te86  1  0.43330415  0.40988112  0.75507200  1
  Te  Te87  1  0.41417874  0.72500565  0.12727313  1
  Te  Te88  1  0.43237186  0.75873808  0.39194360  1
  Te  Te89  1  0.40816534  0.75366935  0.76767992  1
  Te  Te90  1  0.74677895  0.08160635  0.07232837  1
  Te  Te91  1  0.76175265  0.10817408  0.42136381  1
  Te  Te92  1  0.74540815  0.09508498  0.77139410  1
  Te  Te93  1  0.75922313  0.43438385  0.08569337  1
  Te  Te94  1  0.73132470  0.38503519  0.39903396  1
  Te  Te95  1  0.74219779  0.43679304  0.76190498  1
  Te  Te96  1  0.72831612  0.75627155  0.11196355  1
  Te  Te97  1  0.75776650  0.73131756  0.41953380  1
  Te  Te98  1  0.74017057  0.73571733  0.77239913  1
  Te  Te99  1  0.09992530  0.21209439  0.25079750  1
  Te  Te100  1  0.10210029  0.26238552  0.57843562  1
  Te  Te101  1  0.05532652  0.26568407  0.91376837  1
  Te  Te102  1  0.08860784  0.59261707  0.26196112  1
  Te  Te103  1  0.09904260  0.58952043  0.56054134  1
  Te  Te104  1  0.09476688  0.60158688  0.91123230  1
  Te  Te105  1  0.06545448  0.91795287  0.23429196  1
  Te  Te106  1  0.09856975  0.93300920  0.60453658  1
  Te  Te107  1  0.07540807  0.91499167  0.92042114  1
  Te  Te108  1  0.41413306  0.20936741  0.19476076  1
  Te  Te109  1  0.42594191  0.25321355  0.58196894  1
  Te  Te110  1  0.39268614  0.24700531  0.89936184  1
  Te  Te111  1  0.43558805  0.59296402  0.24327570  1
  Te  Te112  1  0.43264633  0.58212249  0.60900337  1
  Te  Te113  1  0.39926029  0.56745602  0.92332989  1
  Te  Te114  1  0.43308330  0.94908288  0.22629185  1
  Te  Te115  1  0.42498317  0.92375837  0.57050058  1
  Te  Te116  1  0.41837290  0.91985153  0.97070217  1
  Te  Te117  1  0.75466067  0.21056168  0.25997131  1
  Te  Te118  1  0.73735341  0.24824932  0.58268572  1
  Te  Te119  1  0.69861778  0.27633675  0.96536196  1
  Te  Te120  1  0.75776248  0.57375165  0.25966398  1
  Te  Te121  1  0.74898737  0.59424506  0.58215612  1
  Te  Te122  1  0.74069952  0.64339299  0.89892417  1
  Te  Te123  1  0.73124745  0.95427047  0.28232313  1
  Te  Te124  1  0.74911093  0.90700829  0.59047605  1
  Te  Te125  1  0.74003140  0.91984807  0.90578739  1
  Te  Te126  1  0.24278552  0.24899020  0.07278304  1
  Te  Te127  1  0.27636874  0.18033891  0.40375324  1
  Te  Te128  1  0.24199911  0.22482704  0.75322500  1
  Te  Te129  1  0.23741043  0.56314757  0.07296253  1
  Te  Te130  1  0.27071149  0.58986980  0.42675903  1
  Te  Te131  1  0.23582416  0.59767037  0.74416994  1
  Te  Te132  1  0.24724471  0.95586845  0.12510150  1
  Te  Te133  1  0.26166817  0.94136324  0.37163584  1
  Te  Te134  1  0.26526926  0.91124177  0.76493641  1
  Te  Te135  1  0.58332913  0.24694434  0.06505922  1
  Te  Te136  1  0.56164543  0.23523357  0.38116261  1
  Te  Te137  1  0.58792932  0.23875778  0.75369142  1
  Te  Te138  1  0.58861961  0.59920806  0.07835875  1
  Te  Te139  1  0.57183849  0.57831385  0.42151534  1
  Te  Te140  1  0.58905780  0.55984946  0.76532334  1
  Te  Te141  1  0.55651761  0.89481575  0.06425778  1
  Te  Te142  1  0.60518494  0.91168945  0.38587057  1
  Te  Te143  1  0.56712599  0.92235874  0.75489772  1
  Te  Te144  1  0.91312653  0.23499565  0.08971439  1
  Te  Te145  1  0.93068773  0.24093778  0.43194060  1
  Te  Te146  1  0.89108427  0.26128336  0.76444428  1
  Te  Te147  1  0.94053975  0.57311577  0.08830564  1
  Te  Te148  1  0.91184855  0.55694701  0.40468950  1
  Te  Te149  1  0.90586910  0.59658671  0.74106601  1
  Te  Te150  1  0.90186782  0.90154826  0.08105999  1
  Te  Te151  1  0.89672365  0.89712506  0.41845104  1
  Te  Te152  1  0.91863601  0.97354170  0.73778245  1
  Te  Te153  1  0.30082319  0.12324333  0.25752704  1
  Te  Te154  1  0.25857886  0.09723346  0.56639742  1
  Te  Te155  1  0.26106339  0.06687928  0.92757642  1
  Te  Te156  1  0.27344670  0.41001323  0.22973528  1
  Te  Te157  1  0.25768532  0.40563106  0.58604026  1
  Te  Te158  1  0.24065079  0.40768415  0.90776505  1
  Te  Te159  1  0.25383924  0.74863313  0.26385909  1
  Te  Te160  1  0.26273866  0.77245465  0.56328542  1
  Te  Te161  1  0.24862024  0.76557387  0.92740199  1
  Te  Te162  1  0.54717266  0.05993121  0.21420485  1
  Te  Te163  1  0.58100135  0.05646400  0.57061895  1
  Te  Te164  1  0.57351456  0.10043818  0.91848365  1
  Te  Te165  1  0.60516644  0.40045371  0.26347006  1
  Te  Te166  1  0.58316086  0.42734977  0.58061577  1
  Te  Te167  1  0.61644294  0.40886007  0.92389025  1
  Te  Te168  1  0.58051472  0.79188475  0.28593768  1
  Te  Te169  1  0.59149969  0.76188502  0.57286736  1
  Te  Te170  1  0.56822499  0.73664531  0.94000602  1
  Te  Te171  1  0.90589791  0.09615008  0.24499539  1
  Te  Te172  1  0.93285245  0.06140263  0.60939847  1
  Te  Te173  1  0.90384569  0.08099391  0.91825213  1
  Te  Te174  1  0.90777965  0.38559335  0.25766155  1
  Te  Te175  1  0.93636305  0.42252706  0.57061285  1
  Te  Te176  1  0.88005707  0.43248027  0.91659026  1
  Te  Te177  1  0.91856922  0.75163963  0.23771959  1
  Te  Te178  1  0.91448065  0.76749110  0.60351397  1
  Te  Te179  1  0.91028757  0.75317054  0.91304935  1
