# generated using pymatgen
data_In2Te3
_symmetry_space_group_name_H-M   'P 1'
_cell_length_a   18.76507866
_cell_length_b   18.76031357
_cell_length_c   18.76948878
_cell_angle_alpha   89.96103116
_cell_angle_beta   90.00728993
_cell_angle_gamma   89.98058109
_symmetry_Int_Tables_number   1
_chemical_formula_structural   In2Te3
_chemical_formula_sum   'In72 Te108'
_cell_volume   6607.58559308
_cell_formula_units_Z   36
loop_
 _symmetry_equiv_pos_site_id
 _symmetry_equiv_pos_as_xyz
  1  'x, y, z'
loop_
 _atom_site_type_symbol
 _atom_site_label
 _atom_site_symmetry_multiplicity
 _atom_site_fract_x
 _atom_site_fract_y
 _atom_site_fract_z
 _atom_site_occupancy
  In  In0  1  0.31981768  0.47137089  0.16790706  1
  In  In1  1  0.00590019  0.68035309  0.32342845  1
  In  In2  1  -0.00468294  -0.00728378  0.66159323  1
  In  In3  1  0.67489085  0.51287514  0.83352973  1
  In  In4  1  0.67632608  0.65573205  0.65922352  1
  In  In5  1  0.68020971  0.69045360  0.32700275  1
  In  In6  1  -0.00191516  0.17694721  0.50121836  1
  In  In7  1  0.67832896  0.49815315  0.50674738  1
  In  In8  1  0.00487187  0.32792109  0.32272762  1
  In  In9  1  0.83647732  0.15734003  0.66618945  1
  In  In10  1  0.86464235  0.65353012  0.14631591  1
  In  In11  1  0.68122302  0.85276892  0.18875942  1
  In  In12  1  0.68412259  0.01165070  0.00310334  1
  In  In13  1  0.66781947  0.67455738  -0.02260609  1
  In  In14  1  0.83227737  0.85240273  0.01065434  1
  In  In15  1  0.16127801  0.17027651  0.30632788  1
  In  In16  1  -0.00718818  0.01606985  0.02434805  1
  In  In17  1  0.46804528  0.50201771  0.00769853  1
  In  In18  1  0.50292398  0.00900333  0.18855944  1
  In  In19  1  0.34622187  0.67412264  0.66829906  1
  In  In20  1  0.15677567  0.69605413  0.47641332  1
  In  In21  1  0.34099255  0.49699028  0.49815114  1
  In  In22  1  0.18292480  -0.00177316  0.83997967  1
  In  In23  1  0.31817082  0.66320110  -0.00724570  1
  In  In24  1  0.15785676  -0.01899253  0.50163863  1
  In  In25  1  0.14826708  0.66690350  0.17187666  1
  In  In26  1  0.66909603  0.15698111  0.48425574  1
  In  In27  1  0.49990589  0.31781049  0.82334851  1
  In  In28  1  0.13880540  0.49783005  0.68724552  1
  In  In29  1  0.34300552  0.35138258  0.31692500  1
  In  In30  1  0.33060100  0.31252539  0.67948240  1
  In  In31  1  -0.01379686  0.50670509  0.48807042  1
  In  In32  1  0.14910178  0.65310872  0.85472409  1
  In  In33  1  -0.00579722  0.83396721  0.82855467  1
  In  In34  1  0.33698072  0.70090715  0.31583840  1
  In  In35  1  0.01306778  0.48165622  0.86198369  1
  In  In36  1  -0.02994576  -0.01652995  0.33594107  1
  In  In37  1  0.31398112  0.48386238  0.87219314  1
  In  In38  1  0.68674616  0.49448339  0.16634632  1
  In  In39  1  0.67247209  0.00687255  0.33365451  1
  In  In40  1  0.17246770  0.51156096  0.30412552  1
  In  In41  1  0.33347165  0.84023738  0.48222186  1
  In  In42  1  0.32340677  0.15139214  0.16321365  1
  In  In43  1  0.32929110  -0.00027487  0.68188186  1
  In  In44  1  -0.00627316  0.17538539  0.86263461  1
  In  In45  1  0.49532779  0.83212366  0.66301311  1
  In  In46  1  0.48724472  0.00009276  0.84018164  1
  In  In47  1  0.83892866  0.17418516  0.01472750  1
  In  In48  1  0.82187130  0.49985666  0.66017992  1
  In  In49  1  0.50352664  0.16096059  0.67300844  1
  In  In50  1  0.36817815  0.13339925  0.47757758  1
  In  In51  1  0.52509930  0.67968856  0.18046170  1
  In  In52  1  0.66939623  0.01510431  0.67274398  1
  In  In53  1  0.17046360  0.82795076  0.02363008  1
  In  In54  1  0.66703528  0.84741481  0.47890194  1
  In  In55  1  0.16024183  0.15678182  0.01192598  1
  In  In56  1  0.83722884  0.67544489  0.83600848  1
  In  In57  1  0.84254049  0.33139947  0.49643977  1
  In  In58  1  0.49109707  0.31030909  0.15886593  1
  In  In59  1  -0.02480072  0.68074211  0.65544219  1
  In  In60  1  0.33002528  0.86054264  0.16211661  1
  In  In61  1  0.83735977  0.34721757  0.84102913  1
  In  In62  1  0.68136842  0.31531899  0.34014322  1
  In  In63  1  0.84554502  0.32028208  0.17599148  1
  In  In64  1  0.49211014  0.83354287  -0.01214914  1
  In  In65  1  0.50987572  0.51015840  0.33768275  1
  In  In66  1  0.18190908  0.17441860  0.68645860  1
  In  In67  1  0.51166243  0.49368783  0.65332991  1
  In  In68  1  0.17268206  0.31380077  0.50083792  1
  In  In69  1  0.66135183  0.32624597  0.00656203  1
  In  In70  1  0.84102035  0.82584381  0.64765427  1
  In  In71  1  0.49247074  0.17300313  -0.00174130  1
  Te  Te72  1  0.08999801  0.07649406  0.11857470  1
  Te  Te73  1  0.07616253  0.08486382  0.40720181  1
  Te  Te74  1  0.07371855  0.08634391  0.75566950  1
  Te  Te75  1  0.12447493  0.45650755  0.04792877  1
  Te  Te76  1  0.09787799  0.41938865  0.41865900  1
  Te  Te77  1  0.08647049  0.38887757  0.77057133  1
  Te  Te78  1  0.05991013  0.76122070  0.09599460  1
  Te  Te79  1  0.08192537  0.79886294  0.38739605  1
  Te  Te80  1  0.08296374  0.74255874  0.74477949  1
  Te  Te81  1  0.41696027  0.06496159  0.07503903  1
  Te  Te82  1  0.44103912  0.04291308  0.38553603  1
  Te  Te83  1  0.39901165  0.10371986  0.76793228  1
  Te  Te84  1  0.39323631  0.38275470  0.06478697  1
  Te  Te85  1  0.43884546  0.40571971  0.42525338  1
  Te  Te86  1  0.40978638  0.42864539  0.74952249  1
  Te  Te87  1  0.40619905  0.73763097  0.09449686  1
  Te  Te88  1  0.42864034  0.74193684  0.42215954  1
  Te  Te89  1  0.40627416  0.76854512  0.76349214  1
  Te  Te90  1  0.77756288  0.06976398  0.10626361  1
  Te  Te91  1  0.77365924  0.07509238  0.41901085  1
  Te  Te92  1  0.75440732  0.08900884  0.76820171  1
  Te  Te93  1  0.76928108  0.41217707  0.07112051  1
  Te  Te94  1  0.76588498  0.42582594  0.40307776  1
  Te  Te95  1  0.73274189  0.40687084  0.74089945  1
  Te  Te96  1  0.73844998  0.74377784  0.09469315  1
  Te  Te97  1  0.77544098  0.78770673  0.39229247  1
  Te  Te98  1  0.74503569  0.75856085  0.74941236  1
  Te  Te99  1  0.05487735  0.23063266  0.21805114  1
  Te  Te100  1  0.07758819  0.25607467  0.60384061  1
  Te  Te101  1  0.08136350  0.26492816  0.94125530  1
  Te  Te102  1  0.05201481  0.55931843  0.22814990  1
  Te  Te103  1  0.09050288  0.59225590  0.57468719  1
  Te  Te104  1  0.06287658  0.59005948  0.96392270  1
  Te  Te105  1  0.07818070  0.90119581  0.27509566  1
  Te  Te106  1  0.08201743  0.89388115  0.59363533  1
  Te  Te107  1  0.07563650  0.92278452  0.92391477  1
  Te  Te108  1  0.41728531  0.22913119  0.26273106  1
  Te  Te109  1  0.41744868  0.24476798  0.57525668  1
  Te  Te110  1  0.40205089  0.25837261  0.91627013  1
  Te  Te111  1  0.40756176  0.57460051  0.24362551  1
  Te  Te112  1  0.43292849  0.59573757  0.56921589  1
  Te  Te113  1  0.41971437  0.59738574  0.90025337  1
  Te  Te114  1  0.41285066  0.92200375  0.27242474  1
  Te  Te115  1  0.41566969  0.93064110  0.57782283  1
  Te  Te116  1  0.39251382  0.91991044  0.92191412  1
  Te  Te117  1  0.75070344  0.22847103  0.24351565  1
  Te  Te118  1  0.74722039  0.24932704  0.58156494  1
  Te  Te119  1  0.74814190  0.24369377  0.91257251  1
  Te  Te120  1  0.76648467  0.58783893  0.25291377  1
  Te  Te121  1  0.77896503  0.60534780  0.55857543  1
  Te  Te122  1  0.77388379  0.57347551  0.93174546  1
  Te  Te123  1  0.78656732  0.94164068  0.24910157  1
  Te  Te124  1  0.75214140  0.92837551  0.57647755  1
  Te  Te125  1  0.73284019  0.90340823  0.91515533  1
  Te  Te126  1  0.24525796  0.25352260  0.09100040  1
  Te  Te127  1  0.26505175  0.23733363  0.40823050  1
  Te  Te128  1  0.24606397  0.25995687  0.78831007  1
  Te  Te129  1  0.23439408  0.56653200  0.07713992  1
  Te  Te130  1  0.25401168  0.58944097  0.41009797  1
  Te  Te131  1  0.24890234  0.57917091  0.75750445  1
  Te  Te132  1  0.23064184  0.94528902  0.09094265  1
  Te  Te133  1  0.25638658  0.93836593  0.39945418  1
  Te  Te134  1  0.23297034  0.90362099  0.73816183  1
  Te  Te135  1  0.60068663  0.22120791  0.09869673  1
  Te  Te136  1  0.57352272  0.24276679  0.40846740  1
  Te  Te137  1  0.60097733  0.24039738  0.75102490  1
  Te  Te138  1  0.58343790  0.57572314  0.08065276  1
  Te  Te139  1  0.59806519  0.59915718  0.42113466  1
  Te  Te140  1  0.57342584  0.59342398  0.75306245  1
  Te  Te141  1  0.58296616  0.91320121  0.08508420  1
  Te  Te142  1  0.56430887  0.94162366  0.41892169  1
  Te  Te143  1  0.58368198  0.91781212  0.75472861  1
  Te  Te144  1  0.94639612  0.24562653  0.09121296  1
  Te  Te145  1  0.90576761  0.23586852  0.39516221  1
  Te  Te146  1  0.92053596  0.25366498  0.75240323  1
  Te  Te147  1  0.94116691  0.56142568  0.06095195  1
  Te  Te148  1  0.90994143  0.60492386  0.41022539  1
  Te  Te149  1  0.92547420  0.57018835  0.75763950  1
  Te  Te150  1  0.93148524  0.90628280  0.10829627  1
  Te  Te151  1  0.90577656  0.88497678  0.43073220  1
  Te  Te152  1  0.89540199  0.92335169  0.75488379  1
  Te  Te153  1  0.24723327  0.06054067  0.25531987  1
  Te  Te154  1  0.24704107  0.09186592  0.57540808  1
  Te  Te155  1  0.26075095  0.08862106  0.92409454  1
  Te  Te156  1  0.21547213  0.38102770  0.23606653  1
  Te  Te157  1  0.24650468  0.41928429  0.59058752  1
  Te  Te158  1  0.19935743  0.40514986  0.92897075  1
  Te  Te159  1  0.22695034  0.77721794  0.24692413  1
  Te  Te160  1  0.24878471  0.75702116  0.58177531  1
  Te  Te161  1  0.24441658  0.76331358  0.90620203  1
  Te  Te162  1  0.60086797  0.10438053  0.24465763  1
  Te  Te163  1  0.57210470  0.07220970  0.57063684  1
  Te  Te164  1  0.58850107  0.09050994  0.91265260  1
  Te  Te165  1  0.57644200  0.41223188  0.23708199  1
  Te  Te166  1  0.59380400  0.39957986  0.57629876  1
  Te  Te167  1  0.57864991  0.42381706  0.92049120  1
  Te  Te168  1  0.57122941  0.78755461  0.27490928  1
  Te  Te169  1  0.59201694  0.75182601  0.57494751  1
  Te  Te170  1  0.57537290  0.75337630  0.89517394  1
  Te  Te171  1  0.89382428  0.05567263  0.22725579  1
  Te  Te172  1  0.90837650  0.06933687  0.56207446  1
  Te  Te173  1  0.89868932  0.06943045  0.91618051  1
  Te  Te174  1  0.91856071  0.42510614  0.25282821  1
  Te  Te175  1  0.92911708  0.41251353  0.59459815  1
  Te  Te176  1  0.92210588  0.40272434  0.94978757  1
  Te  Te177  1  0.92957972  0.76412036  0.22239650  1
  Te  Te178  1  0.93418171  0.77130842  0.54100738  1
  Te  Te179  1  0.92345161  0.75072158  0.93505596  1
