# generated using pymatgen
data_In2Te3
_symmetry_space_group_name_H-M   'P 1'
_cell_length_a   18.74127329
_cell_length_b   18.74518995
_cell_length_c   18.73628268
_cell_angle_alpha   90.01078424
_cell_angle_beta   89.92596491
_cell_angle_gamma   89.98227717
_symmetry_Int_Tables_number   1
_chemical_formula_structural   In2Te3
_chemical_formula_sum   'In72 Te108'
_cell_volume   6582.21369981
_cell_formula_units_Z   36
loop_
 _symmetry_equiv_pos_site_id
 _symmetry_equiv_pos_as_xyz
  1  'x, y, z'
loop_
 _atom_site_type_symbol
 _atom_site_label
 _atom_site_symmetry_multiplicity
 _atom_site_fract_x
 _atom_site_fract_y
 _atom_site_fract_z
 _atom_site_occupancy
  In  In0  1  0.16864003  0.34378567  0.82209686  1
  In  In1  1  0.49765679  0.81834774  0.00753738  1
  In  In2  1  0.84251873  0.14444907  0.01963196  1
  In  In3  1  0.84266997  0.50983402  -0.00505989  1
  In  In4  1  0.66947694  0.36278989  0.64478301  1
  In  In5  1  0.52540833  0.69106462  0.16272524  1
  In  In6  1  0.18505856  0.83983494  0.65894261  1
  In  In7  1  0.34748209  0.83773064  0.16468492  1
  In  In8  1  0.00207904  0.16084853  0.82962529  1
  In  In9  1  0.33061198  0.83188198  0.50207276  1
  In  In10  1  0.14544428  0.14335829  0.02940387  1
  In  In11  1  0.16288323  0.01737183  0.50339608  1
  In  In12  1  0.66273737  0.67618394  0.00028271  1
  In  In13  1  -0.01212919  0.32983481  0.32826943  1
  In  In14  1  0.82941208  -0.00062674  0.83537683  1
  In  In15  1  0.14340354  0.84334182  0.01340156  1
  In  In16  1  0.68948805  -0.00389701  0.33680955  1
  In  In17  1  0.51120535  0.64698049  0.81112473  1
  In  In18  1  0.49961236  0.17435436  0.32752139  1
  In  In19  1  0.47989069  0.35706447  0.80669162  1
  In  In20  1  0.32654842  0.34284636  0.67635243  1
  In  In21  1  0.00421351  0.83981340  0.85198327  1
  In  In22  1  0.68149974  0.16273940  0.82094454  1
  In  In23  1  0.00654948  0.65292295  0.01426103  1
  In  In24  1  0.30755613  0.31360348  0.34990530  1
  In  In25  1  0.84506937  0.34028651  0.17149994  1
  In  In26  1  0.14929046  0.48126901  -0.01276563  1
  In  In27  1  0.48487262  0.16344745  0.67138263  1
  In  In28  1  0.82285527  0.34206718  0.81457807  1
  In  In29  1  0.48047148  -0.00420109  0.15180405  1
  In  In30  1  -0.00497966  0.51619748  0.51288123  1
  In  In31  1  0.19625528  0.64870811  0.82144675  1
  In  In32  1  -0.00129686  0.65821244  0.67075858  1
  In  In33  1  0.13472317  0.14131676  0.32207707  1
  In  In34  1  0.13682177  0.68163807  0.50293429  1
  In  In35  1  0.33513708  0.17465931  0.82765318  1
  In  In36  1  0.32523567  0.83298050  0.82733354  1
  In  In37  1  -0.02867322  0.83689932  0.47445131  1
  In  In38  1  0.64498430  0.34377463  -0.01079473  1
  In  In39  1  -0.01156528  0.02547116  0.64600538  1
  In  In40  1  0.47371467  0.33724149  0.20034086  1
  In  In41  1  0.15571705  0.49967971  0.34368061  1
  In  In42  1  0.85991083  0.15041090  0.32822744  1
  In  In43  1  0.82399468  0.81732992  0.65469452  1
  In  In44  1  0.82744910  0.67703695  0.81180695  1
  In  In45  1  0.68865277  0.01545068  -0.00892147  1
  In  In46  1  0.51357835  0.51458429  0.34968071  1
  In  In47  1  0.30333056  0.31611384  -0.00597250  1
  In  In48  1  0.68485815  0.82584481  0.18205650  1
  In  In49  1  0.52244633  -0.03005004  0.50052230  1
  In  In50  1  -0.00998538  0.33655644  0.01388317  1
  In  In51  1  0.71159075  0.53959452  0.20182214  1
  In  In52  1  0.84500300  0.85910661  0.02539340  1
  In  In53  1  0.50911230  0.14096070  0.00052993  1
  In  In54  1  0.31634493  -0.01384390  -0.00585980  1
  In  In55  1  0.33622473  0.68059391  0.32441800  1
  In  In56  1  0.68577714  0.16832009  0.47960916  1
  In  In57  1  0.01996402  0.32715652  0.65312725  1
  In  In58  1  0.16752415  0.66780082  0.16843994  1
  In  In59  1  0.30976819  0.14853770  0.49761226  1
  In  In60  1  0.67733166  -0.02312755  0.65786436  1
  In  In61  1  0.52041046  0.66704406  0.51471414  1
  In  In62  1  0.50646630  0.83457249  0.66072644  1
  In  In63  1  0.68894605  0.15965199  0.15075421  1
  In  In64  1  -0.01992647  0.68544963  0.32605449  1
  In  In65  1  0.32922053  0.48851494  0.51896900  1
  In  In66  1  0.49445400  0.50685070  -0.02324389  1
  In  In67  1  0.51658552  0.36279072  0.53410008  1
  In  In68  1  0.32889762  -0.00914567  0.32497792  1
  In  In69  1  0.69195334  0.36642596  0.35052609  1
  In  In70  1  0.83832993  0.34039345  0.48668994  1
  In  In71  1  0.31467414  0.49555483  0.16281710  1
  Te  Te72  1  0.05892920  0.05105914  0.11213567  1
  Te  Te73  1  0.05059984  0.06299504  0.41817857  1
  Te  Te74  1  0.08819722  0.08118488  0.73894484  1
  Te  Te75  1  0.06977457  0.42694279  0.09951230  1
  Te  Te76  1  0.07182665  0.41045272  0.43134738  1
  Te  Te77  1  0.07246457  0.42765913  0.74890479  1
  Te  Te78  1  0.05813662  0.76022823  0.11136839  1
  Te  Te79  1  0.08769252  0.77210743  0.39187475  1
  Te  Te80  1  0.08832525  0.75221634  0.75402438  1
  Te  Te81  1  0.38886244  0.09467159  0.08136380  1
  Te  Te82  1  0.42691671  0.07403166  0.42099792  1
  Te  Te83  1  0.41360851  0.06940653  0.75884093  1
  Te  Te84  1  0.41386912  0.40896487  0.07645043  1
  Te  Te85  1  0.41502152  0.41106574  0.40804109  1
  Te  Te86  1  0.40240444  0.46402172  0.73347676  1
  Te  Te87  1  0.40048673  0.72431304  0.07784845  1
  Te  Te88  1  0.43163256  0.75321679  0.41848767  1
  Te  Te89  1  0.41181720  0.74368067  0.73904119  1
  Te  Te90  1  0.77754529  0.04091016  0.11366735  1
  Te  Te91  1  0.79103186  0.06027282  0.44424571  1
  Te  Te92  1  0.76940423  0.08396933  0.72429033  1
  Te  Te93  1  0.74543272  0.41591461  0.08288665  1
  Te  Te94  1  0.74254577  0.45554678  0.45846436  1
  Te  Te95  1  0.75395003  0.44883744  0.73504398  1
  Te  Te96  1  0.77091363  0.73848797  0.08788976  1
  Te  Te97  1  0.78289745  0.71180868  0.43148589  1
  Te  Te98  1  0.71850747  0.73603844  0.72672251  1
  Te  Te99  1  0.08084430  0.25389771  0.24055209  1
  Te  Te100  1  0.11209268  0.24705438  0.57031481  1
  Te  Te101  1  0.08520829  0.25279418  0.92327082  1
  Te  Te102  1  0.07056972  0.58125497  0.24849767  1
  Te  Te103  1  0.10721910  0.57119084  0.60274157  1
  Te  Te104  1  0.07678416  0.58288265  0.89799767  1
  Te  Te105  1  0.04706590  0.93965337  0.22836439  1
  Te  Te106  1  0.06932331  0.90206845  0.58040126  1
  Te  Te107  1  0.09255068  0.94079400  0.91282194  1
  Te  Te108  1  0.37987432  0.22475018  0.24608883  1
  Te  Te109  1  0.41035654  0.25238221  0.57010155  1
  Te  Te110  1  0.43611122  0.25697494  0.91803824  1
  Te  Te111  1  0.41858609  0.57978040  0.24077504  1
  Te  Te112  1  0.41521956  0.58830468  0.58783144  1
  Te  Te113  1  0.40759564  0.60453950  0.91036125  1
  Te  Te114  1  0.44148520  0.90271909  0.26648824  1
  Te  Te115  1  0.40578763  0.93014406  0.59155708  1
  Te  Te116  1  0.42469350  0.91531389  0.91474815  1
  Te  Te117  1  0.74639710  0.23912188  0.26940608  1
  Te  Te118  1  0.75742072  0.25174960  0.58515495  1
  Te  Te119  1  0.75798557  0.24624372  0.93120847  1
  Te  Te120  1  0.77436844  0.64861336  0.28422398  1
  Te  Te121  1  0.75274899  0.60995288  0.53255057  1
  Te  Te122  1  0.74421897  0.58636487  0.90811776  1
  Te  Te123  1  0.79170175  0.89943846  0.26821536  1
  Te  Te124  1  0.75107771  0.90074671  0.55425013  1
  Te  Te125  1  0.74731544  0.89594388  0.91269587  1
  Te  Te126  1  0.21907563  0.25327680  0.09707819  1
  Te  Te127  1  0.20377527  0.24574972  0.44143365  1
  Te  Te128  1  0.23140157  0.23589612  0.73370144  1
  Te  Te129  1  0.24069901  0.58369790  0.06417245  1
  Te  Te130  1  0.25239844  0.59260359  0.41855206  1
  Te  Te131  1  0.27544513  0.55705406  0.73807087  1
  Te  Te132  1  0.23556650  0.92488069  0.10763109  1
  Te  Te133  1  0.23404644  0.91227950  0.41528384  1
  Te  Te134  1  0.23356020  0.93115806  0.76404019  1
  Te  Te135  1  0.57522301  0.24836103  0.09600081  1
  Te  Te136  1  0.58044011  0.26897720  0.41826648  1
  Te  Te137  1  0.59194285  0.26110462  0.74492149  1
  Te  Te138  1  0.58853099  0.57228446  0.08777575  1
  Te  Te139  1  0.61719820  0.59409725  0.42231796  1
  Te  Te140  1  0.60893926  0.56592441  0.73575800  1
  Te  Te141  1  0.59484009  0.91838660  0.08222229  1
  Te  Te142  1  0.61983938  0.89301362  0.41995893  1
  Te  Te143  1  0.58382269  0.91984547  0.75567581  1
  Te  Te144  1  0.93119212  0.23124181  0.10933013  1
  Te  Te145  1  0.93610932  0.23143219  0.43643761  1
  Te  Te146  1  0.91236386  0.24390386  0.73975227  1
  Te  Te147  1  0.92067321  0.57113660  0.10406153  1
  Te  Te148  1  0.90809564  0.58151845  0.40958969  1
  Te  Te149  1  0.90427184  0.56994344  0.74331979  1
  Te  Te150  1  0.96020510  0.92137313  0.09694147  1
  Te  Te151  1  0.89831987  0.92518731  0.38177040  1
  Te  Te152  1  0.91706540  0.90920805  0.74282653  1
  Te  Te153  1  0.23829887  0.07114105  0.24113238  1
  Te  Te154  1  0.25326419  0.06908974  0.60873265  1
  Te  Te155  1  0.23833342  0.09333634  0.91822904  1
  Te  Te156  1  0.23017032  0.40336058  0.24983848  1
  Te  Te157  1  0.22715388  0.39987563  0.58056599  1
  Te  Te158  1  0.26818094  0.42998505  0.90092488  1
  Te  Te159  1  0.23860109  0.77320671  0.25391416  1
  Te  Te160  1  0.25808050  0.72741744  0.58681820  1
  Te  Te161  1  0.23604572  0.75485466  0.92542168  1
  Te  Te162  1  0.58607001  0.07573705  0.24635488  1
  Te  Te163  1  0.58810010  0.09407707  0.57630158  1
  Te  Te164  1  0.58413781  0.06619213  0.88973198  1
  Te  Te165  1  0.59525256  0.42411224  0.24568478  1
  Te  Te166  1  0.57735342  0.48139182  0.60659641  1
  Te  Te167  1  0.59248834  0.43583098  0.88126348  1
  Te  Te168  1  0.59812303  0.74939825  0.27620856  1
  Te  Te169  1  0.61436064  0.74794087  0.60000257  1
  Te  Te170  1  0.58437540  0.75643833  0.89911048  1
  Te  Te171  1  0.95347658  0.06523717  0.24696902  1
  Te  Te172  1  0.90496815  0.09751768  0.55056061  1
  Te  Te173  1  0.93317731  0.06273899  0.92688930  1
  Te  Te174  1  0.89130016  0.43246507  0.27640597  1
  Te  Te175  1  0.90965950  0.42075553  0.59584711  1
  Te  Te176  1  0.92372376  0.41827868  0.90257893  1
  Te  Te177  1  0.88058172  0.75730622  0.24129372  1
  Te  Te178  1  0.91120393  0.72688350  0.56628026  1
  Te  Te179  1  0.90964256  0.74462857  0.92642307  1
