# generated using pymatgen
data_In2Te3
_symmetry_space_group_name_H-M   'P 1'
_cell_length_a   18.87658074
_cell_length_b   18.87152888
_cell_length_c   18.87650569
_cell_angle_alpha   90.05503212
_cell_angle_beta   89.96910363
_cell_angle_gamma   89.99679579
_symmetry_Int_Tables_number   1
_chemical_formula_structural   In2Te3
_chemical_formula_sum   'In72 Te108'
_cell_volume   6724.37237283
_cell_formula_units_Z   36
loop_
 _symmetry_equiv_pos_site_id
 _symmetry_equiv_pos_as_xyz
  1  'x, y, z'
loop_
 _atom_site_type_symbol
 _atom_site_label
 _atom_site_symmetry_multiplicity
 _atom_site_fract_x
 _atom_site_fract_y
 _atom_site_fract_z
 _atom_site_occupancy
  In  In0  1  -0.01949725  0.80806394  0.15843810  1
  In  In1  1  0.82874201  0.49853698  0.03006849  1
  In  In2  1  0.82794366  0.17642931  -0.00677264  1
  In  In3  1  0.32710889  0.68213995  0.65906374  1
  In  In4  1  0.67228859  0.82388197  0.17306052  1
  In  In5  1  0.50138317  0.82151088  0.35000638  1
  In  In6  1  -0.00369330  0.35252674  0.31514561  1
  In  In7  1  0.51494668  0.02585723  0.86932781  1
  In  In8  1  0.16373501  0.18183760  -0.00543838  1
  In  In9  1  0.50666398  0.48689507  0.68657015  1
  In  In10  1  0.66820106  0.31542501  0.30358589  1
  In  In11  1  0.14345983  0.50065869  0.01557514  1
  In  In12  1  0.81564165  0.83950401  0.01580604  1
  In  In13  1  0.00296780  0.33210916  0.69278987  1
  In  In14  1  0.53575565  0.52688026  0.03341765  1
  In  In15  1  0.82997549  -0.01962437  0.51047880  1
  In  In16  1  0.51364371  -0.02144027  0.50342771  1
  In  In17  1  0.34445677  0.34082437  0.32210450  1
  In  In18  1  0.51630804  0.50026538  0.31707676  1
  In  In19  1  0.32304072  -0.00313549  0.32758831  1
  In  In20  1  0.31382822  0.52710228  0.83099458  1
  In  In21  1  0.50970934  0.84007408  0.68782777  1
  In  In22  1  0.68791652  0.52073643  0.51591015  1
  In  In23  1  0.81444238  0.34702828  0.49762444  1
  In  In24  1  0.17969338  0.15666576  0.67382248  1
  In  In25  1  0.34675856  0.35172496  -0.01209964  1
  In  In26  1  0.51194948  0.17509488  0.31135796  1
  In  In27  1  -0.00880164  -0.02470276  0.35321734  1
  In  In28  1  0.67822670  0.49981217  0.83912528  1
  In  In29  1  0.50014624  0.31967129  0.82775789  1
  In  In30  1  -0.00984653  0.52971659  0.48109786  1
  In  In31  1  0.51419873  0.17451513  0.66226247  1
  In  In32  1  0.68541025  0.80951156  0.47919752  1
  In  In33  1  0.34814866  0.50603725  0.17008356  1
  In  In34  1  0.12465177  -0.04083139  0.51041766  1
  In  In35  1  0.81176911  0.00328980  0.16269226  1
  In  In36  1  0.67227723  0.34169288  0.69113576  1
  In  In37  1  -0.00978525  0.17791686  0.15378272  1
  In  In38  1  0.32313710  0.50717226  0.48266541  1
  In  In39  1  0.65895348  0.16046855  0.49169399  1
  In  In40  1  0.32380483  -0.02243020  0.66814323  1
  In  In41  1  0.34355043  0.17034479  0.50080647  1
  In  In42  1  0.33248798  0.18024622  0.82012256  1
  In  In43  1  0.82968752  -0.01742670  0.84897311  1
  In  In44  1  0.17671993  0.34378999  0.50183247  1
  In  In45  1  0.15938107  0.34037666  0.16029590  1
  In  In46  1  0.49935866  0.66319146  0.48496193  1
  In  In47  1  -0.01952597  0.65825463  0.01342681  1
  In  In48  1  0.33211350  0.83571116  0.15025767  1
  In  In49  1  0.36339255  -0.00149833  0.01000040  1
  In  In50  1  -0.00963664  0.51134392  0.83272393  1
  In  In51  1  0.31521738  0.69307132  -0.03194349  1
  In  In52  1  -0.01845974  0.66848916  0.31947045  1
  In  In53  1  0.14803644  0.65650808  0.17290659  1
  In  In54  1  0.84320472  0.52421607  0.65798881  1
  In  In55  1  0.01513932  0.14862227  0.47934138  1
  In  In56  1  0.82603956  0.52534381  0.29534015  1
  In  In57  1  0.18457008  0.00487890  0.16394194  1
  In  In58  1  0.16565671  0.82807952  0.32933833  1
  In  In59  1  0.15870671  -0.01526893  0.84081910  1
  In  In60  1  0.00978871  0.15988414  0.84359971  1
  In  In61  1  0.52408556  0.65376598  0.84503730  1
  In  In62  1  0.30043452  0.31473918  0.65344066  1
  In  In63  1  0.66375893  0.31410363  0.01250908  1
  In  In64  1  0.82553754  0.65687713  0.82750791  1
  In  In65  1  0.83413684  0.80102491  0.66169087  1
  In  In66  1  0.49391462  0.82207854  -0.02068498  1
  In  In67  1  0.16654414  0.65970199  0.51403867  1
  In  In68  1  0.82723377  0.18285742  0.31800132  1
  In  In69  1  0.01338547  0.82736647  0.81942319  1
  In  In70  1  0.83544770  0.13132551  0.67759734  1
  In  In71  1  0.52747785  0.01519735  0.16566226  1
  Te  Te72  1  0.08459033  0.08320931  0.07868407  1
  Te  Te73  1  0.10798501  0.06507883  0.39618353  1
  Te  Te74  1  0.07759875  0.06862319  0.74077869  1
  Te  Te75  1  0.05263616  0.40680538  0.08339134  1
  Te  Te76  1  0.08344930  0.42785412  0.41424705  1
  Te  Te77  1  0.08883012  0.43161006  0.75413395  1
  Te  Te78  1  0.09157439  0.75200831  0.07014432  1
  Te  Te79  1  0.07487648  0.74172716  0.41211943  1
  Te  Te80  1  0.12487945  0.75054462  0.75569840  1
  Te  Te81  1  0.40455018  0.08649783  0.12024104  1
  Te  Te82  1  0.43135756  0.07683298  0.41759956  1
  Te  Te83  1  0.41532086  0.08216320  0.73593509  1
  Te  Te84  1  0.44173144  0.41783865  0.08723540  1
  Te  Te85  1  0.42982519  0.42046661  0.41995803  1
  Te  Te86  1  0.39666283  0.40582216  0.75597225  1
  Te  Te87  1  0.41638085  0.73336968  0.07604758  1
  Te  Te88  1  0.39703442  0.74117480  0.41472667  1
  Te  Te89  1  0.42588954  0.73733918  0.76297634  1
  Te  Te90  1  0.73298637  0.07498552  0.05683406  1
  Te  Te91  1  0.76415521  0.08300143  0.41574191  1
  Te  Te92  1  0.73942243  0.06819847  0.76658290  1
  Te  Te93  1  0.71031123  0.43045708  0.09519918  1
  Te  Te94  1  0.74179373  0.42688577  0.39384925  1
  Te  Te95  1  0.78153394  0.42428141  0.75632364  1
  Te  Te96  1  0.76974985  0.72761802  0.10552290  1
  Te  Te97  1  0.77463701  0.73191710  0.39026175  1
  Te  Te98  1  0.73713667  0.75452368  0.76272840  1
  Te  Te99  1  0.08381634  0.24421852  0.25532014  1
  Te  Te100  1  0.08520041  0.24507226  0.58241088  1
  Te  Te101  1  0.06999993  0.26867000  0.92296000  1
  Te  Te102  1  0.05009911  0.56466328  0.23647742  1
  Te  Te103  1  0.06590370  0.58450312  0.59336485  1
  Te  Te104  1  0.08287675  0.59961652  0.91841410  1
  Te  Te105  1  0.07771996  0.91004716  0.23583684  1
  Te  Te106  1  0.05611482  0.88476968  0.61599167  1
  Te  Te107  1  0.06081465  0.91741541  0.92630002  1
  Te  Te108  1  0.43221185  0.26717104  0.23044176  1
  Te  Te109  1  0.42743475  0.26912087  0.58070539  1
  Te  Te110  1  0.42589475  0.23296784  0.92869012  1
  Te  Te111  1  0.41675218  0.59488529  0.26446688  1
  Te  Te112  1  0.42308056  0.57233463  0.59187493  1
  Te  Te113  1  0.42313280  0.57242968  0.92805027  1
  Te  Te114  1  0.42241561  0.91421531  0.24461679  1
  Te  Te115  1  0.41414837  0.89314323  0.57906866  1
  Te  Te116  1  0.41014667  0.91467809  0.89284175  1
  Te  Te117  1  0.75755145  0.24732697  0.20624120  1
  Te  Te118  1  0.74952795  0.24450420  0.58998390  1
  Te  Te119  1  0.75241058  0.26888181  0.90490563  1
  Te  Te120  1  0.73527850  0.60709865  0.20828763  1
  Te  Te121  1  0.75381456  0.62472232  0.59734318  1
  Te  Te122  1  0.74502661  0.59150702  0.93915182  1
  Te  Te123  1  0.76178703  0.90557981  0.26053924  1
  Te  Te124  1  0.73489324  0.90003735  0.59416242  1
  Te  Te125  1  0.72469313  0.90622486  0.92194995  1
  Te  Te126  1  0.26196883  0.26228782  0.07893281  1
  Te  Te127  1  0.25261649  0.24948656  0.40958429  1
  Te  Te128  1  0.21732560  0.26666197  0.77192924  1
  Te  Te129  1  0.25554467  0.58980748  0.07391761  1
  Te  Te130  1  0.23005405  0.58499484  0.40250884  1
  Te  Te131  1  0.22641484  0.61079822  0.74577989  1
  Te  Te132  1  0.24361639  0.91418191  0.05568951  1
  Te  Te133  1  0.24821218  0.91052537  0.42636951  1
  Te  Te134  1  0.24220313  0.88968724  0.75692369  1
  Te  Te135  1  0.60100581  0.20297636  0.08736505  1
  Te  Te136  1  0.57957994  0.26447915  0.41819341  1
  Te  Te137  1  0.60710021  0.22788864  0.77053654  1
  Te  Te138  1  0.59888338  0.61943939  0.13073323  1
  Te  Te139  1  0.60682109  0.58973010  0.40756062  1
  Te  Te140  1  0.60853050  0.58765745  0.73535476  1
  Te  Te141  1  0.58004097  0.90331768  0.07937637  1
  Te  Te142  1  0.60715177  0.91864744  0.40127766  1
  Te  Te143  1  0.58291279  0.93359918  0.77608999  1
  Te  Te144  1  0.92261747  0.27007628  0.06244754  1
  Te  Te145  1  0.91742134  0.25383922  0.42554553  1
  Te  Te146  1  0.90594013  0.23864489  0.76118405  1
  Te  Te147  1  0.92510232  0.57218480  0.12106528  1
  Te  Te148  1  0.87354499  0.60965505  0.42310155  1
  Te  Te149  1  0.93875257  0.61607781  0.73276998  1
  Te  Te150  1  0.91914976  0.92704421  0.08516888  1
  Te  Te151  1  0.91620825  0.87929779  0.43952343  1
  Te  Te152  1  0.91106814  0.90962234  0.74191016  1
  Te  Te153  1  0.26880166  0.10110068  0.23859300  1
  Te  Te154  1  0.24895228  0.07002148  0.56889571  1
  Te  Te155  1  0.25962118  0.08384599  0.91321243  1
  Te  Te156  1  0.24258253  0.43060861  0.25104829  1
  Te  Te157  1  0.24073699  0.44190189  0.59801645  1
  Te  Te158  1  0.23682252  0.42663865  0.91663216  1
  Te  Te159  1  0.25512958  0.74176676  0.24259916  1
  Te  Te160  1  0.24849395  0.76915291  0.57056669  1
  Te  Te161  1  0.22575538  0.76380184  0.87363710  1
  Te  Te162  1  0.61744940  0.08896410  0.25534949  1
  Te  Te163  1  0.59800020  0.06644599  0.59477069  1
  Te  Te164  1  0.59335651  0.09969293  0.97272494  1
  Te  Te165  1  0.60097743  0.42082247  0.22157050  1
  Te  Te166  1  0.59653138  0.41719670  0.58355259  1
  Te  Te167  1  0.57131080  0.42251720  0.91538639  1
  Te  Te168  1  0.57418237  0.73796569  0.24913585  1
  Te  Te169  1  0.57767863  0.75642468  0.57574687  1
  Te  Te170  1  0.60723754  0.74309153  0.92695539  1
  Te  Te171  1  0.92397020  0.07740636  0.25913253  1
  Te  Te172  1  0.93487751  0.06754781  0.58023455  1
  Te  Te173  1  0.92279017  0.07273871  0.93119381  1
  Te  Te174  1  0.87575619  0.39490060  0.24347701  1
  Te  Te175  1  0.92341505  0.41405761  0.57979578  1
  Te  Te176  1  0.90538998  0.43181025  0.92279830  1
  Te  Te177  1  0.88164624  0.76849140  0.26530325  1
  Te  Te178  1  0.94990044  0.78410606  0.56884642  1
  Te  Te179  1  0.90882079  0.75445644  0.91867872  1
