# generated using pymatgen
data_In2Te3
_symmetry_space_group_name_H-M   'P 1'
_cell_length_a   18.86849662
_cell_length_b   18.88831011
_cell_length_c   18.87495768
_cell_angle_alpha   89.77155467
_cell_angle_beta   89.94471720
_cell_angle_gamma   89.97143668
_symmetry_Int_Tables_number   1
_chemical_formula_structural   In2Te3
_chemical_formula_sum   'In72 Te108'
_cell_volume   6726.86453606
_cell_formula_units_Z   36
loop_
 _symmetry_equiv_pos_site_id
 _symmetry_equiv_pos_as_xyz
  1  'x, y, z'
loop_
 _atom_site_type_symbol
 _atom_site_label
 _atom_site_symmetry_multiplicity
 _atom_site_fract_x
 _atom_site_fract_y
 _atom_site_fract_z
 _atom_site_occupancy
  In  In0  1  0.17475732  0.33059591  0.82181250  1
  In  In1  1  0.49403001  0.17001932  0.66919237  1
  In  In2  1  0.34558649  0.49765451  0.16098870  1
  In  In3  1  0.83828003  0.66645794  0.13815286  1
  In  In4  1  0.32245202  0.18495166  0.84672729  1
  In  In5  1  -0.03071179  0.17635658  0.16776727  1
  In  In6  1  0.18295772  0.66718613  0.51960793  1
  In  In7  1  0.51925102  0.81801543  0.01767689  1
  In  In8  1  0.36482822  0.30608143  0.31023687  1
  In  In9  1  0.83959233  0.14965518  0.65854893  1
  In  In10  1  0.17984580  0.84168937  0.35099823  1
  In  In11  1  0.84770961  -0.00952299  0.80309909  1
  In  In12  1  0.66307242  0.38834275  -0.03989347  1
  In  In13  1  0.80179353  0.69050215  0.50920847  1
  In  In14  1  0.83173798  0.15041201  0.34629627  1
  In  In15  1  0.52196423  -0.02360634  0.81705909  1
  In  In16  1  0.35149846  0.79367691  0.81340557  1
  In  In17  1  0.83680902  -0.02278937  0.49886990  1
  In  In18  1  0.68372745  0.80532448  0.82761473  1
  In  In19  1  0.67829992  0.16874318  0.82520141  1
  In  In20  1  0.14389363  0.53614029  -0.04590872  1
  In  In21  1  -0.00361643  0.53396110  0.12758660  1
  In  In22  1  0.17381478  0.19627176  0.00023514  1
  In  In23  1  0.31994087  0.00045763  0.66229948  1
  In  In24  1  -0.01420421  0.48677016  0.51340343  1
  In  In25  1  0.67113851  0.84528382  0.18105553  1
  In  In26  1  0.34368851  0.81767938  0.52715113  1
  In  In27  1  0.66107344  0.35157283  0.67933747  1
  In  In28  1  0.15441706  0.31455661  0.51640349  1
  In  In29  1  0.51454293  -0.02654105  0.48636163  1
  In  In30  1  0.33546408  0.15908300  0.49921669  1
  In  In31  1  0.51409238  0.67266250  0.51499102  1
  In  In32  1  0.32098876  0.33026162  0.66907828  1
  In  In33  1  -0.02548689  0.34681820  0.68114625  1
  In  In34  1  0.17380370  0.52466537  0.70508701  1
  In  In35  1  0.82755556  0.83064826  0.65747666  1
  In  In36  1  0.81561791  0.32787275  0.15253350  1
  In  In37  1  0.17339984  0.50325424  0.36876607  1
  In  In38  1  0.34177292  -0.00377887  0.32375104  1
  In  In39  1  0.15190931  0.11869789  0.38966716  1
  In  In40  1  0.00332090  0.84792666  0.50311196  1
  In  In41  1  -0.04497649  0.69720417  0.74851619  1
  In  In42  1  0.66735221  0.49870234  0.16992674  1
  In  In43  1  0.50734659  0.68089059  0.16387756  1
  In  In44  1  0.17449538  0.00331389  0.17865074  1
  In  In45  1  0.82893748  -0.00058610  0.17867198  1
  In  In46  1  0.83220521  0.17445466  0.00614324  1
  In  In47  1  0.50463840  0.17368582  0.01881811  1
  In  In48  1  0.15687117  0.35972609  0.15675239  1
  In  In49  1  0.81248999  0.49929518  0.32797271  1
  In  In50  1  0.83938629  0.32155377  0.49911769  1
  In  In51  1  0.50788480  0.50028056  0.32294866  1
  In  In52  1  0.61819575  0.18973098  0.18983972  1
  In  In53  1  0.68263040  0.51162654  0.52851175  1
  In  In54  1  -0.03809111  0.32149908  0.31438549  1
  In  In55  1  0.17962887  0.67183111  0.15490969  1
  In  In56  1  0.34355620  0.86083094  0.15547052  1
  In  In57  1  0.50508020  0.01040784  0.18929498  1
  In  In58  1  0.36709684  0.53472648  0.83094898  1
  In  In59  1  0.15069412  -0.01392035  0.84511859  1
  In  In60  1  0.34146626  0.50607839  0.50154841  1
  In  In61  1  0.62829607  0.18832024  0.48434207  1
  In  In62  1  0.34485975  -0.02252396  0.01831215  1
  In  In63  1  -0.01263769  0.66441935  0.31678158  1
  In  In64  1  0.68438163  0.64839929  -0.00798414  1
  In  In65  1  0.15582400  0.80457089  -0.04523825  1
  In  In66  1  0.51068487  0.51097613  0.66474163  1
  In  In67  1  -0.00384627  0.15639158  0.80983686  1
  In  In68  1  0.01443399  -0.01441608  0.00524117  1
  In  In69  1  0.00344037  0.81806486  0.17049951  1
  In  In70  1  0.70332893  -0.00895453  -0.02678438  1
  In  In71  1  0.34786894  0.36182976  0.00595786  1
  Te  Te72  1  0.08201927  0.09676636  0.08686234  1
  Te  Te73  1  0.05759517  0.02277947  0.46073081  1
  Te  Te74  1  0.08053215  0.06007997  0.73969666  1
  Te  Te75  1  0.07635570  0.43135261  0.04842943  1
  Te  Te76  1  0.06206653  0.40477046  0.40848730  1
  Te  Te77  1  0.07013266  0.42971143  0.76916110  1
  Te  Te78  1  0.07201826  0.73262820  0.06713406  1
  Te  Te79  1  0.08879948  0.73059441  0.40935232  1
  Te  Te80  1  0.09989825  0.73274443  0.74296847  1
  Te  Te81  1  0.40550901  0.08902100  0.10145130  1
  Te  Te82  1  0.43200280  0.08048324  0.41262208  1
  Te  Te83  1  0.41227478  0.08400715  0.76846778  1
  Te  Te84  1  0.44255795  0.39927279  0.11200528  1
  Te  Te85  1  0.41481781  0.41260862  0.40922491  1
  Te  Te86  1  0.41595795  0.41607986  0.74756980  1
  Te  Te87  1  0.39966349  0.74322314  0.07440584  1
  Te  Te88  1  0.42865745  0.75409638  0.42608902  1
  Te  Te89  1  0.45774245  0.74185895  0.72398650  1
  Te  Te90  1  0.74040385  0.08852930  0.09003486  1
  Te  Te91  1  0.73978981  0.08997397  0.44898454  1
  Te  Te92  1  0.73510755  0.06363264  0.73175800  1
  Te  Te93  1  0.76344922  0.44034060  0.06699239  1
  Te  Te94  1  0.73989552  0.40653066  0.42221036  1
  Te  Te95  1  0.72584288  0.44530925  0.77471525  1
  Te  Te96  1  0.74314853  0.76568550  0.07156087  1
  Te  Te97  1  0.70092786  0.74571615  0.41863295  1
  Te  Te98  1  0.78701077  0.72329558  0.75557599  1
  Te  Te99  1  0.07858588  0.25619063  0.24055944  1
  Te  Te100  1  0.05691635  0.25010537  0.60436506  1
  Te  Te101  1  0.07214776  0.25354603  0.90451848  1
  Te  Te102  1  0.09355503  0.57519198  0.24760718  1
  Te  Te103  1  0.08356612  0.57391602  0.59018053  1
  Te  Te104  1  0.07603777  0.64575299  0.86591680  1
  Te  Te105  1  0.08065520  0.91520883  0.25999973  1
  Te  Te106  1  0.12203908  0.92000636  0.55135131  1
  Te  Te107  1  0.04282271  0.88784457  0.89279020  1
  Te  Te108  1  0.47783265  0.22824157  0.24921802  1
  Te  Te109  1  0.41847975  0.26234638  0.57445742  1
  Te  Te110  1  0.42770571  0.26396436  0.91929053  1
  Te  Te111  1  0.41378130  0.59738806  0.25245046  1
  Te  Te112  1  0.40159252  0.59885817  0.60002082  1
  Te  Te113  1  0.44889932  0.54725243  0.95177793  1
  Te  Te114  1  0.44138677  0.89617394  0.26760815  1
  Te  Te115  1  0.43219085  0.91733298  0.60308293  1
  Te  Te116  1  0.42788677  0.90240741  0.91384192  1
  Te  Te117  1  0.74909814  0.24451340  0.25789064  1
  Te  Te118  1  0.73624870  0.24890815  0.59075510  1
  Te  Te119  1  0.75063797  0.26522029  0.91593628  1
  Te  Te120  1  0.74417883  0.60574689  0.24466163  1
  Te  Te121  1  0.75140612  0.60437807  0.61932235  1
  Te  Te122  1  0.73674855  0.55807512  0.88477832  1
  Te  Te123  1  0.73217848  0.94191382  0.27682369  1
  Te  Te124  1  0.72752872  0.89690495  0.56724204  1
  Te  Te125  1  0.79042995  0.89062339  0.90300421  1
  Te  Te126  1  0.26361640  0.26672011  0.09742817  1
  Te  Te127  1  0.25039076  0.25713369  0.41340156  1
  Te  Te128  1  0.23131188  0.22341876  0.73076748  1
  Te  Te129  1  0.24533654  0.56656942  0.06858709  1
  Te  Te130  1  0.27361600  0.60866801  0.41040539  1
  Te  Te131  1  0.26651708  0.62350558  0.76587830  1
  Te  Te132  1  0.21395354  0.90296923  0.06927310  1
  Te  Te133  1  0.26906667  0.92702630  0.43714446  1
  Te  Te134  1  0.25895496  0.90964056  0.76903276  1
  Te  Te135  1  0.60730494  0.27593268  0.06044656  1
  Te  Te136  1  0.55322569  0.26195906  0.38170946  1
  Te  Te137  1  0.57248369  0.25966326  0.76373520  1
  Te  Te138  1  0.57581465  0.57732468  0.07651887  1
  Te  Te139  1  0.59364274  0.57853919  0.42350383  1
  Te  Te140  1  0.56721908  0.62756730  0.73809841  1
  Te  Te141  1  0.58683487  0.93858859  0.07733202  1
  Te  Te142  1  0.62384202  0.87833852  0.44820227  1
  Te  Te143  1  0.60932338  0.89438273  0.73304063  1
  Te  Te144  1  0.92804604  0.27861258  0.06190223  1
  Te  Te145  1  0.93534450  0.22613615  0.43062582  1
  Te  Te146  1  0.88612395  0.25117744  0.76212745  1
  Te  Te147  1  0.91123883  0.60009803  0.02257675  1
  Te  Te148  1  0.90644449  0.58050779  0.41869366  1
  Te  Te149  1  0.93623331  0.54560380  0.76590589  1
  Te  Te150  1  0.91173190  0.90906744  0.08677822  1
  Te  Te151  1  0.90318352  0.88676319  0.40345359  1
  Te  Te152  1  0.93445776  0.92100915  0.70670847  1
  Te  Te153  1  0.24883567  0.10094261  0.26431721  1
  Te  Te154  1  0.23396778  0.08772280  0.57979497  1
  Te  Te155  1  0.24769075  0.08028441  0.93121416  1
  Te  Te156  1  0.25011356  0.42171546  0.26394064  1
  Te  Te157  1  0.23220262  0.42647121  0.58617048  1
  Te  Te158  1  0.25340423  0.42997915  0.90413341  1
  Te  Te159  1  0.25880331  0.76511720  0.24394911  1
  Te  Te160  1  0.22816011  0.77277736  0.61236713  1
  Te  Te161  1  0.27784654  0.72668577  0.92364280  1
  Te  Te162  1  0.61396734  0.06478682  0.27366443  1
  Te  Te163  1  0.57712332  0.08051006  0.58210009  1
  Te  Te164  1  0.58246570  0.08266333  0.91630220  1
  Te  Te165  1  0.59661534  0.40233811  0.25663182  1
  Te  Te166  1  0.57393621  0.41041874  0.56917768  1
  Te  Te167  1  0.55710856  0.46421224  0.88713099  1
  Te  Te168  1  0.59242840  0.75025191  0.26235725  1
  Te  Te169  1  0.58498422  0.74044870  0.62912758  1
  Te  Te170  1  0.57838902  0.73033186  0.91142132  1
  Te  Te171  1  0.93337992  0.06796004  0.26747530  1
  Te  Te172  1  0.93064014  0.06349154  0.57874155  1
  Te  Te173  1  0.91533421  0.07771747  0.92280757  1
  Te  Te174  1  0.91644433  0.44050656  0.22856678  1
  Te  Te175  1  0.87511025  0.43007977  0.60070374  1
  Te  Te176  1  0.86019896  0.45791783  0.85894886  1
  Te  Te177  1  0.88846582  0.75959931  0.25273732  1
  Te  Te178  1  0.93150645  0.73717709  0.57863233  1
  Te  Te179  1  0.93210470  0.69944526  0.89965239  1
