# generated using pymatgen
data_In2Te3
_symmetry_space_group_name_H-M   'P 1'
_cell_length_a   18.94834839
_cell_length_b   18.95178725
_cell_length_c   18.94757296
_cell_angle_alpha   89.95188808
_cell_angle_beta   89.92047470
_cell_angle_gamma   90.10464376
_symmetry_Int_Tables_number   1
_chemical_formula_structural   In2Te3
_chemical_formula_sum   'In72 Te108'
_cell_volume   6804.14914709
_cell_formula_units_Z   36
loop_
 _symmetry_equiv_pos_site_id
 _symmetry_equiv_pos_as_xyz
  1  'x, y, z'
loop_
 _atom_site_type_symbol
 _atom_site_label
 _atom_site_symmetry_multiplicity
 _atom_site_fract_x
 _atom_site_fract_y
 _atom_site_fract_z
 _atom_site_occupancy
  In  In0  1  0.48007254  0.47144571  0.66260618  1
  In  In1  1  0.67302173  0.84020670  0.48257732  1
  In  In2  1  0.18425319  0.30410675  0.84475885  1
  In  In3  1  0.79827960  0.00931652  0.83217973  1
  In  In4  1  0.21489420  0.02777278  0.83803095  1
  In  In5  1  0.49397658  0.33179065  0.49437485  1
  In  In6  1  0.34751792  0.03040810  0.69450332  1
  In  In7  1  0.83992603  0.48845422  0.32330635  1
  In  In8  1  0.66869761  0.66358785  0.65533176  1
  In  In9  1  0.16377802  0.82473915  0.32642886  1
  In  In10  1  0.01027263  -0.00934618  0.68009215  1
  In  In11  1  0.51447160  0.88289377  0.65758535  1
  In  In12  1  0.65737881  0.02948889  -0.01055728  1
  In  In13  1  -0.01510197  0.81259964  0.84485334  1
  In  In14  1  0.34283836  0.46863350  0.78846340  1
  In  In15  1  0.67813890  0.00971579  0.34537579  1
  In  In16  1  0.34110251  0.18255627  0.16116542  1
  In  In17  1  0.32554286  0.65965239  0.31151913  1
  In  In18  1  0.34483317  0.50628744  0.16376939  1
  In  In19  1  0.35007213  0.86561234  0.83990118  1
  In  In20  1  0.16365756  0.32462771  0.53053919  1
  In  In21  1  0.31330002  0.50521778  0.48270326  1
  In  In22  1  0.50422699  0.67777946  0.84691937  1
  In  In23  1  0.33235831  0.68264847  0.65866857  1
  In  In24  1  0.82180802  -0.00349789  0.51917703  1
  In  In25  1  0.36277076  0.66224637  0.00260464  1
  In  In26  1  0.77988178  0.49867277  0.01681348  1
  In  In27  1  0.36828191  0.31824786  0.65761036  1
  In  In28  1  0.15689918  0.68947067  0.81822332  1
  In  In29  1  0.65037926  0.49908366  0.84508557  1
  In  In30  1  0.82171358  0.35861410  0.83980339  1
  In  In31  1  -0.02948183  0.64236659  0.00786002  1
  In  In32  1  0.84039022  0.19102150  0.65455496  1
  In  In33  1  0.00701309  0.82707386  0.18120157  1
  In  In34  1  0.14587314  0.65829074  0.18215122  1
  In  In35  1  0.00752246  -0.01218802  0.35623084  1
  In  In36  1  0.18577725  0.16787931  0.34335050  1
  In  In37  1  -0.01610596  0.49459660  0.83153134  1
  In  In38  1  0.14317269  0.50903664  0.34037419  1
  In  In39  1  0.66000495  0.32851877  0.31624756  1
  In  In40  1  0.84861177  0.80959842  0.64788648  1
  In  In41  1  0.16466018  -0.00452292  0.52024394  1
  In  In42  1  0.66573992  0.83452937  0.82762553  1
  In  In43  1  0.16727970  0.48050553  -0.01200158  1
  In  In44  1  0.82980969  0.81701343  0.33391847  1
  In  In45  1  0.18146846  0.84562001  0.00159820  1
  In  In46  1  0.83120490  0.50590358  0.67689656  1
  In  In47  1  -0.01206213  0.15434102  0.18782972  1
  In  In48  1  0.85401430  0.17883888  0.00090098  1
  In  In49  1  0.50675873  0.66577246  0.46579126  1
  In  In50  1  0.13388146  0.53038155  0.64079550  1
  In  In51  1  0.00192859  0.33144309  0.68928942  1
  In  In52  1  0.00549755  -0.03116565  0.00940568  1
  In  In53  1  0.19143127  0.01782802  0.13334499  1
  In  In54  1  0.33959652  0.16418592  0.48916701  1
  In  In55  1  0.83127511  0.32707655  0.49175277  1
  In  In56  1  0.50590347  0.32930642  0.16488175  1
  In  In57  1  -0.00639880  0.65709090  0.34094699  1
  In  In58  1  -0.01147791  0.33327400  0.34059974  1
  In  In59  1  0.52015716  0.50409528  0.01372084  1
  In  In60  1  0.51136065  0.85747016  0.33201498  1
  In  In61  1  0.52000503  0.83542208  -0.00393905  1
  In  In62  1  0.19133523  0.34359608  0.16245388  1
  In  In63  1  0.65830749  0.19369244  0.80562482  1
  In  In64  1  0.51995932  0.49366346  0.30346809  1
  In  In65  1  0.50408376  0.00584116  0.17149703  1
  In  In66  1  0.02773159  0.16062091  0.85922543  1
  In  In67  1  0.68321893  0.67480599  0.32111484  1
  In  In68  1  0.69421436  0.23508759  0.13401727  1
  In  In69  1  0.31102208  0.83567826  0.51139854  1
  In  In70  1  0.49388545  0.16366766  0.31472235  1
  In  In71  1  0.84943650  -0.01136961  0.17390384  1
  Te  Te72  1  0.07115577  0.08804126  0.07465623  1
  Te  Te73  1  0.08681138  0.09356245  0.43079804  1
  Te  Te74  1  0.10373669  0.08878908  0.75214246  1
  Te  Te75  1  0.08692729  0.42350144  0.09556117  1
  Te  Te76  1  0.07996728  0.41126706  0.43587373  1
  Te  Te77  1  0.09889104  0.42867073  0.75609777  1
  Te  Te78  1  0.08368689  0.74878309  0.06891583  1
  Te  Te79  1  0.06159539  0.76607369  0.41232563  1
  Te  Te80  1  0.06673330  0.76517166  0.73195669  1
  Te  Te81  1  0.44065779  0.10707345  0.08048098  1
  Te  Te82  1  0.41288294  0.07521521  0.39940484  1
  Te  Te83  1  0.43846880  0.10788900  0.78583420  1
  Te  Te84  1  0.41255561  0.40792270  0.07351702  1
  Te  Te85  1  0.42217048  0.43402961  0.40522570  1
  Te  Te86  1  0.45873459  0.36382289  0.77995702  1
  Te  Te87  1  0.44361259  0.74724269  0.08738383  1
  Te  Te88  1  0.40076184  0.75695797  0.40636041  1
  Te  Te89  1  0.42662588  0.76473941  0.74867762  1
  Te  Te90  1  0.76873010  0.08459442  0.08743747  1
  Te  Te91  1  0.73622983  0.09307409  0.45074978  1
  Te  Te92  1  0.73991802  0.09393716  0.72357152  1
  Te  Te93  1  0.72741162  0.37634785  0.08467226  1
  Te  Te94  1  0.73802976  0.41726713  0.41075675  1
  Te  Te95  1  0.72367613  0.41383438  0.74107764  1
  Te  Te96  1  0.70227584  0.69860286  0.15058816  1
  Te  Te97  1  0.76633721  0.72939311  0.44051336  1
  Te  Te98  1  0.75703773  0.74065039  0.75051617  1
  Te  Te99  1  0.09680993  0.24902683  0.25132960  1
  Te  Te100  1  0.07286441  0.23647313  0.60338581  1
  Te  Te101  1  0.07044812  0.27867342  0.93279657  1
  Te  Te102  1  0.04885677  0.55622855  0.23220450  1
  Te  Te103  1  0.03452099  0.59033920  0.55120061  1
  Te  Te104  1  0.08629403  0.59227450  0.91341815  1
  Te  Te105  1  0.08974561  0.94217245  0.23440323  1
  Te  Te106  1  0.06756264  0.90190289  0.57843918  1
  Te  Te107  1  0.09787237  0.91981716  0.89918949  1
  Te  Te108  1  0.40494539  0.27541900  0.26304973  1
  Te  Te109  1  0.44952007  0.21067113  0.58511665  1
  Te  Te110  1  0.33494806  0.19690526  0.84772630  1
  Te  Te111  1  0.44195429  0.60166790  0.23059212  1
  Te  Te112  1  0.41477192  0.59090047  0.56614263  1
  Te  Te113  1  0.41678918  0.56477768  0.89936587  1
  Te  Te114  1  0.41187874  0.91837019  0.24522395  1
  Te  Te115  1  0.39629785  0.94036221  0.57875625  1
  Te  Te116  1  0.42456616  0.93728528  0.94250770  1
  Te  Te117  1  0.77004653  0.24674528  0.25963706  1
  Te  Te118  1  0.73503719  0.26011920  0.58188831  1
  Te  Te119  1  0.74988790  0.24943122  0.91726222  1
  Te  Te120  1  0.76127719  0.57981695  0.23153017  1
  Te  Te121  1  0.75094782  0.57547781  0.57425434  1
  Te  Te122  1  0.76206937  0.57902556  0.89536276  1
  Te  Te123  1  0.74439532  0.90933886  0.25154546  1
  Te  Te124  1  0.73673076  0.90328197  0.60476271  1
  Te  Te125  1  0.74369628  0.91199306  0.93371827  1
  Te  Te126  1  0.24545814  0.24448854  0.06543043  1
  Te  Te127  1  0.25899951  0.27455542  0.42299645  1
  Te  Te128  1  0.24947275  0.24824609  0.72264875  1
  Te  Te129  1  0.24420442  0.58691013  0.08103824  1
  Te  Te130  1  0.22669333  0.61060770  0.41674560  1
  Te  Te131  1  0.24984918  0.58898799  0.74871477  1
  Te  Te132  1  0.28576692  0.93224150  0.05855295  1
  Te  Te133  1  0.24244775  0.92426385  0.40855604  1
  Te  Te134  1  0.25082168  0.91639548  0.73990644  1
  Te  Te135  1  0.55864840  0.22276711  0.07543443  1
  Te  Te136  1  0.58310414  0.23973642  0.41211461  1
  Te  Te137  1  0.54953015  0.25131560  0.72242325  1
  Te  Te138  1  0.61429092  0.60512199  0.06143760  1
  Te  Te139  1  0.60350738  0.57000266  0.40445996  1
  Te  Te140  1  0.56333470  0.58515596  0.73660200  1
  Te  Te141  1  0.60334632  0.92563550  0.08712736  1
  Te  Te142  1  0.57332877  0.94517295  0.43736309  1
  Te  Te143  1  0.57141358  0.94475569  0.78599977  1
  Te  Te144  1  0.92979609  0.25629777  0.09913843  1
  Te  Te145  1  0.93283712  0.23730902  0.43523108  1
  Te  Te146  1  0.91435174  0.24399247  0.78234481  1
  Te  Te147  1  0.88405572  0.56666351  0.10011323  1
  Te  Te148  1  0.92258993  0.55778737  0.42611459  1
  Te  Te149  1  0.93199909  0.59871885  0.73940869  1
  Te  Te150  1  0.90362471  0.88169909  0.08074980  1
  Te  Te151  1  0.90701459  0.90350269  0.43249751  1
  Te  Te152  1  0.89695800  0.91652921  0.75704154  1
  Te  Te153  1  0.26683079  0.08189330  0.24866847  1
  Te  Te154  1  0.25231016  0.09565917  0.59264162  1
  Te  Te155  1  0.24617388  0.12006992  0.94830476  1
  Te  Te156  1  0.25501432  0.43756240  0.26461321  1
  Te  Te157  1  0.25860628  0.42515646  0.59806882  1
  Te  Te158  1  0.27412061  0.40582932  0.91224648  1
  Te  Te159  1  0.25252549  0.75988554  0.22181542  1
  Te  Te160  1  0.22354835  0.74157215  0.58148487  1
  Te  Te161  1  0.26813691  0.74683211  0.91237700  1
  Te  Te162  1  0.60769431  0.09434578  0.24169849  1
  Te  Te163  1  0.56335873  0.02152623  0.65522139  1
  Te  Te164  1  0.57247191  0.10868467  0.89621410  1
  Te  Te165  1  0.61505382  0.42967105  0.20423983  1
  Te  Te166  1  0.58169913  0.41756105  0.57382155  1
  Te  Te167  1  0.58877052  0.40090411  0.93548580  1
  Te  Te168  1  0.58572327  0.76080322  0.24703349  1
  Te  Te169  1  0.56943493  0.75672974  0.57087054  1
  Te  Te170  1  0.61728540  0.72926748  0.93059340  1
  Te  Te171  1  0.90357633  0.07485530  0.28644702  1
  Te  Te172  1  0.92507408  0.08128765  0.59173174  1
  Te  Te173  1  0.91713801  0.05962169  0.91626331  1
  Te  Te174  1  0.88724828  0.37463833  0.23995398  1
  Te  Te175  1  0.91487292  0.40878631  0.59524304  1
  Te  Te176  1  0.90860682  0.42676441  0.94060725  1
  Te  Te177  1  0.90736231  0.72984089  0.23770027  1
  Te  Te178  1  0.93099320  0.69441509  0.60436614  1
  Te  Te179  1  0.89131739  0.73310291  0.92422204  1
