# generated using pymatgen
data_In2Te3
_symmetry_space_group_name_H-M   'P 1'
_cell_length_a   18.76874532
_cell_length_b   18.76429617
_cell_length_c   18.76436252
_cell_angle_alpha   90.08065464
_cell_angle_beta   89.87458376
_cell_angle_gamma   90.07771748
_symmetry_Int_Tables_number   1
_chemical_formula_structural   In2Te3
_chemical_formula_sum   'In72 Te108'
_cell_volume   6608.44784558
_cell_formula_units_Z   36
loop_
 _symmetry_equiv_pos_site_id
 _symmetry_equiv_pos_as_xyz
  1  'x, y, z'
loop_
 _atom_site_type_symbol
 _atom_site_label
 _atom_site_symmetry_multiplicity
 _atom_site_fract_x
 _atom_site_fract_y
 _atom_site_fract_z
 _atom_site_occupancy
  In  In0  1  0.84430674  0.18225787  0.33310187  1
  In  In1  1  0.17703529  0.32516420  0.48452196  1
  In  In2  1  0.67270983  0.18262352  0.15859375  1
  In  In3  1  0.81584850  0.65875766  0.50836614  1
  In  In4  1  0.83446397  -0.00515914  0.83374042  1
  In  In5  1  0.69134351  0.36695267  0.00980381  1
  In  In6  1  0.49351578  0.15694723  0.34093848  1
  In  In7  1  0.17773365  0.65072193  0.51470363  1
  In  In8  1  0.02626179  0.19191562  0.84757238  1
  In  In9  1  -0.01505534  0.79792925  0.83131972  1
  In  In10  1  0.50630029  0.34457338  0.15496287  1
  In  In11  1  0.34156345  -0.01818834  0.66080979  1
  In  In12  1  0.16668972  0.18628359  -0.02821559  1
  In  In13  1  0.32037658  0.50161290  0.86245743  1
  In  In14  1  0.34798847  0.00359788  0.33338291  1
  In  In15  1  0.65508531  0.84553519  0.49811602  1
  In  In16  1  0.30234090  0.52409996  0.13637655  1
  In  In17  1  0.68148367  0.64204886  0.68913022  1
  In  In18  1  0.31257497  0.77862315  0.15960535  1
  In  In19  1  0.18951206  -0.01475599  0.50731103  1
  In  In20  1  -0.00352806  0.17447454  0.50585388  1
  In  In21  1  0.01087098  0.81201680  0.49475107  1
  In  In22  1  0.64816140  0.00331419  -0.00120499  1
  In  In23  1  0.01786659  0.00347692  0.31282547  1
  In  In24  1  0.49426557  0.49599044  -0.01621846  1
  In  In25  1  0.00649490  0.66397502  0.31638152  1
  In  In26  1  0.49152726  0.67323413  0.50559237  1
  In  In27  1  -0.02117896  0.38036235  0.68012150  1
  In  In28  1  0.15792053  -0.02845901  0.15714818  1
  In  In29  1  0.48019488  0.83311869  0.68620839  1
  In  In30  1  0.49053361  0.20312232  0.65701704  1
  In  In31  1  0.84031467  0.50110545  0.31780536  1
  In  In32  1  -0.00825914  0.80385607  0.12863464  1
  In  In33  1  -0.01235753  0.34554483  0.32979555  1
  In  In34  1  0.81454476  0.17520805  0.66477665  1
  In  In35  1  0.84649219  0.81820245  -0.00168376  1
  In  In36  1  0.67555315  0.18939693  0.51730756  1
  In  In37  1  0.69123019  0.64591369  0.30664501  1
  In  In38  1  0.16487749  0.50020805  0.68123358  1
  In  In39  1  0.33693831  0.81346455  0.84094781  1
  In  In40  1  0.19041899  0.19682354  0.35095682  1
  In  In41  1  0.13895002  0.34957128  0.13625805  1
  In  In42  1  0.66884822  0.65149541  -0.02861169  1
  In  In43  1  0.50457775  -0.01449169  0.83737450  1
  In  In44  1  0.34276237  0.18800189  0.84001119  1
  In  In45  1  0.14100964  0.80471964  0.66465314  1
  In  In46  1  0.33525466  0.15152905  0.15438045  1
  In  In47  1  -0.01703252  0.62219075  0.70751428  1
  In  In48  1  0.17355772  0.18479555  0.69678281  1
  In  In49  1  0.49712281  -0.00155295  0.14890319  1
  In  In50  1  0.65500770  0.50641427  0.51584419  1
  In  In51  1  0.82710069  0.19418694  0.00661009  1
  In  In52  1  0.17250467  0.01268191  0.83722891  1
  In  In53  1  0.50430369  0.32787826  0.83050745  1
  In  In54  1  0.81682773  0.80481063  0.68795072  1
  In  In55  1  0.50159927  0.83772685  0.34476392  1
  In  In56  1  0.84266034  0.35858088  0.85476600  1
  In  In57  1  0.48156579  0.49121780  0.31656636  1
  In  In58  1  0.82725466  0.02054029  0.48457537  1
  In  In59  1  0.65371052  -0.00133257  0.67473773  1
  In  In60  1  0.49563014  0.66454957  0.14872628  1
  In  In61  1  0.51241776  0.49549133  0.67634469  1
  In  In62  1  -0.00080029  -0.01041524  0.00872444  1
  In  In63  1  0.84671747  0.83686027  0.30196982  1
  In  In64  1  0.67004308  0.32097112  0.32932675  1
  In  In65  1  0.17338993  0.81953505  0.00677374  1
  In  In66  1  -0.02377237  0.18391570  0.15036433  1
  In  In67  1  0.68180398  0.84106952  0.15547922  1
  In  In68  1  0.34773995  0.36143169  0.34945200  1
  In  In69  1  0.15227803  0.49937481  0.32180654  1
  In  In70  1  0.32292290  0.49225322  0.50873290  1
  In  In71  1  0.32274542  0.83538592  0.49510244  1
  Te  Te72  1  0.08836711  0.09409711  0.07904240  1
  Te  Te73  1  0.09054803  0.08494042  0.42229045  1
  Te  Te74  1  0.07043465  0.08173073  0.74810339  1
  Te  Te75  1  0.10721269  0.47970260  0.06979673  1
  Te  Te76  1  0.07374681  0.42425375  0.42942250  1
  Te  Te77  1  0.07260573  0.43410195  0.78003772  1
  Te  Te78  1  0.10912208  0.71548696  0.09558625  1
  Te  Te79  1  0.11154261  0.73906366  0.40481766  1
  Te  Te80  1  0.09391309  0.70792271  0.77305364  1
  Te  Te81  1  0.43442191  0.09812102  0.05952529  1
  Te  Te82  1  0.41796141  0.07614171  0.44039025  1
  Te  Te83  1  0.41614646  0.08288329  0.74795887  1
  Te  Te84  1  0.39833743  0.41950558  0.07638057  1
  Te  Te85  1  0.44697821  0.42342674  0.44832550  1
  Te  Te86  1  0.40767617  0.42092599  0.75864850  1
  Te  Te87  1  0.41102247  0.74086030  0.05532324  1
  Te  Te88  1  0.39979217  0.73863153  0.40288276  1
  Te  Te89  1  0.42505708  0.72069943  0.76347780  1
  Te  Te90  1  0.75505256  0.08051523  0.07948824  1
  Te  Te91  1  0.73235978  0.10315154  0.40085679  1
  Te  Te92  1  0.73610046  0.08996971  0.76577150  1
  Te  Te93  1  0.77662333  0.43683567  0.10792993  1
  Te  Te94  1  0.74065262  0.42986999  0.41061025  1
  Te  Te95  1  0.75598179  0.45168117  0.77478769  1
  Te  Te96  1  0.75136594  0.73006974  0.07911475  1
  Te  Te97  1  0.75242781  0.75522059  0.40853554  1
  Te  Te98  1  0.74943735  0.72842509  0.79847674  1
  Te  Te99  1  0.08034621  0.24649815  0.25299666  1
  Te  Te100  1  0.08117324  0.26326791  0.59710194  1
  Te  Te101  1  0.08428100  0.30482109  0.92865529  1
  Te  Te102  1  0.06960478  0.56784058  0.21884355  1
  Te  Te103  1  0.06815583  0.57436261  0.58468587  1
  Te  Te104  1  0.05373017  0.54822968  0.93727467  1
  Te  Te105  1  0.07264850  0.88032982  0.24324288  1
  Te  Te106  1  0.07570477  0.91892783  0.58548798  1
  Te  Te107  1  0.08003185  0.90351260  0.91100338  1
  Te  Te108  1  0.41578810  0.25752342  0.24681797  1
  Te  Te109  1  0.38145879  0.26636435  0.58573917  1
  Te  Te110  1  0.42173151  0.26527578  0.93781088  1
  Te  Te111  1  0.39585192  0.59057978  0.23971022  1
  Te  Te112  1  0.40911284  0.58388610  0.59586391  1
  Te  Te113  1  0.41813319  0.60364179  0.91769785  1
  Te  Te114  1  0.41208737  0.90295143  0.23584919  1
  Te  Te115  1  0.43761656  0.91200490  0.56345805  1
  Te  Te116  1  0.41200465  0.90971138  0.92413590  1
  Te  Te117  1  0.77550743  0.27082277  0.22898995  1
  Te  Te118  1  0.75706093  0.29036039  0.59123122  1
  Te  Te119  1  0.73746168  0.25755487  0.90387545  1
  Te  Te120  1  0.76228640  0.56314578  0.20111564  1
  Te  Te121  1  0.78186166  0.54524361  0.60483767  1
  Te  Te122  1  0.75578114  0.55348170  0.89433456  1
  Te  Te123  1  0.73497092  0.92483052  0.26500168  1
  Te  Te124  1  0.76344053  0.91793686  0.58892004  1
  Te  Te125  1  0.74909724  0.90960576  0.92481731  1
  Te  Te126  1  0.24846454  0.25709385  0.08242884  1
  Te  Te127  1  0.30646621  0.24258206  0.44691944  1
  Te  Te128  1  0.24108321  0.28703721  0.78497184  1
  Te  Te129  1  0.23159884  0.61400409  0.03954106  1
  Te  Te130  1  0.25626868  0.57834818  0.40307582  1
  Te  Te131  1  0.24831905  0.58985580  0.76441646  1
  Te  Te132  1  0.27021303  0.91301836  0.07792284  1
  Te  Te133  1  0.23977786  0.90686338  0.38712537  1
  Te  Te134  1  0.23812917  0.90543655  0.74681121  1
  Te  Te135  1  0.58548332  0.25685960  0.06022582  1
  Te  Te136  1  0.56971999  0.25889308  0.42601575  1
  Te  Te137  1  0.60025112  0.26453435  0.73388456  1
  Te  Te138  1  0.58990026  0.56961515  0.07804256  1
  Te  Te139  1  0.58275914  0.59466241  0.40606284  1
  Te  Te140  1  0.57277411  0.58930444  0.77485993  1
  Te  Te141  1  0.56849440  0.88997113  0.06641288  1
  Te  Te142  1  0.58688021  0.94044701  0.40872449  1
  Te  Te143  1  0.60242731  0.88483190  0.76360017  1
  Te  Te144  1  0.93507104  0.28609414  0.05220688  1
  Te  Te145  1  0.90331089  0.27440154  0.43853388  1
  Te  Te146  1  0.91606993  0.25267135  0.75820948  1
  Te  Te147  1  0.93723640  0.58194366  0.03483979  1
  Te  Te148  1  0.91865949  0.58865396  0.41751873  1
  Te  Te149  1  0.87883036  0.55666975  0.79193531  1
  Te  Te150  1  0.89768074  0.92367407  0.09912822  1
  Te  Te151  1  0.92307948  0.91604509  0.41920530  1
  Te  Te152  1  0.92201363  0.90633708  0.74506070  1
  Te  Te153  1  0.23627150  0.07970488  0.24890908  1
  Te  Te154  1  0.25029154  0.08912205  0.60008244  1
  Te  Te155  1  0.26941392  0.07963269  0.92888377  1
  Te  Te156  1  0.24732044  0.40574187  0.24171767  1
  Te  Te157  1  0.24986133  0.39740335  0.60207023  1
  Te  Te158  1  0.22771452  0.39076437  0.90422868  1
  Te  Te159  1  0.21734419  0.75537743  0.26645686  1
  Te  Te160  1  0.26509437  0.74184330  0.60199938  1
  Te  Te161  1  0.24239870  0.71939623  0.91698893  1
  Te  Te162  1  0.58393688  0.08656580  0.23952716  1
  Te  Te163  1  0.57790679  0.09129390  0.58392744  1
  Te  Te164  1  0.58334070  0.09264929  0.90186336  1
  Te  Te165  1  0.59856606  0.42730449  0.24273189  1
  Te  Te166  1  0.60148028  0.39863679  0.60484651  1
  Te  Te167  1  0.60092864  0.42602616  0.90103016  1
  Te  Te168  1  0.58784899  0.74645664  0.24912534  1
  Te  Te169  1  0.59800578  0.73993885  0.59433450  1
  Te  Te170  1  0.61342619  0.75462574  0.88126429  1
  Te  Te171  1  0.90787927  0.07792500  0.23943424  1
  Te  Te172  1  0.91442089  0.08118355  0.59516244  1
  Te  Te173  1  0.92339657  0.08925138  0.92019879  1
  Te  Te174  1  0.92570534  0.42470604  0.22042110  1
  Te  Te175  1  0.89445155  0.43703763  0.57704670  1
  Te  Te176  1  0.92008958  0.45185366  0.94684765  1
  Te  Te177  1  0.89954417  0.72002895  0.22187727  1
  Te  Te178  1  0.92292942  0.73502835  0.59593491  1
  Te  Te179  1  0.93399035  0.70776153  0.94016151  1
