# generated using pymatgen
data_In2Te3
_symmetry_space_group_name_H-M   'P 1'
_cell_length_a   18.98720049
_cell_length_b   19.01831259
_cell_length_c   18.97440255
_cell_angle_alpha   90.21707911
_cell_angle_beta   90.14315685
_cell_angle_gamma   89.95721190
_symmetry_Int_Tables_number   1
_chemical_formula_structural   In2Te3
_chemical_formula_sum   'In72 Te108'
_cell_volume   6851.66998501
_cell_formula_units_Z   36
loop_
 _symmetry_equiv_pos_site_id
 _symmetry_equiv_pos_as_xyz
  1  'x, y, z'
loop_
 _atom_site_type_symbol
 _atom_site_label
 _atom_site_symmetry_multiplicity
 _atom_site_fract_x
 _atom_site_fract_y
 _atom_site_fract_z
 _atom_site_occupancy
  In  In0  1  0.31902748  0.64210097  0.00187258  1
  In  In1  1  0.84450548  -0.01919350  0.15545324  1
  In  In2  1  0.51831803  0.53169505  0.35798268  1
  In  In3  1  0.00325434  0.50284877  0.16784986  1
  In  In4  1  0.66731397  0.51283501  0.80932742  1
  In  In5  1  0.81615789  0.16688640  0.66790420  1
  In  In6  1  0.67956997  0.00396572  0.32562638  1
  In  In7  1  0.33427210  -0.00870746  0.68041063  1
  In  In8  1  0.49953522  0.00081442  0.20795076  1
  In  In9  1  0.30635079  0.17907120  0.82728282  1
  In  In10  1  0.35105348  0.36703978  0.35565535  1
  In  In11  1  0.17587826  0.66734191  0.16507850  1
  In  In12  1  0.82819300  0.68366238  0.18352801  1
  In  In13  1  0.00816658  0.66855790  -0.00708655  1
  In  In14  1  0.66176763  0.36251406  0.00850620  1
  In  In15  1  0.31012102  0.15100166  0.50069726  1
  In  In16  1  0.02986334  0.34292773  0.32609418  1
  In  In17  1  0.84221350  0.36349662  0.47341114  1
  In  In18  1  0.17108160  0.33356162  0.15619575  1
  In  In19  1  0.15884847  0.01196222  0.17014275  1
  In  In20  1  0.00199763  0.49898256  0.82548108  1
  In  In21  1  0.32580334  0.50255165  0.83957593  1
  In  In22  1  0.82145293  0.50190179  0.67115480  1
  In  In23  1  0.15112600  0.68853192  0.80523520  1
  In  In24  1  0.15218592  0.50016223  0.66052584  1
  In  In25  1  0.85008834  0.34667274  0.84598437  1
  In  In26  1  -0.01728451  0.15144745  0.14340906  1
  In  In27  1  0.84625850  0.31697051  0.16484948  1
  In  In28  1  0.32846298  -0.01927269  0.37169221  1
  In  In29  1  0.01648487  -0.00675338  -0.07348673  1
  In  In30  1  0.82492690  0.64437936  0.49625618  1
  In  In31  1  0.19042681  0.52062798  0.36420124  1
  In  In32  1  0.68232583  -0.03623554  0.68351774  1
  In  In33  1  0.85353636  -0.00864490  0.80999962  1
  In  In34  1  0.18918176  0.68845457  0.51925312  1
  In  In35  1  -0.00178267  0.68146698  0.36239644  1
  In  In36  1  0.32738886  0.79130819  0.75231671  1
  In  In37  1  0.82763167  0.64838915  0.85424749  1
  In  In38  1  0.62872882  0.19063358  0.83837758  1
  In  In39  1  0.83336582  0.18894586  0.34527605  1
  In  In40  1  0.67083368  0.51705003  0.17633932  1
  In  In41  1  0.85635358  0.81743228  0.01758452  1
  In  In42  1  0.13556949  0.18376535  -0.05736765  1
  In  In43  1  0.15361081  0.12770196  0.33884914  1
  In  In44  1  0.50100426  0.18370295  -0.02553455  1
  In  In45  1  0.31780821  0.34199124  0.69012672  1
  In  In46  1  0.84704177  -0.01771742  0.55020797  1
  In  In47  1  0.48125548  0.48604030  -0.00354549  1
  In  In48  1  0.66769615  0.84551243  0.84741726  1
  In  In49  1  0.61242182  0.65963250  0.60806852  1
  In  In50  1  0.32839628  0.04617232  -0.00302247  1
  In  In51  1  0.16109756  -0.03784114  0.52620561  1
  In  In52  1  0.30939147  0.83036011  0.18468017  1
  In  In53  1  0.66788186  -0.03399423  0.03421223  1
  In  In54  1  0.64676990  0.32249627  0.35288793  1
  In  In55  1  0.00093008  -0.01848438  0.34818557  1
  In  In56  1  0.51565700  -0.00834257  0.82136431  1
  In  In57  1  0.33323402  0.19111058  0.16636494  1
  In  In58  1  0.83711358  0.80235730  0.66102286  1
  In  In59  1  0.51713466  -0.01790594  0.47236418  1
  In  In60  1  0.38085061  0.68128450  0.36916747  1
  In  In61  1  0.50058614  0.66004077  0.18316977  1
  In  In62  1  0.16775402  0.33047619  0.50473095  1
  In  In63  1  0.82690348  0.15876127  0.01600937  1
  In  In64  1  0.49411578  0.33591669  0.77894390  1
  In  In65  1  0.84784461  0.83128585  0.35404942  1
  In  In66  1  0.00803817  0.35065921  0.66972774  1
  In  In67  1  0.48814802  0.15093882  0.62681162  1
  In  In68  1  0.47689785  0.84970747  0.00462945  1
  In  In69  1  0.17666878  0.83905058  -0.02459301  1
  In  In70  1  0.47922868  0.34734023  0.15825049  1
  In  In71  1  0.67869807  0.16116393  0.48986833  1
  Te  Te72  1  0.08762282  0.08367224  0.05829592  1
  Te  Te73  1  0.07261316  0.07010716  0.44863397  1
  Te  Te74  1  0.07672366  0.09252456  0.83027968  1
  Te  Te75  1  0.08637005  0.42170588  0.07720589  1
  Te  Te76  1  0.08552057  0.43574671  0.43213140  1
  Te  Te77  1  0.11522449  0.40534807  0.77940442  1
  Te  Te78  1  0.09524993  0.76046092  0.07744813  1
  Te  Te79  1  0.10313385  0.76647741  0.42516938  1
  Te  Te80  1  0.07840835  0.73270526  0.68350354  1
  Te  Te81  1  0.43522429  0.09542232  0.09351569  1
  Te  Te82  1  0.42166251  0.09035717  0.41762631  1
  Te  Te83  1  0.42532679  0.10197972  0.75734002  1
  Te  Te84  1  0.37774117  0.41250345  0.07222088  1
  Te  Te85  1  0.44728959  0.43388920  0.44198341  1
  Te  Te86  1  0.42157889  0.46173827  0.71982758  1
  Te  Te87  1  0.39673152  0.74300922  0.09355039  1
  Te  Te88  1  0.39564535  0.79566239  0.46832964  1
  Te  Te89  1  0.42022476  0.69740391  0.68278862  1
  Te  Te90  1  0.73780261  0.07969542  0.10860514  1
  Te  Te91  1  0.78390558  0.06519275  0.42866139  1
  Te  Te92  1  0.73231280  0.08203588  0.76540767  1
  Te  Te93  1  0.76590253  0.42649908  0.09564208  1
  Te  Te94  1  0.72565829  0.42837091  0.41486138  1
  Te  Te95  1  0.74595060  0.39688295  0.74839059  1
  Te  Te96  1  0.74477009  0.75387918  0.08424913  1
  Te  Te97  1  0.74656390  0.74074654  0.41214458  1
  Te  Te98  1  0.74721924  0.74412959  0.76682227  1
  Te  Te99  1  0.08259452  0.22692211  0.23786439  1
  Te  Te100  1  0.09038004  0.25002039  0.59915568  1
  Te  Te101  1  0.06906787  0.29340653  0.87544978  1
  Te  Te102  1  0.08787112  0.58521408  0.26510232  1
  Te  Te103  1  0.08153447  0.60216018  0.57913068  1
  Te  Te104  1  0.10082454  0.58776523  0.90626790  1
  Te  Te105  1  0.08216699  0.91458665  0.24568734  1
  Te  Te106  1  0.11566477  0.87547197  0.63601780  1
  Te  Te107  1  0.07211291  0.86579974  0.87505983  1
  Te  Te108  1  0.42030286  0.26180992  0.26875313  1
  Te  Te109  1  0.38725684  0.25262141  0.58241197  1
  Te  Te110  1  0.39869838  0.27238395  0.90660954  1
  Te  Te111  1  0.40806060  0.57173042  0.26060773  1
  Te  Te112  1  0.47504956  0.61768756  0.55892695  1
  Te  Te113  1  0.42706985  0.59516908  0.90660477  1
  Te  Te114  1  0.41068680  0.89737782  0.27495452  1
  Te  Te115  1  0.41162294  0.92885528  0.57001521  1
  Te  Te116  1  0.40365475  0.94242583  0.91069162  1
  Te  Te117  1  0.73870559  0.25233806  0.24859434  1
  Te  Te118  1  0.76628734  0.26225165  0.56224678  1
  Te  Te119  1  0.74000683  0.25177698  0.92933289  1
  Te  Te120  1  0.75738396  0.58907076  0.27079626  1
  Te  Te121  1  0.72281725  0.55927457  0.57264976  1
  Te  Te122  1  0.73092789  0.56991150  0.92873130  1
  Te  Te123  1  0.75995664  0.89926297  0.24770220  1
  Te  Te124  1  0.73759467  0.87858151  0.57264789  1
  Te  Te125  1  0.76987208  0.92734209  0.92667143  1
  Te  Te126  1  0.23451494  0.23298518  0.06206523  1
  Te  Te127  1  0.23679674  0.24075186  0.39792461  1
  Te  Te128  1  0.21787070  0.23994769  0.72679531  1
  Te  Te129  1  0.23181137  0.55958347  0.08376144  1
  Te  Te130  1  0.28867057  0.59125031  0.45322436  1
  Te  Te131  1  0.24549028  0.58730477  0.74195437  1
  Te  Te132  1  0.26088475  0.92791576  0.07626742  1
  Te  Te133  1  0.21267759  0.89581636  0.40417280  1
  Te  Te134  1  0.23245963  0.90608752  0.74831094  1
  Te  Te135  1  0.57844647  0.26028687  0.08244474  1
  Te  Te136  1  0.57094686  0.25399220  0.45773154  1
  Te  Te137  1  0.58938302  0.24053896  0.69878586  1
  Te  Te138  1  0.57351608  0.57923383  0.07790029  1
  Te  Te139  1  0.61283913  0.64534226  0.38273332  1
  Te  Te140  1  0.58205706  0.61437149  0.74578947  1
  Te  Te141  1  0.56702115  0.89524208  0.11973915  1
  Te  Te142  1  0.59488429  0.89569728  0.38121519  1
  Te  Te143  1  0.56447493  0.88133975  0.73210587  1
  Te  Te144  1  0.93482011  0.26323974  0.05494457  1
  Te  Te145  1  0.94348549  0.25805932  0.41969274  1
  Te  Te146  1  0.91671917  0.25653151  0.74560923  1
  Te  Te147  1  0.91641599  0.59847395  0.08841758  1
  Te  Te148  1  0.91276433  0.57145740  0.40233560  1
  Te  Te149  1  0.91690979  0.59326476  0.74407836  1
  Te  Te150  1  0.94486113  0.93149682  0.05744914  1
  Te  Te151  1  0.93643522  0.89908869  0.45730966  1
  Te  Te152  1  0.92559247  0.91358973  0.70889468  1
  Te  Te153  1  0.27329507  0.07454778  0.24959535  1
  Te  Te154  1  0.23206986  0.07345185  0.60316145  1
  Te  Te155  1  0.23003158  0.06072204  0.88465063  1
  Te  Te156  1  0.24389802  0.41920722  0.26382562  1
  Te  Te157  1  0.25752407  0.42683665  0.57892871  1
  Te  Te158  1  0.29477244  0.38763568  0.92274694  1
  Te  Te159  1  0.26091588  0.72328188  0.27710285  1
  Te  Te160  1  0.29289107  0.75957060  0.60402917  1
  Te  Te161  1  0.27159425  0.74680894  0.89936943  1
  Te  Te162  1  0.58502766  0.10070914  0.27036579  1
  Te  Te163  1  0.60520349  0.05546704  0.58232357  1
  Te  Te164  1  0.59053399  0.06084911  0.93576349  1
  Te  Te165  1  0.57367830  0.42506343  0.24942985  1
  Te  Te166  1  0.54794718  0.40465523  0.65965804  1
  Te  Te167  1  0.57049784  0.40793046  0.89614965  1
  Te  Te168  1  0.56834979  0.74646732  0.28092546  1
  Te  Te169  1  0.53583757  0.75310262  0.51095353  1
  Te  Te170  1  0.57032552  0.77017925  0.92554197  1
  Te  Te171  1  0.91291581  0.08189417  0.25814691  1
  Te  Te172  1  0.92734309  0.08569148  0.61640747  1
  Te  Te173  1  0.90798825  0.10237684  0.90314671  1
  Te  Te174  1  0.91628171  0.41459043  0.25715084  1
  Te  Te175  1  0.92397659  0.43770383  0.57979679  1
  Te  Te176  1  0.90987787  0.45016665  0.92803469  1
  Te  Te177  1  0.93705227  0.76524909  0.24984922  1
  Te  Te178  1  0.92499732  0.72109636  0.57574601  1
  Te  Te179  1  0.92714062  0.75658973  0.89816680  1
