# generated using pymatgen
data_In2Te3
_symmetry_space_group_name_H-M   'P 1'
_cell_length_a   18.76787198
_cell_length_b   18.75987547
_cell_length_c   18.76142297
_cell_angle_alpha   89.98707139
_cell_angle_beta   90.05597221
_cell_angle_gamma   89.96856982
_symmetry_Int_Tables_number   1
_chemical_formula_structural   In2Te3
_chemical_formula_sum   'In72 Te108'
_cell_volume   6605.57266509
_cell_formula_units_Z   36
loop_
 _symmetry_equiv_pos_site_id
 _symmetry_equiv_pos_as_xyz
  1  'x, y, z'
loop_
 _atom_site_type_symbol
 _atom_site_label
 _atom_site_symmetry_multiplicity
 _atom_site_fract_x
 _atom_site_fract_y
 _atom_site_fract_z
 _atom_site_occupancy
  In  In0  1  -0.00212362  0.16465010  0.17642171  1
  In  In1  1  0.85312967  0.66461882  0.18496777  1
  In  In2  1  0.84754607  0.15519560  0.63171440  1
  In  In3  1  0.85620527  0.34213926  0.48052497  1
  In  In4  1  0.84615088  0.50732185  0.67965439  1
  In  In5  1  0.46817921  -0.00959491  0.85335488  1
  In  In6  1  0.14807763  0.50176208  0.34054516  1
  In  In7  1  0.15075640  0.71025651  0.83041388  1
  In  In8  1  0.48673383  0.15703277  0.65338462  1
  In  In9  1  0.86759098  0.63689817  0.45982961  1
  In  In10  1  0.48646845  0.01472369  0.48128940  1
  In  In11  1  0.00627286  0.83131615  0.49336175  1
  In  In12  1  0.32865993  0.33056468  0.33273251  1
  In  In13  1  0.66630092  0.46965908  0.50370289  1
  In  In14  1  0.29916004  -0.02983015  0.68705837  1
  In  In15  1  0.32451595  0.82707350  0.17042849  1
  In  In16  1  0.48605121  0.81703613  0.68296380  1
  In  In17  1  0.50162681  0.32385492  0.50443477  1
  In  In18  1  0.17718548  0.31319580  0.83039024  1
  In  In19  1  0.84999287  -0.01073754  0.81186953  1
  In  In20  1  0.01406568  0.35259368  -0.00088240  1
  In  In21  1  0.68024888  0.65685575  0.01904938  1
  In  In22  1  0.33687895  0.51099607  0.16771605  1
  In  In23  1  -0.00307859  0.67551426  0.01403004  1
  In  In24  1  0.67102005  0.33102864  0.63610764  1
  In  In25  1  0.31557617  0.83720884  0.50114400  1
  In  In26  1  0.15834774  0.68144784  0.16564953  1
  In  In27  1  0.86490943  0.83587311  0.02017396  1
  In  In28  1  0.50354095  0.50931695  0.31030250  1
  In  In29  1  0.66046977  -0.01376291  0.64428771  1
  In  In30  1  -0.00407201  0.12665402  0.84437145  1
  In  In31  1  0.31271313  -0.00797186  -0.01474853  1
  In  In32  1  0.15883978  -0.01610581  0.50525484  1
  In  In33  1  0.48052346  0.68224788  0.82576895  1
  In  In34  1  0.84772677  0.34439357  0.84216940  1
  In  In35  1  0.15802209  0.67363422  0.49774135  1
  In  In36  1  0.71045611  0.01447640  0.34824335  1
  In  In37  1  0.47639427  0.84969018  0.01900306  1
  In  In38  1  0.84656973  0.83936323  0.31662948  1
  In  In39  1  0.48321793  0.65306698  0.50366874  1
  In  In40  1  0.16559620  -0.02058676  0.18320184  1
  In  In41  1  -0.00992579  0.50725771  0.83830172  1
  In  In42  1  0.65202618  0.16394491  0.83455202  1
  In  In43  1  0.84146254  0.14446845  -0.00810102  1
  In  In44  1  0.68789160  0.85466719  0.50406237  1
  In  In45  1  0.33389155  0.17877317  0.16164331  1
  In  In46  1  0.68898316  0.00935393  0.02588064  1
  In  In47  1  0.18309242  0.13954379  0.01320182  1
  In  In48  1  0.16350908  0.18245886  0.32654265  1
  In  In49  1  0.15870865  0.50765268  0.64471436  1
  In  In50  1  0.67383716  0.67085658  0.31003136  1
  In  In51  1  -0.02246602  0.16519865  0.50117702  1
  In  In52  1  0.33116705  0.32665616  0.00768434  1
  In  In53  1  0.50424263  -0.00172527  0.17231578  1
  In  In54  1  -0.00226946  -0.00499958  0.30756999  1
  In  In55  1  0.67064291  0.81766865  0.83538608  1
  In  In56  1  0.48698036  0.15984659  0.33070508  1
  In  In57  1  0.49767258  0.82218310  0.31743621  1
  In  In58  1  0.66291139  0.65546810  0.67508513  1
  In  In59  1  0.67846337  0.34124168  0.04216039  1
  In  In60  1  0.50532888  0.20120398  0.00385322  1
  In  In61  1  0.33238193  0.50670466  0.82065820  1
  In  In62  1  0.83813346  0.83147806  0.66688407  1
  In  In63  1  0.46788367  0.34032128  0.84276248  1
  In  In64  1  0.15258157  0.50084325  0.03372599  1
  In  In65  1  0.32278056  0.50805442  0.51302464  1
  In  In66  1  0.85222319  0.35510093  0.18898456  1
  In  In67  1  -0.00611791  0.32922948  0.65077248  1
  In  In68  1  0.66772933  0.52398876  0.85729428  1
  In  In69  1  0.15810577  0.16331847  0.67213169  1
  In  In70  1  0.67482052  0.34384274  0.31878194  1
  In  In71  1  0.50676850  0.51399180  -0.00199041  1
  Te  Te72  1  0.07556740  0.06248738  0.08883761  1
  Te  Te73  1  0.08098068  0.07924083  0.40933701  1
  Te  Te74  1  0.07662435  0.05343038  0.73938058  1
  Te  Te75  1  0.06763735  0.41813731  0.12162605  1
  Te  Te76  1  0.04740342  0.41384935  0.40653431  1
  Te  Te77  1  0.07556004  0.40576084  0.75740571  1
  Te  Te78  1  0.09154348  0.77586780  0.06963461  1
  Te  Te79  1  0.08233474  0.75136721  0.39405151  1
  Te  Te80  1  0.07799442  0.77728166  0.71925886  1
  Te  Te81  1  0.41302359  0.07854612  0.07554053  1
  Te  Te82  1  0.38387603  0.09673727  0.41506070  1
  Te  Te83  1  0.39799444  0.07427304  0.74875363  1
  Te  Te84  1  0.42626999  0.41462260  0.08555622  1
  Te  Te85  1  0.42341341  0.42939525  0.41510319  1
  Te  Te86  1  0.39233644  0.40379354  0.73356339  1
  Te  Te87  1  0.41945109  0.73835204  0.09684350  1
  Te  Te88  1  0.40505549  0.74593039  0.41317000  1
  Te  Te89  1  0.37520000  0.72929020  0.72826470  1
  Te  Te90  1  0.77116770  0.09431854  0.11448978  1
  Te  Te91  1  0.76166035  0.10044625  0.45512632  1
  Te  Te92  1  0.74946836  0.08976779  0.74352577  1
  Te  Te93  1  0.76345225  0.44357667  0.10510562  1
  Te  Te94  1  0.76908029  0.43887974  0.39757129  1
  Te  Te95  1  0.74372355  0.41591986  0.75138467  1
  Te  Te96  1  0.76240461  0.75795293  0.09964133  1
  Te  Te97  1  0.75943684  0.74858587  0.41857632  1
  Te  Te98  1  0.76779981  0.72912040  0.75916822  1
  Te  Te99  1  0.07647118  0.27044038  0.24449503  1
  Te  Te100  1  0.08991354  0.25078953  0.56452314  1
  Te  Te101  1  0.07889943  0.23443616  0.92090942  1
  Te  Te102  1  0.06753613  0.58872566  0.24478781  1
  Te  Te103  1  0.05978103  0.59428037  0.57827835  1
  Te  Te104  1  0.09585669  0.58534236  0.91811955  1
  Te  Te105  1  0.07750638  0.87976031  0.25379891  1
  Te  Te106  1  0.10506236  0.87794890  0.60078103  1
  Te  Te107  1  0.13183742  0.96882115  0.87922924  1
  Te  Te108  1  0.43092351  0.26830414  0.23714010  1
  Te  Te109  1  0.39863191  0.24317014  0.57206046  1
  Te  Te110  1  0.39010621  0.22570692  0.90823007  1
  Te  Te111  1  0.41482681  0.60927074  0.24689955  1
  Te  Te112  1  0.40011885  0.59309722  0.60912859  1
  Te  Te113  1  0.40035193  0.59540308  0.92498677  1
  Te  Te114  1  0.40273956  0.92778674  0.26017626  1
  Te  Te115  1  0.42249701  0.92412821  0.59085314  1
  Te  Te116  1  0.38235696  0.86979297  0.89744283  1
  Te  Te117  1  0.77291344  0.25015185  0.25744641  1
  Te  Te118  1  0.75091071  0.23776824  0.54106829  1
  Te  Te119  1  0.74552562  0.25095172  0.91909503  1
  Te  Te120  1  0.75884215  0.56711766  0.24861854  1
  Te  Te121  1  0.75273925  0.58211982  0.57442173  1
  Te  Te122  1  0.77484727  0.60267850  0.91827772  1
  Te  Te123  1  0.74161254  0.91446937  0.24465532  1
  Te  Te124  1  0.78944779  0.94439482  0.57375698  1
  Te  Te125  1  0.75121906  0.92124263  0.91356732  1
  Te  Te126  1  0.22399715  0.26247976  0.09553924  1
  Te  Te127  1  0.24150551  0.25953294  0.42766034  1
  Te  Te128  1  0.26481240  0.25014179  0.73076833  1
  Te  Te129  1  0.25660501  0.60281574  0.07440199  1
  Te  Te130  1  0.25299135  0.59094894  0.40630582  1
  Te  Te131  1  0.22152966  0.58881759  0.75658344  1
  Te  Te132  1  0.22794386  0.89698989  0.06854398  1
  Te  Te133  1  0.23784372  0.91330224  0.40174330  1
  Te  Te134  1  0.22335223  0.88613419  0.79204445  1
  Te  Te135  1  0.60168159  0.23448444  0.10865910  1
  Te  Te136  1  0.58753637  0.24905661  0.40581413  1
  Te  Te137  1  0.57433703  0.25649656  0.74217101  1
  Te  Te138  1  0.58877467  0.57705819  0.10350183  1
  Te  Te139  1  0.59372559  0.58662719  0.42208379  1
  Te  Te140  1  0.56379471  0.57216613  0.75638179  1
  Te  Te141  1  0.59750352  0.90594662  0.09392558  1
  Te  Te142  1  0.58321947  0.91566736  0.40975923  1
  Te  Te143  1  0.58086325  0.92145155  0.76087035  1
  Te  Te144  1  0.91507201  0.25524991  0.07100976  1
  Te  Te145  1  0.91945410  0.24337600  0.38899260  1
  Te  Te146  1  0.91786376  0.23913686  0.75496589  1
  Te  Te147  1  0.93102248  0.57247115  0.09649067  1
  Te  Te148  1  0.96050999  0.56332166  0.36637302  1
  Te  Te149  1  0.93864426  0.60507121  0.74044134  1
  Te  Te150  1  0.93663925  0.94723358  0.08316198  1
  Te  Te151  1  0.91455647  0.92968061  0.41954949  1
  Te  Te152  1  0.94303510  0.88072814  0.76429395  1
  Te  Te153  1  0.25498854  0.08366672  0.25063945  1
  Te  Te154  1  0.25163572  0.07488037  0.58459230  1
  Te  Te155  1  0.23930443  0.08068683  0.88466188  1
  Te  Te156  1  0.24217584  0.42099674  0.24570579  1
  Te  Te157  1  0.23016896  0.40583673  0.56651104  1
  Te  Te158  1  0.24199434  0.42003047  0.92407275  1
  Te  Te159  1  0.23764979  0.75608877  0.26788696  1
  Te  Te160  1  0.24993990  0.74390782  0.59542344  1
  Te  Te161  1  0.25610912  0.77370085  0.91366281  1
  Te  Te162  1  0.59659968  0.08075449  0.25995948  1
  Te  Te163  1  0.59160008  0.09418711  0.56106544  1
  Te  Te164  1  0.57617925  0.07228856  0.93093882  1
  Te  Te165  1  0.59099758  0.42570952  0.22591113  1
  Te  Te166  1  0.55703128  0.43076281  0.60084488  1
  Te  Te167  1  0.58634473  0.40153112  0.91915806  1
  Te  Te168  1  0.57899194  0.74318961  0.22295075  1
  Te  Te169  1  0.59076849  0.75831746  0.58456241  1
  Te  Te170  1  0.57579541  0.74682461  0.93077939  1
  Te  Te171  1  0.89351025  0.08269216  0.24587231  1
  Te  Te172  1  0.96070251  0.06153924  0.60819753  1
  Te  Te173  1  0.93274244  0.02578132  0.94738091  1
  Te  Te174  1  0.93735968  0.42422696  0.29495467  1
  Te  Te175  1  0.93208193  0.44226872  0.56960802  1
  Te  Te176  1  0.90061295  0.44288505  0.94482714  1
  Te  Te177  1  0.95198626  0.76124377  0.24657108  1
  Te  Te178  1  0.91131833  0.73721789  0.56979217  1
  Te  Te179  1  0.93543971  0.76570271  0.91101609  1
