# generated using pymatgen
data_In2Te3
_symmetry_space_group_name_H-M   'P 1'
_cell_length_a   19.06043816
_cell_length_b   19.05015184
_cell_length_c   19.05569415
_cell_angle_alpha   89.95154147
_cell_angle_beta   89.97348201
_cell_angle_gamma   90.09258769
_symmetry_Int_Tables_number   1
_chemical_formula_structural   In2Te3
_chemical_formula_sum   'In72 Te108'
_cell_volume   6919.19110600
_cell_formula_units_Z   36
loop_
 _symmetry_equiv_pos_site_id
 _symmetry_equiv_pos_as_xyz
  1  'x, y, z'
loop_
 _atom_site_type_symbol
 _atom_site_label
 _atom_site_symmetry_multiplicity
 _atom_site_fract_x
 _atom_site_fract_y
 _atom_site_fract_z
 _atom_site_occupancy
  In  In0  1  0.48592230  -0.00141185  0.15047127  1
  In  In1  1  0.17047523  0.67061214  0.81839701  1
  In  In2  1  0.00165268  0.67933294  0.33740312  1
  In  In3  1  0.34319282  0.36265373  0.66750673  1
  In  In4  1  0.17317098  -0.01129680  0.82115722  1
  In  In5  1  0.33591979  0.32165951  0.01866316  1
  In  In6  1  0.48995761  0.34908295  0.50678975  1
  In  In7  1  -0.00999536  0.15591959  0.82302020  1
  In  In8  1  -0.01128852  0.49093304  0.83481017  1
  In  In9  1  0.32072528  0.18098068  0.84285640  1
  In  In10  1  0.51183283  0.82591822  0.34664988  1
  In  In11  1  0.65672403  -0.01981358  0.33905970  1
  In  In12  1  0.01628403  0.82144794  0.48845325  1
  In  In13  1  0.82316535  0.70270984  0.47761471  1
  In  In14  1  0.83286372  -0.04877678  0.16236162  1
  In  In15  1  0.01413278  0.67035912  0.01828932  1
  In  In16  1  0.00511829  0.49893973  0.17513403  1
  In  In17  1  0.68281009  0.35893615  0.00430544  1
  In  In18  1  0.17656470  0.82341877  -0.00689672  1
  In  In19  1  0.82691380  0.81634507  0.00472266  1
  In  In20  1  0.47896225  0.50659154  0.31824795  1
  In  In21  1  0.13730256  -0.01173956  0.36152136  1
  In  In22  1  0.67274282  0.18399803  0.17058768  1
  In  In23  1  0.81762583  0.53616488  0.64227816  1
  In  In24  1  0.49149880  0.00091461  0.84475260  1
  In  In25  1  0.50935967  0.67226198  0.19122162  1
  In  In26  1  0.00105391  0.32904030  0.68149117  1
  In  In27  1  0.50386756  0.84030612  0.00642342  1
  In  In28  1  0.01646770  0.66623526  0.65287541  1
  In  In29  1  0.65909438  0.67328815  0.01709933  1
  In  In30  1  0.16424296  0.30927342  0.47737311  1
  In  In31  1  0.18152330  0.50189268  0.35487925  1
  In  In32  1  0.84617705  -0.00589326  0.48340042  1
  In  In33  1  0.83143541  0.19167133  0.02579426  1
  In  In34  1  0.31324480  0.52527069  0.17743080  1
  In  In35  1  0.85235644  0.15372489  0.32164978  1
  In  In36  1  0.31982245  0.13715129  0.17019571  1
  In  In37  1  0.85372985  0.32835683  0.47524804  1
  In  In38  1  0.52492607  0.15819838  0.68822988  1
  In  In39  1  0.49266917  0.66312115  0.83059301  1
  In  In40  1  0.84883474  0.50117115  0.33158313  1
  In  In41  1  0.16313244  -0.05319632  0.18263385  1
  In  In42  1  0.32986153  0.52493696  0.84743067  1
  In  In43  1  0.65124729  0.00195910  0.00789551  1
  In  In44  1  0.17334513  0.51106365  0.02905002  1
  In  In45  1  0.00337226  0.00655616  0.00077052  1
  In  In46  1  0.82086655  0.01791259  0.80167986  1
  In  In47  1  0.02064783  0.15948680  0.17977768  1
  In  In48  1  0.65350367  0.16579011  0.51319425  1
  In  In49  1  0.67453473  -0.00228267  0.64096828  1
  In  In50  1  0.67987838  0.32883247  0.34125686  1
  In  In51  1  0.66221804  0.50039491  0.83970117  1
  In  In52  1  -0.02884497  -0.02357842  0.65573830  1
  In  In53  1  0.50397567  0.33591767  0.15067124  1
  In  In54  1  0.66831794  0.85655982  0.80785954  1
  In  In55  1  0.66849314  0.34196494  0.66009439  1
  In  In56  1  0.81304188  0.67981658  0.84051145  1
  In  In57  1  0.17540941  0.16941462  -0.00683304  1
  In  In58  1  0.49389735  0.67333471  0.48843361  1
  In  In59  1  0.86980691  0.49006057  0.00992755  1
  In  In60  1  0.47446666  0.14899132  0.33314271  1
  In  In61  1  0.33139797  0.17658690  0.48032686  1
  In  In62  1  0.32936280  0.82509855  0.19725296  1
  In  In63  1  0.51101078  0.51403749  0.68582166  1
  In  In64  1  0.02446023  0.49292956  0.50937458  1
  In  In65  1  0.68777655  0.52225096  0.17619818  1
  In  In66  1  0.19360880  0.17769628  0.64435287  1
  In  In67  1  0.17856990  0.81702824  0.64693859  1
  In  In68  1  0.48043335  0.80888168  0.65029014  1
  In  In69  1  0.33940596  -0.01238070  0.64193642  1
  In  In70  1  0.34845617  0.50320303  0.50179976  1
  In  In71  1  0.13316274  0.34685513  0.84862055  1
  Te  Te72  1  0.11145887  0.06408634  0.08959347  1
  Te  Te73  1  0.05689302  0.10508780  0.40267683  1
  Te  Te74  1  0.10575690  0.09855717  0.74403788  1
  Te  Te75  1  0.06824492  0.41921108  0.06884070  1
  Te  Te76  1  0.07141050  0.40112028  0.40167121  1
  Te  Te77  1  0.09086094  0.43822736  0.73549773  1
  Te  Te78  1  0.11280193  0.74214446  0.10112862  1
  Te  Te79  1  0.12098876  0.73950491  0.41789423  1
  Te  Te80  1  0.07675137  0.76618484  0.74861054  1
  Te  Te81  1  0.41470186  0.09447640  0.06838440  1
  Te  Te82  1  0.40396853  0.06210838  0.42469174  1
  Te  Te83  1  0.39454251  0.09350179  0.73968445  1
  Te  Te84  1  0.40509700  0.43359156  0.09321099  1
  Te  Te85  1  0.40131306  0.40387897  0.39860540  1
  Te  Te86  1  0.42772002  0.42431966  0.77292845  1
  Te  Te87  1  0.42236012  0.75252438  0.09821633  1
  Te  Te88  1  0.39909419  0.77075947  0.42697114  1
  Te  Te89  1  0.39941087  0.73866179  0.74939199  1
  Te  Te90  1  0.75268333  0.07164831  0.10227484  1
  Te  Te91  1  0.73646509  0.09578794  0.40795634  1
  Te  Te92  1  0.72622986  0.10045849  0.73052816  1
  Te  Te93  1  0.77494771  0.42096619  0.10650483  1
  Te  Te94  1  0.75013576  0.42755820  0.42854706  1
  Te  Te95  1  0.75563569  0.43688000  0.73987985  1
  Te  Te96  1  0.74379734  0.75150174  0.10559026  1
  Te  Te97  1  0.73831070  0.76738119  0.37620399  1
  Te  Te98  1  0.75675991  0.76540057  0.73680681  1
  Te  Te99  1  0.10428955  0.19911999  0.29406309  1
  Te  Te100  1  0.07403866  0.24300126  0.58029475  1
  Te  Te101  1  0.06091728  0.24133581  0.92765518  1
  Te  Te102  1  0.09194410  0.58535395  0.26218532  1
  Te  Te103  1  0.11786122  0.58934734  0.57604622  1
  Te  Te104  1  0.08257205  0.57679676  0.91791094  1
  Te  Te105  1  0.04681478  0.89990849  0.27032918  1
  Te  Te106  1  0.08670453  0.92169040  0.58115358  1
  Te  Te107  1  0.08046784  0.91269664  0.91151037  1
  Te  Te108  1  0.41544811  0.24418009  0.23412057  1
  Te  Te109  1  0.41241813  0.24975985  0.59064442  1
  Te  Te110  1  0.41906029  0.24553129  0.92746705  1
  Te  Te111  1  0.39081156  0.61776853  0.26883307  1
  Te  Te112  1  0.41843405  0.59360171  0.59939713  1
  Te  Te113  1  0.41528369  0.60049095  0.93656395  1
  Te  Te114  1  0.42456466  0.92176965  0.26330259  1
  Te  Te115  1  0.38670262  0.87675790  0.55613652  1
  Te  Te116  1  0.40971772  0.90805152  0.91972561  1
  Te  Te117  1  0.77599378  0.26206340  0.24661088  1
  Te  Te118  1  0.75673710  0.25674908  0.57164405  1
  Te  Te119  1  0.75707467  0.26195817  0.92301905  1
  Te  Te120  1  0.76917975  0.60424965  0.26492977  1
  Te  Te121  1  0.73336040  0.61799195  0.55772172  1
  Te  Te122  1  0.75953446  0.57897048  0.94099457  1
  Te  Te123  1  0.76288420  0.89169599  0.28153841  1
  Te  Te124  1  0.75539318  0.90881594  0.55973260  1
  Te  Te125  1  0.74973664  0.91978812  0.92358156  1
  Te  Te126  1  0.23482460  0.24992719  0.10460715  1
  Te  Te127  1  0.24202959  0.23229615  0.37634535  1
  Te  Te128  1  0.23789041  0.27735338  0.75197717  1
  Te  Te129  1  0.23573559  0.62425818  0.09839179  1
  Te  Te130  1  0.26535443  0.59994152  0.42736713  1
  Te  Te131  1  0.24454633  0.57087670  0.74070511  1
  Te  Te132  1  0.26921770  0.90551393  0.08346133  1
  Te  Te133  1  0.21826353  0.87310243  0.40633358  1
  Te  Te134  1  0.26471358  0.90066263  0.74202707  1
  Te  Te135  1  0.58963910  0.24719182  0.06555200  1
  Te  Te136  1  0.56901456  0.25236083  0.41327177  1
  Te  Te137  1  0.58087596  0.27333745  0.75489822  1
  Te  Te138  1  0.57331452  0.57515964  0.09364149  1
  Te  Te139  1  0.56872519  0.57223816  0.41100053  1
  Te  Te140  1  0.60883248  0.60934397  0.74983970  1
  Te  Te141  1  0.59611275  0.90363525  0.10930068  1
  Te  Te142  1  0.59004775  0.90460386  0.44659370  1
  Te  Te143  1  0.55747790  0.92478661  0.73114631  1
  Te  Te144  1  0.94198733  0.25220377  0.09863905  1
  Te  Te145  1  0.93780263  0.21879385  0.42467161  1
  Te  Te146  1  0.90391986  0.24923895  0.75344865  1
  Te  Te147  1  0.91427737  0.59935510  0.10524740  1
  Te  Te148  1  0.92870474  0.58719617  0.43924909  1
  Te  Te149  1  0.91466489  0.59438815  0.75059717  1
  Te  Te150  1  0.94066892  0.89171033  0.07588908  1
  Te  Te151  1  0.92961246  0.90320211  0.39902201  1
  Te  Te152  1  0.89980592  0.90460274  0.75992098  1
  Te  Te153  1  0.24735042  0.04264587  0.26346351  1
  Te  Te154  1  0.24536098  0.07000191  0.55530968  1
  Te  Te155  1  0.25726826  0.06697854  0.91964941  1
  Te  Te156  1  0.23910404  0.42200159  0.24727452  1
  Te  Te157  1  0.24595639  0.40758939  0.56259418  1
  Te  Te158  1  0.24424639  0.41125063  0.92767034  1
  Te  Te159  1  0.21367956  0.78621758  0.28374668  1
  Te  Te160  1  0.21944339  0.70687134  0.55990568  1
  Te  Te161  1  0.26121571  0.74216305  0.90706860  1
  Te  Te162  1  0.58446782  0.08529263  0.24519926  1
  Te  Te163  1  0.55400287  0.07056464  0.57056022  1
  Te  Te164  1  0.58907813  0.08696904  0.90888146  1
  Te  Te165  1  0.59406486  0.41250923  0.24779634  1
  Te  Te166  1  0.58593229  0.43840165  0.57754851  1
  Te  Te167  1  0.57685408  0.42913224  0.93216315  1
  Te  Te168  1  0.60712599  0.72501427  0.29105726  1
  Te  Te169  1  0.58576166  0.77028558  0.55500677  1
  Te  Te170  1  0.59700090  0.76355626  0.91153939  1
  Te  Te171  1  0.92007534  0.05895417  0.22835720  1
  Te  Te172  1  0.90267169  0.08152032  0.58579279  1
  Te  Te173  1  0.89678696  0.08233188  0.92669607  1
  Te  Te174  1  0.93404396  0.40566622  0.26458877  1
  Te  Te175  1  0.91374812  0.42217006  0.58685685  1
  Te  Te176  1  0.90212879  0.39601746  0.90323081  1
  Te  Te177  1  0.94398495  0.78742602  0.25796112  1
  Te  Te178  1  0.91951448  0.75795691  0.58519524  1
  Te  Te179  1  0.92622220  0.74318357  0.91783867  1
