# generated using pymatgen
data_In2Te3
_symmetry_space_group_name_H-M   'P 1'
_cell_length_a   18.87182678
_cell_length_b   18.87166649
_cell_length_c   18.84685700
_cell_angle_alpha   90.00746174
_cell_angle_beta   89.98909512
_cell_angle_gamma   89.95735404
_symmetry_Int_Tables_number   1
_chemical_formula_structural   In2Te3
_chemical_formula_sum   'In72 Te108'
_cell_volume   6712.17077995
_cell_formula_units_Z   36
loop_
 _symmetry_equiv_pos_site_id
 _symmetry_equiv_pos_as_xyz
  1  'x, y, z'
loop_
 _atom_site_type_symbol
 _atom_site_label
 _atom_site_symmetry_multiplicity
 _atom_site_fract_x
 _atom_site_fract_y
 _atom_site_fract_z
 _atom_site_occupancy
  In  In0  1  0.50172191  0.66931539  0.16376874  1
  In  In1  1  0.30898730  0.50026379  0.53154569  1
  In  In2  1  0.84938137  0.66696389  0.83546932  1
  In  In3  1  -0.00255647  0.16499221  0.47601659  1
  In  In4  1  -0.01711869  0.35088144  0.34395267  1
  In  In5  1  0.49155725  0.00232420  0.82844378  1
  In  In6  1  0.65057885  0.67179897  0.00960554  1
  In  In7  1  0.66355598  0.50633201  0.49848795  1
  In  In8  1  0.68851563  0.86552637  0.83728269  1
  In  In9  1  0.00427629  0.48672015  0.16459207  1
  In  In10  1  0.67165079  0.83127361  0.16332493  1
  In  In11  1  0.83280084  0.50662670  0.33768934  1
  In  In12  1  -0.02099621  0.33047104  0.66615052  1
  In  In13  1  0.17035522  0.15666314  0.31736384  1
  In  In14  1  0.66612526  0.47114510  0.83414233  1
  In  In15  1  0.33442732  0.68050181  0.32807771  1
  In  In16  1  0.32237900  0.15904792  0.51369386  1
  In  In17  1  0.16215352  0.84093662  0.31500363  1
  In  In18  1  0.31278689  -0.00646750  0.29897859  1
  In  In19  1  0.92865496  0.82831460  0.61756282  1
  In  In20  1  0.50895165  0.30385746  0.86055614  1
  In  In21  1  0.15389696  0.16987543  0.68367889  1
  In  In22  1  0.00101806  0.00122935  0.30653912  1
  In  In23  1  0.47513953  0.50342817  0.00746607  1
  In  In24  1  0.00615654  0.16301999  0.14233971  1
  In  In25  1  0.67649116  0.33515651  0.29385926  1
  In  In26  1  0.14521105  0.82872954  0.64783853  1
  In  In27  1  0.51884743  0.47549088  0.32894597  1
  In  In28  1  0.83790779  0.65663014  0.18430254  1
  In  In29  1  0.50259050  0.83863038  0.01548692  1
  In  In30  1  0.13616906  0.67106953  0.49133661  1
  In  In31  1  0.13814797  0.50895319  0.32068505  1
  In  In32  1  0.34210857  0.00948794  0.66731504  1
  In  In33  1  0.48590003  0.48473761  0.66412653  1
  In  In34  1  0.30668631  0.79997885  0.84665267  1
  In  In35  1  0.50540351  0.17345079  0.02849454  1
  In  In36  1  0.69244392  0.04630635  0.03020243  1
  In  In37  1  0.17568856  0.67040215  0.84927140  1
  In  In38  1  -0.00063294  0.51465853  0.50745439  1
  In  In39  1  0.02328848  0.83366818  0.83710173  1
  In  In40  1  0.66926246  0.66048284  0.66133121  1
  In  In41  1  0.31644413  0.50450400  0.14877830  1
  In  In42  1  0.70603959  0.83413378  0.47681030  1
  In  In43  1  0.69042102  0.00087900  0.31158043  1
  In  In44  1  0.30293960  0.69137297  0.65880950  1
  In  In45  1  -0.00427182  0.51078498  0.82486581  1
  In  In46  1  0.49242727  0.17320602  0.70112456  1
  In  In47  1  0.83029845  0.00973838  0.49934276  1
  In  In48  1  0.17740293  -0.00997215  0.85202272  1
  In  In49  1  0.17036646  0.48186976  0.71513344  1
  In  In50  1  0.32806299  0.82845082  0.17223799  1
  In  In51  1  0.01610686  0.68593525  0.01614160  1
  In  In52  1  0.84903456  0.81905077  0.31569760  1
  In  In53  1  0.30725967  0.35604778  0.73460683  1
  In  In54  1  0.50550374  0.00282882  0.47022672  1
  In  In55  1  0.48409827  0.63866102  0.87148304  1
  In  In56  1  0.69114645  0.02811886  0.66396249  1
  In  In57  1  0.86568974  -0.00629060  0.86906226  1
  In  In58  1  0.81492062  0.49798459  0.67198771  1
  In  In59  1  0.83512645  0.16636738  0.67320183  1
  In  In60  1  0.80734254  0.47933240  0.01594760  1
  In  In61  1  0.66994205  0.15937651  0.50112690  1
  In  In62  1  0.01716128  0.14964390  0.86692452  1
  In  In63  1  0.48626858  0.82770125  0.65188572  1
  In  In64  1  0.49846866  0.18177867  0.29358296  1
  In  In65  1  0.33349625  0.00758377  0.01723338  1
  In  In66  1  0.68763940  0.19855324  0.88024048  1
  In  In67  1  0.49125118  0.66837004  0.46742719  1
  In  In68  1  0.51205184  0.33035386  0.51470514  1
  In  In69  1  0.34730352  0.31883550  0.33820924  1
  In  In70  1  0.00161121  0.34902226  -0.00051953  1
  In  In71  1  0.18130288  0.31719862  0.15432670  1
  Te  Te72  1  0.08166056  0.04736033  0.08617068  1
  Te  Te73  1  0.09353598  0.06571602  0.41183589  1
  Te  Te74  1  0.07724885  0.05973199  0.75867268  1
  Te  Te75  1  0.11176398  0.42657332  0.07414646  1
  Te  Te76  1  0.08877651  0.41644911  0.43098646  1
  Te  Te77  1  0.06792823  0.38391587  0.77837128  1
  Te  Te78  1  0.10289474  0.79151199  0.07131461  1
  Te  Te79  1  0.06274231  0.76981220  0.40634167  1
  Te  Te80  1  0.08157387  0.72825079  0.74277801  1
  Te  Te81  1  0.43645966  0.06649187  0.10434466  1
  Te  Te82  1  0.41341286  0.10399669  0.40412139  1
  Te  Te83  1  0.38543451  0.10088325  0.78225312  1
  Te  Te84  1  0.38749466  0.40077601  0.06989659  1
  Te  Te85  1  0.41782747  0.42692213  0.44075679  1
  Te  Te86  1  0.43490672  0.42112047  0.78900861  1
  Te  Te87  1  0.40455327  0.73856826  0.07109661  1
  Te  Te88  1  0.41582183  0.77610254  0.40370436  1
  Te  Te89  1  0.42325945  0.74026037  0.75903713  1
  Te  Te90  1  0.78519806  0.09892190  0.13363176  1
  Te  Te91  1  0.76532442  0.10213899  0.39792876  1
  Te  Te92  1  0.76152872  0.08253384  0.78712965  1
  Te  Te93  1  0.72220467  0.36729298  0.06801172  1
  Te  Te94  1  0.74169886  0.40749532  0.41203857  1
  Te  Te95  1  0.76958699  0.39315352  0.76532526  1
  Te  Te96  1  0.76253687  0.74446106  0.07715749  1
  Te  Te97  1  0.76241523  0.72868234  0.39423201  1
  Te  Te98  1  0.74987199  0.75150438  0.75374444  1
  Te  Te99  1  0.07477647  0.26263378  0.25029186  1
  Te  Te100  1  0.07461183  0.24934439  0.58011741  1
  Te  Te101  1  0.10093020  0.24239358  0.95184194  1
  Te  Te102  1  0.06947691  0.60191401  0.23066673  1
  Te  Te103  1  0.10625971  0.56884273  0.60029111  1
  Te  Te104  1  0.08337806  0.57846259  0.92857121  1
  Te  Te105  1  0.09645678  0.93331800  0.21447017  1
  Te  Te106  1  0.04417673  0.91193291  0.57978395  1
  Te  Te107  1  0.06541136  0.93673923  0.94224488  1
  Te  Te108  1  0.38834637  0.24534367  0.21715373  1
  Te  Te109  1  0.41090229  0.25362000  0.59890830  1
  Te  Te110  1  0.40563926  0.25231735  0.95198015  1
  Te  Te111  1  0.41589627  0.57072294  0.25550845  1
  Te  Te112  1  0.42020579  0.59925070  0.58697766  1
  Te  Te113  1  0.36181289  0.58763175  0.94748898  1
  Te  Te114  1  0.42351333  0.91234396  0.24634891  1
  Te  Te115  1  0.40955485  0.92223898  0.56135115  1
  Te  Te116  1  0.40652613  0.90654771  0.91000266  1
  Te  Te117  1  0.70910109  0.21122723  0.21223711  1
  Te  Te118  1  0.74900176  0.24814484  0.58686810  1
  Te  Te119  1  0.78514023  0.25998729  0.97338106  1
  Te  Te120  1  0.74279305  0.55476817  0.23017943  1
  Te  Te121  1  0.76620356  0.59837756  0.56297899  1
  Te  Te122  1  0.74281394  0.58670834  0.91330424  1
  Te  Te123  1  0.78180002  0.91971956  0.22091315  1
  Te  Te124  1  0.76554399  0.90827195  0.59547572  1
  Te  Te125  1  0.75877350  0.92470743  0.95548724  1
  Te  Te126  1  0.22398047  0.22459689  0.04721109  1
  Te  Te127  1  0.24066361  0.24880516  0.42117179  1
  Te  Te128  1  0.24261769  0.23159045  0.78348028  1
  Te  Te129  1  0.24809789  0.59051858  0.05268131  1
  Te  Te130  1  0.24842322  0.58233537  0.41780811  1
  Te  Te131  1  0.27435290  0.58785624  0.76145848  1
  Te  Te132  1  0.24122774  0.90676899  0.07787858  1
  Te  Te133  1  0.23953439  0.92715480  0.40719336  1
  Te  Te134  1  0.25274294  0.90223597  0.74185196  1
  Te  Te135  1  0.61051452  0.25616033  0.09567153  1
  Te  Te136  1  0.58522019  0.25085086  0.40806091  1
  Te  Te137  1  0.60906379  0.25024116  0.75591174  1
  Te  Te138  1  0.58736156  0.56409314  0.09436605  1
  Te  Te139  1  0.59710636  0.59081616  0.39053703  1
  Te  Te140  1  0.57961882  0.58207569  0.75588282  1
  Te  Te141  1  0.59344178  0.93550661  0.08350324  1
  Te  Te142  1  0.60048500  0.90961011  0.39670252  1
  Te  Te143  1  0.57981020  0.91985604  0.73465222  1
  Te  Te144  1  0.91235112  0.26792819  0.08767609  1
  Te  Te145  1  0.89816110  0.25401609  0.41464541  1
  Te  Te146  1  0.92482273  0.23573850  0.77356251  1
  Te  Te147  1  0.91588507  0.57427130  0.06627060  1
  Te  Te148  1  0.93287243  0.59697698  0.40200457  1
  Te  Te149  1  0.92158756  0.59527132  0.72217489  1
  Te  Te150  1  0.95012695  0.98462532  0.03735029  1
  Te  Te151  1  0.91422009  0.92389206  0.40713135  1
  Te  Te152  1  0.91318529  0.90202867  0.75562726  1
  Te  Te153  1  0.26247274  0.10437622  0.21472454  1
  Te  Te154  1  0.22643429  0.06886292  0.58907894  1
  Te  Te155  1  0.24061610  0.09489041  0.93813541  1
  Te  Te156  1  0.24611466  0.41574046  0.26457012  1
  Te  Te157  1  0.23808270  0.39064869  0.60160578  1
  Te  Te158  1  0.22769249  0.42290916  0.84555980  1
  Te  Te159  1  0.22815143  0.72771268  0.23317773  1
  Te  Te160  1  0.24513084  0.77017266  0.54650681  1
  Te  Te161  1  0.21098281  0.77165490  0.96044684  1
  Te  Te162  1  0.58879435  0.07972352  0.23589856  1
  Te  Te163  1  0.55957134  0.08626504  0.58912617  1
  Te  Te164  1  0.58606215  0.08218007  0.91506692  1
  Te  Te165  1  0.55868083  0.38653749  0.21908264  1
  Te  Te166  1  0.60512307  0.41200470  0.60404059  1
  Te  Te167  1  0.58329158  0.40928391  0.94272132  1
  Te  Te168  1  0.58782554  0.74895876  0.25105711  1
  Te  Te169  1  0.58908478  0.75218907  0.56617385  1
  Te  Te170  1  0.58688630  0.76441101  0.90487246  1
  Te  Te171  1  0.91249216  0.10432717  0.24511293  1
  Te  Te172  1  0.92850448  0.08196162  0.58913085  1
  Te  Te173  1  0.90016639  0.11227045  0.95771386  1
  Te  Te174  1  0.89457405  0.40898909  0.23436316  1
  Te  Te175  1  0.89992671  0.41841878  0.57091264  1
  Te  Te176  1  0.90202143  0.42411733  0.90859855  1
  Te  Te177  1  0.93879943  0.75929462  0.21383744  1
  Te  Te178  1  0.96345881  0.71892928  0.52160114  1
  Te  Te179  1  0.91877217  0.76491412  0.92791993  1
