# generated using pymatgen
data_In2Te3
_symmetry_space_group_name_H-M   'P 1'
_cell_length_a   18.85564457
_cell_length_b   18.84116953
_cell_length_c   18.85581326
_cell_angle_alpha   89.99932822
_cell_angle_beta   90.01564503
_cell_angle_gamma   90.04301660
_symmetry_Int_Tables_number   1
_chemical_formula_structural   In2Te3
_chemical_formula_sum   'In72 Te108'
_cell_volume   6698.75925929
_cell_formula_units_Z   36
loop_
 _symmetry_equiv_pos_site_id
 _symmetry_equiv_pos_as_xyz
  1  'x, y, z'
loop_
 _atom_site_type_symbol
 _atom_site_label
 _atom_site_symmetry_multiplicity
 _atom_site_fract_x
 _atom_site_fract_y
 _atom_site_fract_z
 _atom_site_occupancy
  In  In0  1  0.68291041  0.66099278  0.34250489  1
  In  In1  1  0.35396509  0.69644908  -0.01957561  1
  In  In2  1  0.36360354  0.29172127  0.27430248  1
  In  In3  1  0.16079412  0.30527256  0.15673612  1
  In  In4  1  0.32787026  0.67510210  0.65351867  1
  In  In5  1  0.34077754  0.84210606  0.85725732  1
  In  In6  1  0.65311888  0.47561762  0.86451130  1
  In  In7  1  -0.01085984  0.85892003  0.81426365  1
  In  In8  1  0.36268639  0.52035875  0.49272444  1
  In  In9  1  0.49968751  0.17598145  0.67717167  1
  In  In10  1  0.66701939  0.48658247  0.17806786  1
  In  In11  1  0.48364774  -0.00300261  0.49453292  1
  In  In12  1  0.00292158  0.52314263  0.48659794  1
  In  In13  1  0.82274594  0.67202171  0.79633713  1
  In  In14  1  0.17788958  0.31591666  0.48934698  1
  In  In15  1  0.49552471  0.66682871  0.15738549  1
  In  In16  1  0.33538016  0.33977184  0.68573755  1
  In  In17  1  0.01731451  0.14539474  0.15113757  1
  In  In18  1  -0.00569319  0.85148125  0.49179256  1
  In  In19  1  0.82682616  0.33997253  0.17209048  1
  In  In20  1  0.31847353  0.15834907  0.47550518  1
  In  In21  1  0.18601454  0.49353417  0.34566529  1
  In  In22  1  0.35111659  0.30217842  0.03302780  1
  In  In23  1  -0.01169639  0.32163674  0.66974581  1
  In  In24  1  0.35823136  0.48012250  0.83145564  1
  In  In25  1  0.16243851  0.67509513  0.83814041  1
  In  In26  1  0.82534376  0.30776111  0.85938336  1
  In  In27  1  0.66615489  0.68017050  0.66149123  1
  In  In28  1  0.80895350  0.00238606  0.84828762  1
  In  In29  1  0.66554211  0.00945088  0.32635732  1
  In  In30  1  -0.01546836  0.13656994  0.51653187  1
  In  In31  1  0.51432362  0.49778320  0.33182070  1
  In  In32  1  0.67774563  0.49928693  0.49653143  1
  In  In33  1  0.17341750  0.30875137  0.84410620  1
  In  In34  1  0.00543278  0.14834278  0.85950832  1
  In  In35  1  0.00354508  0.71242967  -0.00260440  1
  In  In36  1  0.81601943  0.50621422  0.66341907  1
  In  In37  1  0.64635523  0.85129166  0.17937063  1
  In  In38  1  0.67387121  0.67904583  0.01208548  1
  In  In39  1  0.83716112  0.72523426  0.16848548  1
  In  In40  1  -0.00043049  0.32456460  -0.01390381  1
  In  In41  1  0.50305640  0.64497660  0.83495963  1
  In  In42  1  0.67141908  0.83650629  0.50101347  1
  In  In43  1  0.19894857  0.94024019  0.02969832  1
  In  In44  1  -0.01277730  0.67363039  0.32716120  1
  In  In45  1  0.14747353  -0.00812973  0.48990539  1
  In  In46  1  0.15499091  0.85570055  0.34004469  1
  In  In47  1  0.67844409  0.14071974  0.15382428  1
  In  In48  1  0.51075056  0.84945030  0.01308044  1
  In  In49  1  0.66569280  0.17226099  0.49044753  1
  In  In50  1  0.32259993  0.15275323  0.84922520  1
  In  In51  1  -0.01058258  0.67154419  0.66065699  1
  In  In52  1  0.16176223  0.67935031  0.16717110  1
  In  In53  1  0.50447343  0.14826982  -0.01815113  1
  In  In54  1  0.16222946  0.00259811  0.82854989  1
  In  In55  1  0.17940116  0.51920911  -0.01404428  1
  In  In56  1  0.33796001  0.83258758  0.49835092  1
  In  In57  1  -0.01201835  0.00888540  0.32471370  1
  In  In58  1  0.50112045  0.33873861  0.48791132  1
  In  In59  1  0.66356875  0.31204679  0.65834494  1
  In  In60  1  0.85617580  0.16385624  0.31645200  1
  In  In61  1  0.32977596  -0.00597482  0.65776258  1
  In  In62  1  0.15366503  0.48323317  0.67534197  1
  In  In63  1  0.65265546  -0.01161193  0.70152810  1
  In  In64  1  0.83907061  0.85460626  0.66524248  1
  In  In65  1  0.81288533  0.14688088  -0.00227878  1
  In  In66  1  0.33885477  0.68169068  0.33593126  1
  In  In67  1  0.82791310  0.50430672  0.02780439  1
  In  In68  1  -0.01825134  0.48849178  0.16692847  1
  In  In69  1  0.35163830  0.02803254  0.29177145  1
  In  In70  1  0.35106416  0.46800389  0.13110160  1
  In  In71  1  0.81114890  0.33058533  0.49152206  1
  Te  Te72  1  0.08783086  0.03123811  0.08758909  1
  Te  Te73  1  0.08255613  0.09959911  0.40549338  1
  Te  Te74  1  0.08707490  0.09935797  0.74723897  1
  Te  Te75  1  0.08571831  0.42477630  0.07315568  1
  Te  Te76  1  0.08109112  0.40991734  0.41675791  1
  Te  Te77  1  0.07302863  0.39941986  0.77365614  1
  Te  Te78  1  0.07945772  0.78777519  0.10457946  1
  Te  Te79  1  0.08370031  0.74739604  0.42025524  1
  Te  Te80  1  0.08247542  0.76108655  0.74147492  1
  Te  Te81  1  0.40530722  0.10969308  0.08849818  1
  Te  Te82  1  0.43734973  0.10607876  0.39981878  1
  Te  Te83  1  0.41452228  0.07599552  0.75432098  1
  Te  Te84  1  0.46733126  0.39169743  0.07473726  1
  Te  Te85  1  0.39762041  0.40659740  0.39712531  1
  Te  Te86  1  0.45158194  0.40468344  0.74691490  1
  Te  Te87  1  0.40525441  0.77513160  0.09944132  1
  Te  Te88  1  0.43438680  0.75135097  0.42165311  1
  Te  Te89  1  0.41157315  0.74372934  0.76353607  1
  Te  Te90  1  0.73367817  0.03547105  0.06111145  1
  Te  Te91  1  0.76483505  0.08671985  0.41355884  1
  Te  Te92  1  0.72766618  0.09687868  0.76881193  1
  Te  Te93  1  0.73017578  0.39747751  0.06845472  1
  Te  Te94  1  0.73443580  0.41011896  0.39476808  1
  Te  Te95  1  0.75217162  0.40393014  0.75605061  1
  Te  Te96  1  0.75121237  0.80237284  0.05533322  1
  Te  Te97  1  0.76013676  0.77101358  0.40182182  1
  Te  Te98  1  0.73300093  0.78543418  0.75162947  1
  Te  Te99  1  0.05595080  0.25316669  0.24415303  1
  Te  Te100  1  0.08344265  0.24144077  0.58302390  1
  Te  Te101  1  0.10596807  0.22227324  0.94950853  1
  Te  Te102  1  0.09005952  0.57379637  0.25211407  1
  Te  Te103  1  0.09665112  0.59177643  0.58534473  1
  Te  Te104  1  0.06430267  0.59003606  0.91825252  1
  Te  Te105  1  0.09725690  0.95040652  0.23986104  1
  Te  Te106  1  0.07562569  0.91904932  0.59468318  1
  Te  Te107  1  0.08307651  0.91150269  0.92104451  1
  Te  Te108  1  0.46020480  0.20245644  0.19401321  1
  Te  Te109  1  0.40460697  0.24655805  0.57310564  1
  Te  Te110  1  0.41910914  0.25396341  0.90395407  1
  Te  Te111  1  0.40973071  0.57224390  0.24539938  1
  Te  Te112  1  0.42997817  0.58045134  0.60716578  1
  Te  Te113  1  0.42284017  0.56830454  0.93996475  1
  Te  Te114  1  0.42451143  0.91647127  0.22952219  1
  Te  Te115  1  0.43603245  0.90153304  0.60297367  1
  Te  Te116  1  0.42585224  0.94334766  0.92850946  1
  Te  Te117  1  0.74335216  0.24163206  0.25195545  1
  Te  Te118  1  0.76880134  0.22484639  0.59285314  1
  Te  Te119  1  0.71578285  0.23072766  0.92215721  1
  Te  Te120  1  0.75703875  0.60026643  0.22419718  1
  Te  Te121  1  0.76040660  0.60730530  0.56589273  1
  Te  Te122  1  0.75854665  0.59132981  0.91691220  1
  Te  Te123  1  0.75469227  0.91244440  0.25823561  1
  Te  Te124  1  0.74442626  0.94347061  0.58490732  1
  Te  Te125  1  0.75192516  0.89541467  0.92921475  1
  Te  Te126  1  0.25765981  0.20049178  0.10317147  1
  Te  Te127  1  0.24977385  0.24696090  0.37404995  1
  Te  Te128  1  0.24636817  0.22859633  0.73810366  1
  Te  Te129  1  0.26268514  0.59669897  0.08727803  1
  Te  Te130  1  0.24925227  0.60156802  0.43147931  1
  Te  Te131  1  0.24848768  0.56952486  0.76627554  1
  Te  Te132  1  0.30193844  0.95912673  0.14910756  1
  Te  Te133  1  0.27077345  0.93865360  0.40950350  1
  Te  Te134  1  0.24989765  0.90397942  0.75103306  1
  Te  Te135  1  0.59442568  0.23110419  0.06859423  1
  Te  Te136  1  0.58465962  0.25577514  0.40034947  1
  Te  Te137  1  0.59659968  0.23967695  0.76938581  1
  Te  Te138  1  0.58670631  0.57489654  0.07933651  1
  Te  Te139  1  0.57636827  0.59374712  0.43108874  1
  Te  Te140  1  0.60671576  0.57122330  0.75302054  1
  Te  Te141  1  0.58582234  0.95494728  0.08914409  1
  Te  Te142  1  0.57536398  0.91487943  0.40762596  1
  Te  Te143  1  0.55390997  0.92883938  0.79421031  1
  Te  Te144  1  0.90795337  0.24681586  0.07884678  1
  Te  Te145  1  0.92050947  0.24721979  0.42703706  1
  Te  Te146  1  0.91295840  0.22807842  0.76370734  1
  Te  Te147  1  0.92464075  0.61191848  0.09033694  1
  Te  Te148  1  0.89936291  0.58093720  0.40096340  1
  Te  Te149  1  0.92533920  0.56728724  0.75100388  1
  Te  Te150  1  0.92613281  0.83770070  0.10868168  1
  Te  Te151  1  0.89881637  0.92981985  0.41142087  1
  Te  Te152  1  0.92074677  0.97127042  0.73426006  1
  Te  Te153  1  0.24064206  0.09506092  0.21866179  1
  Te  Te154  1  0.23693764  0.08342225  0.57807870  1
  Te  Te155  1  0.25234877  0.05693832  0.94090472  1
  Te  Te156  1  0.24842715  0.41141865  0.23216824  1
  Te  Te157  1  0.25311930  0.41972213  0.57711529  1
  Te  Te158  1  0.26065355  0.39940840  0.93217001  1
  Te  Te159  1  0.24915632  0.77070663  0.25239408  1
  Te  Te160  1  0.23786490  0.76408020  0.58195363  1
  Te  Te161  1  0.22775835  0.76852072  0.93940459  1
  Te  Te162  1  0.56855406  0.09028867  0.24510023  1
  Te  Te163  1  0.57879750  0.08263893  0.58303920  1
  Te  Te164  1  0.56720588  0.03164050  0.90430115  1
  Te  Te165  1  0.57631942  0.39381228  0.24883053  1
  Te  Te166  1  0.58371321  0.41999315  0.58661656  1
  Te  Te167  1  0.54415845  0.41561690  0.93935093  1
  Te  Te168  1  0.57828277  0.74116266  0.25915463  1
  Te  Te169  1  0.57440018  0.77069570  0.59223167  1
  Te  Te170  1  0.57816620  0.75016502  0.91743082  1
  Te  Te171  1  0.90025872  0.06547941  0.20933664  1
  Te  Te172  1  0.90472440  0.04162059  0.59499990  1
  Te  Te173  1  0.92268005  0.05575578  0.94534821  1
  Te  Te174  1  0.90713078  0.41635881  0.26969111  1
  Te  Te175  1  0.91458996  0.42229726  0.57915881  1
  Te  Te176  1  0.90516068  0.42412837  0.92148818  1
  Te  Te177  1  0.93232923  0.79733703  0.26279312  1
  Te  Te178  1  0.90132206  0.75340349  0.57004590  1
  Te  Te179  1  0.90363347  0.76116361  0.89301961  1
