# generated using pymatgen
data_In2Te3
_symmetry_space_group_name_H-M   'P 1'
_cell_length_a   18.88151340
_cell_length_b   18.87535597
_cell_length_c   18.86546472
_cell_angle_alpha   90.01754189
_cell_angle_beta   90.14935926
_cell_angle_gamma   89.96711135
_symmetry_Int_Tables_number   1
_chemical_formula_structural   In2Te3
_chemical_formula_sum   'In72 Te108'
_cell_volume   6723.53844355
_cell_formula_units_Z   36
loop_
 _symmetry_equiv_pos_site_id
 _symmetry_equiv_pos_as_xyz
  1  'x, y, z'
loop_
 _atom_site_type_symbol
 _atom_site_label
 _atom_site_symmetry_multiplicity
 _atom_site_fract_x
 _atom_site_fract_y
 _atom_site_fract_z
 _atom_site_occupancy
  In  In0  1  0.33472998  0.33476348  0.66668168  1
  In  In1  1  0.15778045  -0.01362777  0.49036429  1
  In  In2  1  0.00401166  0.83957849  0.85436243  1
  In  In3  1  -0.00811759  0.51180655  0.16953812  1
  In  In4  1  0.34306724  0.65869724  0.68199478  1
  In  In5  1  0.33463993  0.17268131  0.16434826  1
  In  In6  1  0.49821265  0.16536806  0.35238988  1
  In  In7  1  0.85159911  0.48086138  0.66188013  1
  In  In8  1  0.83305890  0.31522116  0.82351632  1
  In  In9  1  0.70367425  0.65854893  0.33545282  1
  In  In10  1  -0.00924146  0.84129951  0.48925791  1
  In  In11  1  0.31833334  0.51774863  0.18967436  1
  In  In12  1  0.32758933  0.49150430  0.51875646  1
  In  In13  1  -0.01295342  0.01894837  0.65967390  1
  In  In14  1  0.12838836  0.84562004  0.29879757  1
  In  In15  1  0.49199101  0.84463019  0.00837542  1
  In  In16  1  0.17786083  -0.02785327  0.85269848  1
  In  In17  1  0.69121062  0.65226960  -0.01137423  1
  In  In18  1  0.83073214  0.66483960  0.15295686  1
  In  In19  1  0.33021412  0.84157715  0.85001438  1
  In  In20  1  0.52632782  0.35786437  0.84988695  1
  In  In21  1  0.14167597  0.49062014  0.00921907  1
  In  In22  1  0.66822544  -0.00753204  -0.01619423  1
  In  In23  1  0.33673575  0.70798379  -0.00272360  1
  In  In24  1  0.86106659  0.17027877  -0.01355580  1
  In  In25  1  -0.01922586  0.64786007  0.37486879  1
  In  In26  1  0.49535518  0.31380941  0.14886867  1
  In  In27  1  0.50618322  0.32896902  0.48001397  1
  In  In28  1  0.49693914  0.85672298  0.33822129  1
  In  In29  1  0.52938308  0.01004456  0.51351743  1
  In  In30  1  0.32836299  0.00647013  0.30373320  1
  In  In31  1  0.84699452  0.84325062  0.33135045  1
  In  In32  1  0.15055636  0.17443899  0.67231563  1
  In  In33  1  0.85323686  0.64920979  0.51164964  1
  In  In34  1  0.68143529  0.50241460  0.51645715  1
  In  In35  1  0.02221160  -0.01559655  0.29170500  1
  In  In36  1  0.81162606  0.15915581  0.31536552  1
  In  In37  1  0.65609435  0.34024372  0.66057684  1
  In  In38  1  0.82188400  0.03075383  0.56819676  1
  In  In39  1  0.66187143  0.84790243  0.81217910  1
  In  In40  1  0.65859515  0.17979033  0.15423092  1
  In  In41  1  0.00785905  0.16460951  0.50500971  1
  In  In42  1  0.82615949  0.82079621  0.67926974  1
  In  In43  1  0.14289797  0.63381089  0.52889752  1
  In  In44  1  0.85698747  -0.00803969  0.15741551  1
  In  In45  1  0.18705549  0.81203526  0.68038654  1
  In  In46  1  0.16954003  0.64947009  0.83375104  1
  In  In47  1  0.66166133  0.80558744  0.15310836  1
  In  In48  1  0.52250927  0.50710784  0.00550455  1
  In  In49  1  0.16243843  0.67063200  0.18051642  1
  In  In50  1  0.51460215  0.15506622  -0.02596210  1
  In  In51  1  0.33433771  0.48405758  0.82752794  1
  In  In52  1  0.51027497  0.49791503  0.33965344  1
  In  In53  1  0.64417189  0.77813369  0.54686410  1
  In  In54  1  0.50514511  0.18239192  0.67768550  1
  In  In55  1  -0.02200790  0.85089875  0.14638390  1
  In  In56  1  0.33941750  0.68061772  0.34355773  1
  In  In57  1  -0.02200742  0.34369677  -0.00747278  1
  In  In58  1  0.35202282  0.85741934  0.50534066  1
  In  In59  1  0.31867521  -0.01380746  0.01349605  1
  In  In60  1  0.29898879  0.18675735  0.46104204  1
  In  In61  1  0.66193141  0.02101915  0.32791159  1
  In  In62  1  0.36850073  0.02271421  0.64057321  1
  In  In63  1  0.82963965  0.50894442  0.32023039  1
  In  In64  1  0.17607116  0.45653171  0.34840958  1
  In  In65  1  0.01718217  0.32542516  0.33871083  1
  In  In66  1  0.13007964  0.34485819  0.79840751  1
  In  In67  1  0.14156414  0.14734224  -0.00129625  1
  In  In68  1  0.51979415  0.64756668  0.84001470  1
  In  In69  1  0.83368085  0.34487390  0.51046490  1
  In  In70  1  0.33431856  0.32529699  0.00134391  1
  In  In71  1  -0.02541198  0.66552773  -0.01027195  1
  Te  Te72  1  0.05618567  0.07205735  0.08959945  1
  Te  Te73  1  0.08318878  0.08214971  0.40135079  1
  Te  Te74  1  0.09621528  0.06338218  0.75943697  1
  Te  Te75  1  0.07512891  0.40033268  0.10686542  1
  Te  Te76  1  0.06418580  0.42583977  0.43854021  1
  Te  Te77  1  0.03607863  0.43861662  0.73109501  1
  Te  Te78  1  0.06595902  0.74305663  0.08456186  1
  Te  Te79  1  0.09012008  0.75087024  0.41898811  1
  Te  Te80  1  0.07766188  0.74472321  0.75608937  1
  Te  Te81  1  0.41963276  0.08682440  0.07358491  1
  Te  Te82  1  0.41124832  0.06498777  0.42711226  1
  Te  Te83  1  0.41540897  0.09685996  0.75640260  1
  Te  Te84  1  0.40777650  0.43088656  0.08388182  1
  Te  Te85  1  0.40232284  0.41544896  0.40826997  1
  Te  Te86  1  0.43919126  0.42117540  0.74030405  1
  Te  Te87  1  0.42884526  0.74927980  0.10229070  1
  Te  Te88  1  0.43838768  0.75265234  0.43417820  1
  Te  Te89  1  0.42212151  0.75048611  0.77294850  1
  Te  Te90  1  0.75104630  0.08110668  0.08561010  1
  Te  Te91  1  0.75833126  0.07542386  0.43102130  1
  Te  Te92  1  0.73281397  0.04123104  0.68764841  1
  Te  Te93  1  0.71297763  0.41872774  0.16156230  1
  Te  Te94  1  0.74191753  0.41885258  0.40618408  1
  Te  Te95  1  0.74474454  0.42242349  0.75131943  1
  Te  Te96  1  0.77300229  0.76881122  0.05933708  1
  Te  Te97  1  0.77120181  0.75968522  0.43434129  1
  Te  Te98  1  0.75992314  0.73753344  0.78304710  1
  Te  Te99  1  0.11664345  0.23612175  0.27362082  1
  Te  Te100  1  0.09774002  0.26435930  0.56890069  1
  Te  Te101  1  0.07572672  0.25777547  0.91137931  1
  Te  Te102  1  0.08312242  0.57840117  0.27204076  1
  Te  Te103  1  0.04997560  0.57059024  0.62106187  1
  Te  Te104  1  0.06181497  0.57019888  0.90809888  1
  Te  Te105  1  0.12078416  0.95295769  0.16950660  1
  Te  Te106  1  0.08484625  0.90634213  0.59867985  1
  Te  Te107  1  0.07193061  0.93367571  0.94882941  1
  Te  Te108  1  0.41281126  0.25730079  0.26397207  1
  Te  Te109  1  0.40305855  0.24229345  0.56367323  1
  Te  Te110  1  0.42170044  0.25771260  0.90120818  1
  Te  Te111  1  0.43011809  0.59729609  0.25324953  1
  Te  Te112  1  0.42432912  0.58681784  0.58007760  1
  Te  Te113  1  0.39830764  0.58557833  0.92037519  1
  Te  Te114  1  0.42221683  0.92184718  0.22979058  1
  Te  Te115  1  0.46234186  0.89775989  0.60738280  1
  Te  Te116  1  0.42728565  0.94034519  0.91058943  1
  Te  Te117  1  0.74718501  0.26889930  0.23520879  1
  Te  Te118  1  0.73318478  0.25458466  0.56890651  1
  Te  Te119  1  0.74929354  0.24092705  0.92055315  1
  Te  Te120  1  0.72509412  0.56344341  0.21057311  1
  Te  Te121  1  0.75345874  0.59534724  0.61142292  1
  Te  Te122  1  0.79138633  0.55692636  0.93598836  1
  Te  Te123  1  0.74677519  0.91762934  0.24318315  1
  Te  Te124  1  0.72138909  0.91225501  0.60882445  1
  Te  Te125  1  0.75886555  0.93353190  0.88374729  1
  Te  Te126  1  0.23245710  0.24713334  0.07851670  1
  Te  Te127  1  0.21253878  0.28252263  0.38345123  1
  Te  Te128  1  0.24736160  0.25278630  0.76063806  1
  Te  Te129  1  0.23896735  0.59135060  0.07373564  1
  Te  Te130  1  0.24571686  0.58369520  0.41477013  1
  Te  Te131  1  0.23981192  0.55873344  0.73368627  1
  Te  Te132  1  0.25160226  0.89752074  0.10702772  1
  Te  Te133  1  0.24908684  0.90411795  0.39985424  1
  Te  Te134  1  0.27596398  0.92535227  0.72830490  1
  Te  Te135  1  0.59466019  0.26555723  0.04523696  1
  Te  Te136  1  0.60565768  0.24763377  0.40928452  1
  Te  Te137  1  0.60329146  0.25066600  0.77212119  1
  Te  Te138  1  0.58600461  0.61242369  0.08582959  1
  Te  Te139  1  0.59753606  0.59122343  0.42274001  1
  Te  Te140  1  0.59996098  0.58756168  0.73406599  1
  Te  Te141  1  0.58734870  0.92489266  0.09600409  1
  Te  Te142  1  0.60908086  0.91246598  0.42688530  1
  Te  Te143  1  0.56728098  0.91481476  0.72254390  1
  Te  Te144  1  0.91034956  0.26047257  0.09294163  1
  Te  Te145  1  0.90503212  0.24156042  0.41287920  1
  Te  Te146  1  0.94520254  0.22536308  0.78138661  1
  Te  Te147  1  0.88774939  0.55016687  0.06373799  1
  Te  Te148  1  0.92007515  0.52829959  0.44762574  1
  Te  Te149  1  0.94127411  0.57551195  0.73396773  1
  Te  Te150  1  0.91594529  0.92859999  0.03646235  1
  Te  Te151  1  0.92409598  0.94959634  0.40920254  1
  Te  Te152  1  0.91858682  0.91935813  0.75249218  1
  Te  Te153  1  0.23243521  0.10606632  0.25138065  1
  Te  Te154  1  0.24055560  0.08514409  0.57184644  1
  Te  Te155  1  0.25486362  0.08737575  0.91647719  1
  Te  Te156  1  0.25022072  0.39687532  0.23556933  1
  Te  Te157  1  0.23089361  0.40643911  0.58934037  1
  Te  Te158  1  0.23068540  0.40970080  0.91178225  1
  Te  Te159  1  0.25714456  0.76678952  0.24810112  1
  Te  Te160  1  0.26337664  0.74357182  0.56960288  1
  Te  Te161  1  0.21899680  0.76612631  0.92128123  1
  Te  Te162  1  0.56381033  0.09035215  0.23649926  1
  Te  Te163  1  0.60699876  0.10943653  0.59358816  1
  Te  Te164  1  0.60425446  0.08191362  0.88415385  1
  Te  Te165  1  0.57753878  0.40615378  0.23834665  1
  Te  Te166  1  0.56309088  0.42886439  0.57880897  1
  Te  Te167  1  0.62362232  0.44487817  0.92017869  1
  Te  Te168  1  0.59546033  0.75016186  0.27519755  1
  Te  Te169  1  0.55869751  0.69029527  0.63228409  1
  Te  Te170  1  0.58675430  0.75539871  0.92709055  1
  Te  Te171  1  0.92754660  0.09825415  0.23831460  1
  Te  Te172  1  0.90807255  0.14654153  0.62145865  1
  Te  Te173  1  0.92637365  0.10842774  0.86978698  1
  Te  Te174  1  0.91776633  0.40703115  0.25058078  1
  Te  Te175  1  0.93673063  0.36497094  0.61836254  1
  Te  Te176  1  0.89562286  0.42969483  0.90165671  1
  Te  Te177  1  0.92717479  0.73807527  0.25258153  1
  Te  Te178  1  0.93214828  0.74972146  0.59418922  1
  Te  Te179  1  0.89579215  0.74295465  0.89068127  1
