# generated using pymatgen
data_In2Te3
_symmetry_space_group_name_H-M   'P 1'
_cell_length_a   18.77243820
_cell_length_b   18.77218991
_cell_length_c   18.77834805
_cell_angle_alpha   89.95171448
_cell_angle_beta   90.02933799
_cell_angle_gamma   90.01557462
_symmetry_Int_Tables_number   1
_chemical_formula_structural   In2Te3
_chemical_formula_sum   'In72 Te108'
_cell_volume   6617.48216601
_cell_formula_units_Z   36
loop_
 _symmetry_equiv_pos_site_id
 _symmetry_equiv_pos_as_xyz
  1  'x, y, z'
loop_
 _atom_site_type_symbol
 _atom_site_label
 _atom_site_symmetry_multiplicity
 _atom_site_fract_x
 _atom_site_fract_y
 _atom_site_fract_z
 _atom_site_occupancy
  In  In0  1  0.66294510  0.50785112  0.48980835  1
  In  In1  1  0.49520289  0.84050267  0.33130326  1
  In  In2  1  0.67492797  0.85549645  0.15499192  1
  In  In3  1  0.34427915  0.48786441  0.17048024  1
  In  In4  1  0.81282887  -0.01498831  0.84366290  1
  In  In5  1  0.35743543  0.50467903  0.84830503  1
  In  In6  1  0.17812100  0.17774166  0.00948443  1
  In  In7  1  0.34099284  0.51509073  0.49456047  1
  In  In8  1  0.17886993  0.66812960  0.47931815  1
  In  In9  1  0.81374952  0.84158114  -0.00323695  1
  In  In10  1  -0.00834142  -0.01185356  -0.02753940  1
  In  In11  1  0.33723961  0.83555634  0.81118432  1
  In  In12  1  0.81649484  0.34724128  0.15947779  1
  In  In13  1  0.16689653  0.49631490  -0.01323407  1
  In  In14  1  0.66950402  0.31865359  0.70511717  1
  In  In15  1  -0.00802846  0.53290888  0.16467230  1
  In  In16  1  -0.00133001  0.33822118  0.34695294  1
  In  In17  1  0.15738952  0.66315884  0.83400315  1
  In  In18  1  0.82978485  0.14817798  0.68243175  1
  In  In19  1  0.50818193  0.18733183  0.68127055  1
  In  In20  1  0.48223676  0.34326235  0.50995670  1
  In  In21  1  0.16745520  0.34848475  0.81524027  1
  In  In22  1  -0.03193127  0.65049377  0.67158584  1
  In  In23  1  0.35889577  0.64893082  -0.00553807  1
  In  In24  1  0.15973209  -0.00791569  0.16648657  1
  In  In25  1  0.36226244  0.66317347  0.67369647  1
  In  In26  1  -0.00798996  0.83918239  0.50297590  1
  In  In27  1  -0.01903646  0.34087061  0.00204771  1
  In  In28  1  -0.02855528  0.52942820  0.47738802  1
  In  In29  1  0.37213603  0.15630758  0.15950853  1
  In  In30  1  0.68626965  0.65651470  -0.01980245  1
  In  In31  1  0.19356981  0.32593460  0.17052245  1
  In  In32  1  0.50562258  0.64605657  0.16436941  1
  In  In33  1  0.36128177  0.17315656  0.85490668  1
  In  In34  1  0.78649429  0.50595130  0.67904749  1
  In  In35  1  0.83591340  0.33952284  0.49359924  1
  In  In36  1  0.82510328  0.00283793  0.17993719  1
  In  In37  1  0.79822964  0.82038367  0.66689430  1
  In  In38  1  0.51549545  0.01228244  0.84325766  1
  In  In39  1  0.16788556  0.82857877  0.33957379  1
  In  In40  1  0.00441830  -0.00033334  0.66832078  1
  In  In41  1  0.01203937  0.17614789  0.47396684  1
  In  In42  1  0.67951270  0.66461155  0.34197297  1
  In  In43  1  0.01141636  0.34733908  0.67217442  1
  In  In44  1  0.34496556  -0.00583208  0.32119338  1
  In  In45  1  0.35030702  0.83924785  0.49828584  1
  In  In46  1  0.17414839  0.85014295  0.67519984  1
  In  In47  1  0.67828432  -0.02397086  0.68033074  1
  In  In48  1  0.17377711  0.67566827  0.19605811  1
  In  In49  1  0.20426170  0.12639544  0.63432531  1
  In  In50  1  0.50169464  -0.01839587  0.49704327  1
  In  In51  1  0.79909020  0.32962299  0.87080581  1
  In  In52  1  -0.02325947  0.17374488  0.17187697  1
  In  In53  1  0.66491160  0.33833167  0.31800413  1
  In  In54  1  0.34565210  0.01395852  0.01706103  1
  In  In55  1  0.66790068  0.50158937  0.16209236  1
  In  In56  1  0.51024697  0.33901283  0.14928354  1
  In  In57  1  -0.02603078  0.79481370  0.18945469  1
  In  In58  1  0.34951631  0.33730718  0.68341260  1
  In  In59  1  0.67761891  0.14278530  0.49239410  1
  In  In60  1  -0.04136346  0.68045680  0.01395558  1
  In  In61  1  0.51536256  0.52334506  0.67109359  1
  In  In62  1  -0.00457791  0.82975142  0.86457781  1
  In  In63  1  0.17798421  0.16260240  0.36820308  1
  In  In64  1  0.14453711  0.48119891  0.67083425  1
  In  In65  1  0.65406741  0.14899953  0.15651909  1
  In  In66  1  0.50745936  0.16183051  0.32400317  1
  In  In67  1  0.82183253  -0.01689919  0.49187058  1
  In  In68  1  0.16859032  0.32240108  0.48258784  1
  In  In69  1  -0.01712085  0.16386036  0.82396857  1
  In  In70  1  0.51618299  0.82528891  0.01584885  1
  In  In71  1  0.16934654  0.85419385  0.00366961  1
  Te  Te72  1  0.07413277  0.08149280  0.07234207  1
  Te  Te73  1  0.07684210  0.06320226  0.40540412  1
  Te  Te74  1  0.09287296  0.09460786  0.74575686  1
  Te  Te75  1  0.08581015  0.41317327  0.08795848  1
  Te  Te76  1  0.08579699  0.43636531  0.42516241  1
  Te  Te77  1  0.05124242  0.44331408  0.78605833  1
  Te  Te78  1  0.08471626  0.75248458  0.08152185  1
  Te  Te79  1  0.06390973  0.73953279  0.40902733  1
  Te  Te80  1  0.07040043  0.75460071  0.74320631  1
  Te  Te81  1  0.46446812  0.09006243  0.06465119  1
  Te  Te82  1  0.41541186  0.08715935  0.42329803  1
  Te  Te83  1  0.41698692  0.08161658  0.74644037  1
  Te  Te84  1  0.43135608  0.43521537  0.05806914  1
  Te  Te85  1  0.41982544  0.42499098  0.40587510  1
  Te  Te86  1  0.45180370  0.41497518  0.76235722  1
  Te  Te87  1  0.41172599  0.74922623  0.09638649  1
  Te  Te88  1  0.42227259  0.74217963  0.41473614  1
  Te  Te89  1  0.44577945  0.74824819  0.76008528  1
  Te  Te90  1  0.74314577  0.06304632  0.07324192  1
  Te  Te91  1  0.74721246  0.06445121  0.39101152  1
  Te  Te92  1  0.72305765  0.09299030  0.77297287  1
  Te  Te93  1  0.72232661  0.40712489  0.05879706  1
  Te  Te94  1  0.75962829  0.42998150  0.39775163  1
  Te  Te95  1  0.70275994  0.43739521  0.79894489  1
  Te  Te96  1  0.75384553  0.73959489  0.09150241  1
  Te  Te97  1  0.78902339  0.74457383  0.40537754  1
  Te  Te98  1  0.71357806  0.73745875  0.75807963  1
  Te  Te99  1  0.08472012  0.24996588  0.25143830  1
  Te  Te100  1  0.09205076  0.24315435  0.59331116  1
  Te  Te101  1  0.08074890  0.25213115  0.91300230  1
  Te  Te102  1  0.07802423  0.59044172  0.26898415  1
  Te  Te103  1  0.08099284  0.59082123  0.58337745  1
  Te  Te104  1  0.06352813  0.59508146  0.93158062  1
  Te  Te105  1  0.06795890  0.90272985  0.24859010  1
  Te  Te106  1  0.09660620  0.92986627  0.56994774  1
  Te  Te107  1  0.10595683  0.93201999  0.88706949  1
  Te  Te108  1  0.42218175  0.26660469  0.25279872  1
  Te  Te109  1  0.40122179  0.23552556  0.58167893  1
  Te  Te110  1  0.44850542  0.26117992  0.93520364  1
  Te  Te111  1  0.40567047  0.58986459  0.25805140  1
  Te  Te112  1  0.44695487  0.60491134  0.56094382  1
  Te  Te113  1  0.45750880  0.60413893  0.89455329  1
  Te  Te114  1  0.44937565  0.94127839  0.23023469  1
  Te  Te115  1  0.43916519  0.89683990  0.60208069  1
  Te  Te116  1  0.41567856  0.91167618  0.92330858  1
  Te  Te117  1  0.74975813  0.23745274  0.24425332  1
  Te  Te118  1  0.74982389  0.25265471  0.58591906  1
  Te  Te119  1  0.70580475  0.23165100  0.93256350  1
  Te  Te120  1  0.76289091  0.58521398  0.24209104  1
  Te  Te121  1  0.74345326  0.60625672  0.57346135  1
  Te  Te122  1  0.75184541  0.55588440  0.89325431  1
  Te  Te123  1  0.76432672  0.89831270  0.26574049  1
  Te  Te124  1  0.71738628  0.89203513  0.55765840  1
  Te  Te125  1  0.70864811  0.90068940  0.90874897  1
  Te  Te126  1  0.28925744  0.25786769  0.07394948  1
  Te  Te127  1  0.27820441  0.26308452  0.40524080  1
  Te  Te128  1  0.25339914  0.23906320  0.75140715  1
  Te  Te129  1  0.24579092  0.58646942  0.08201388  1
  Te  Te130  1  0.26218341  0.58685044  0.38959081  1
  Te  Te131  1  0.24955288  0.57351224  0.74948688  1
  Te  Te132  1  0.27099805  0.90912401  0.10333110  1
  Te  Te133  1  0.24865041  0.92966356  0.42422882  1
  Te  Te134  1  0.26664369  0.94430100  0.74023722  1
  Te  Te135  1  0.62183797  0.27292429  0.07115516  1
  Te  Te136  1  0.59026030  0.25454610  0.42661754  1
  Te  Te137  1  0.57346531  0.25088617  0.80130725  1
  Te  Te138  1  0.58132210  0.57152832  0.05624637  1
  Te  Te139  1  0.57052690  0.58639282  0.40527025  1
  Te  Te140  1  0.61069428  0.61139214  0.74608621  1
  Te  Te141  1  0.58513930  0.94393228  0.07445945  1
  Te  Te142  1  0.59925655  0.90647095  0.41551968  1
  Te  Te143  1  0.56563309  0.90805210  0.74768397  1
  Te  Te144  1  0.88741308  0.24099420  0.06980955  1
  Te  Te145  1  0.89432266  0.23690409  0.39691811  1
  Te  Te146  1  0.89591536  0.27462351  0.75438836  1
  Te  Te147  1  0.88095898  0.57095358  0.07566663  1
  Te  Te148  1  0.87739744  0.61337925  0.39870191  1
  Te  Te149  1  0.88656122  0.57599261  0.76874079  1
  Te  Te150  1  0.92711321  0.90270286  0.08113810  1
  Te  Te151  1  0.91084281  0.90799043  0.39946907  1
  Te  Te152  1  0.90818937  0.91042519  0.74493712  1
  Te  Te153  1  0.24881448  0.09478598  0.23745992  1
  Te  Te154  1  0.27951098  0.05768907  0.53196087  1
  Te  Te155  1  0.25215438  0.08250792  0.91654377  1
  Te  Te156  1  0.24512008  0.42711162  0.26279642  1
  Te  Te157  1  0.25579219  0.41504302  0.58739808  1
  Te  Te158  1  0.26628308  0.40185546  0.91895216  1
  Te  Te159  1  0.27332297  0.76442134  0.25835131  1
  Te  Te160  1  0.25082480  0.74300419  0.59386232  1
  Te  Te161  1  0.25210370  0.74788430  0.91919244  1
  Te  Te162  1  0.58238074  0.05698639  0.25254829  1
  Te  Te163  1  0.58724098  0.08212979  0.59875644  1
  Te  Te164  1  0.61097503  0.10788155  0.90630114  1
  Te  Te165  1  0.56647817  0.43533710  0.25586169  1
  Te  Te166  1  0.59361884  0.40693050  0.59516231  1
  Te  Te167  1  0.51362820  0.39982925  0.93337636  1
  Te  Te168  1  0.59239255  0.74896856  0.23719096  1
  Te  Te169  1  0.63322652  0.70762600  0.62761180  1
  Te  Te170  1  0.60557892  0.76456420  0.91203433  1
  Te  Te171  1  0.92874565  0.07011547  0.26326035  1
  Te  Te172  1  0.91916386  0.08846414  0.57407099  1
  Te  Te173  1  0.89091433  0.09218604  0.92212308  1
  Te  Te174  1  0.91848473  0.42101077  0.24759521  1
  Te  Te175  1  0.91117112  0.43443369  0.58808907  1
  Te  Te176  1  0.89006923  0.43283046  0.92999376  1
  Te  Te177  1  0.88368598  0.70561401  0.26781103  1
  Te  Te178  1  0.89588837  0.74383098  0.57604060  1
  Te  Te179  1  0.87919372  0.74050357  0.89713522  1
