# generated using pymatgen
data_In2Te3
_symmetry_space_group_name_H-M   'P 1'
_cell_length_a   18.84530873
_cell_length_b   18.85917669
_cell_length_c   18.84698677
_cell_angle_alpha   89.99194256
_cell_angle_beta   90.09437823
_cell_angle_gamma   89.98882087
_symmetry_Int_Tables_number   1
_chemical_formula_structural   In2Te3
_chemical_formula_sum   'In72 Te108'
_cell_volume   6698.34188015
_cell_formula_units_Z   36
loop_
 _symmetry_equiv_pos_site_id
 _symmetry_equiv_pos_as_xyz
  1  'x, y, z'
loop_
 _atom_site_type_symbol
 _atom_site_label
 _atom_site_symmetry_multiplicity
 _atom_site_fract_x
 _atom_site_fract_y
 _atom_site_fract_z
 _atom_site_occupancy
  In  In0  1  0.82890206  0.86268758  0.65739971  1
  In  In1  1  0.52867300  0.80625245  0.63770950  1
  In  In2  1  0.31941549  0.33669690  0.32931690  1
  In  In3  1  0.50390958  0.48151733  0.34176549  1
  In  In4  1  0.14817886  0.35327687  0.50828206  1
  In  In5  1  0.80750257  0.31407592  0.86927311  1
  In  In6  1  0.52482566  0.85594001  0.33129839  1
  In  In7  1  0.65852107  0.00422822  0.01503006  1
  In  In8  1  0.18407137  0.50547041  0.66093930  1
  In  In9  1  0.16481491  0.49176003  0.00593095  1
  In  In10  1  0.14510386  0.70125962  0.78803144  1
  In  In11  1  0.38796006  -0.01183442  0.33688684  1
  In  In12  1  0.52833278  0.00443703  0.50620994  1
  In  In13  1  0.66358813  0.48960995  0.50281926  1
  In  In14  1  0.81373303  0.67305078  0.19159493  1
  In  In15  1  -0.00527070  0.49239859  0.15484158  1
  In  In16  1  0.19290602  -0.00848403  0.16147942  1
  In  In17  1  0.16466101  0.83061897  0.32757504  1
  In  In18  1  0.85422087  0.29326508  0.47157002  1
  In  In19  1  0.84969106  0.82635542  0.01692886  1
  In  In20  1  0.32548629  0.85132771  0.85488912  1
  In  In21  1  0.33932628  -0.00205642  0.00977834  1
  In  In22  1  0.13356040  0.00329520  0.50326388  1
  In  In23  1  0.51031637  0.66280202  0.14647119  1
  In  In24  1  0.35017903  0.52567214  0.50311269  1
  In  In25  1  0.49660836  0.29976887  0.14148498  1
  In  In26  1  0.34459173  0.67371180  -0.02365001  1
  In  In27  1  0.00609419  0.01463550  0.32482438  1
  In  In28  1  0.53465836  0.13374611  0.31725107  1
  In  In29  1  -0.01989100  0.00563375  -0.01589811  1
  In  In30  1  0.33372292  0.15922625  0.82554610  1
  In  In31  1  0.34299296  0.48471994  0.16915152  1
  In  In32  1  0.32119779  0.66905860  0.35435969  1
  In  In33  1  0.66778415  0.83736125  0.84225405  1
  In  In34  1  0.15037908  0.18772824  0.01011266  1
  In  In35  1  0.83168046  0.16368113  0.65192762  1
  In  In36  1  0.80847312  0.52102884  0.66164305  1
  In  In37  1  -0.02404712  0.67657934  0.33096163  1
  In  In38  1  0.16091738  0.67580135  0.17506568  1
  In  In39  1  0.51257392  0.66843502  0.83963250  1
  In  In40  1  0.68056053  0.66058880  0.35324383  1
  In  In41  1  0.35232467  0.31145512  -0.02951582  1
  In  In42  1  0.00200456  0.50614473  0.49711291  1
  In  In43  1  0.15301057  -0.01167462  0.83337035  1
  In  In44  1  0.80906486  0.86195483  0.30915189  1
  In  In45  1  0.82992959  0.01446515  0.50200490  1
  In  In46  1  -0.02846505  0.50186194  0.83078772  1
  In  In47  1  0.83895002  0.01666090  0.81830821  1
  In  In48  1  0.52072055  0.14754182  -0.00947740  1
  In  In49  1  0.82602117  0.47427126  0.00197690  1
  In  In50  1  -0.03076302  0.33736504  0.67910633  1
  In  In51  1  -0.02680131  0.16423888  0.17318399  1
  In  In52  1  0.84145058  0.50624106  0.32286170  1
  In  In53  1  0.37824757  0.35979821  0.70500053  1
  In  In54  1  0.50945941  0.00276108  0.83365301  1
  In  In55  1  0.01530049  0.65734523  0.00378847  1
  In  In56  1  0.15718314  0.14955866  0.67396656  1
  In  In57  1  0.66859508  0.31180406  0.31420847  1
  In  In58  1  0.51921252  0.32486276  0.55174875  1
  In  In59  1  0.66372564  0.64710392  -0.00832111  1
  In  In60  1  0.15972567  0.32612393  0.84743023  1
  In  In61  1  0.81657396  0.30934882  0.14100296  1
  In  In62  1  0.84977615  0.69125584  0.81590514  1
  In  In63  1  0.19680745  0.66433836  0.50656035  1
  In  In64  1  0.67161432  0.16147112  0.50546534  1
  In  In65  1  0.13197510  0.14808636  0.32281252  1
  In  In66  1  0.31826327  0.16757956  0.15484144  1
  In  In67  1  0.32766403  0.19638862  0.51793734  1
  In  In68  1  0.65407746  0.49348858  0.84226764  1
  In  In69  1  -0.00346431  0.84040810  0.52471484  1
  In  In70  1  0.32652968  0.83832364  0.49537073  1
  In  In71  1  0.35020958  0.67511949  0.66514332  1
  Te  Te72  1  0.08642634  0.08041689  0.09583944  1
  Te  Te73  1  0.03986130  0.11314937  0.44820764  1
  Te  Te74  1  0.06351571  0.09197986  0.77417388  1
  Te  Te75  1  0.06697129  0.39981634  0.06533295  1
  Te  Te76  1  0.05863905  0.40685057  0.40393133  1
  Te  Te77  1  0.08283933  0.42271978  0.74309821  1
  Te  Te78  1  0.07725180  0.75999469  0.08873775  1
  Te  Te79  1  0.08720521  0.74135227  0.42284888  1
  Te  Te80  1  0.05594144  0.80748055  0.74091070  1
  Te  Te81  1  0.43080907  0.08371169  0.09723766  1
  Te  Te82  1  0.42248217  0.10043787  0.43548245  1
  Te  Te83  1  0.39781816  0.05041213  0.74683563  1
  Te  Te84  1  0.42527042  0.41009659  0.06509984  1
  Te  Te85  1  0.41436939  0.39926083  0.43359654  1
  Te  Te86  1  0.45379647  0.43637985  0.80756683  1
  Te  Te87  1  0.41609667  0.75219118  0.07773223  1
  Te  Te88  1  0.42657746  0.75998083  0.41495826  1
  Te  Te89  1  0.42282352  0.77119065  0.75981481  1
  Te  Te90  1  0.71303028  0.10399028  0.11495718  1
  Te  Te91  1  0.76061099  0.10142366  0.40380244  1
  Te  Te92  1  0.73662317  0.07782470  0.72860415  1
  Te  Te93  1  0.72340591  0.41190789  0.08512403  1
  Te  Te94  1  0.75041612  0.40743867  0.40573911  1
  Te  Te95  1  0.76346360  0.41885035  0.76471248  1
  Te  Te96  1  0.73679376  0.74711435  0.08348727  1
  Te  Te97  1  0.76769758  0.76430192  0.41134413  1
  Te  Te98  1  0.74041840  0.75738929  0.73649396  1
  Te  Te99  1  0.07546992  0.25220763  0.23648904  1
  Te  Te100  1  0.07325834  0.25810868  0.60075343  1
  Te  Te101  1  0.06720561  0.21860052  0.89028741  1
  Te  Te102  1  0.06902780  0.58290652  0.25402467  1
  Te  Te103  1  0.08628855  0.59661807  0.58834598  1
  Te  Te104  1  0.08767497  0.57754831  0.89518484  1
  Te  Te105  1  0.08154523  0.91536632  0.23523245  1
  Te  Te106  1  0.08881784  0.91545405  0.61560901  1
  Te  Te107  1  0.09473194  0.91974948  0.94895483  1
  Te  Te108  1  0.41615513  0.24005060  0.25799530  1
  Te  Te109  1  0.42586440  0.23065130  0.62987072  1
  Te  Te110  1  0.45299194  0.23477747  0.88298694  1
  Te  Te111  1  0.41508960  0.58171192  0.26403176  1
  Te  Te112  1  0.44111387  0.57522043  0.60697481  1
  Te  Te113  1  0.43004970  0.56840463  0.91449389  1
  Te  Te114  1  0.43726887  0.91129911  0.22194053  1
  Te  Te115  1  0.43166048  0.91032056  0.57876157  1
  Te  Te116  1  0.44103846  0.91313439  0.93472925  1
  Te  Te117  1  0.76749900  0.22123016  0.25350621  1
  Te  Te118  1  0.75050624  0.27137167  0.57981156  1
  Te  Te119  1  0.68472169  0.27718433  0.94327963  1
  Te  Te120  1  0.72402788  0.56150370  0.24319657  1
  Te  Te121  1  0.72407697  0.61074663  0.57550148  1
  Te  Te122  1  0.77585404  0.58841989  0.90395570  1
  Te  Te123  1  0.70545385  0.91283231  0.21379152  1
  Te  Te124  1  0.73005982  0.91794578  0.55780059  1
  Te  Te125  1  0.76263665  0.92056576  0.92581284  1
  Te  Te126  1  0.24814978  0.27963122  0.08221867  1
  Te  Te127  1  0.22179161  0.24346262  0.41546880  1
  Te  Te128  1  0.24944511  0.25998166  0.74195209  1
  Te  Te129  1  0.25383657  0.58882658  0.08394315  1
  Te  Te130  1  0.23402063  0.55519164  0.40706625  1
  Te  Te131  1  0.25877641  0.59472445  0.75687743  1
  Te  Te132  1  0.25791149  0.89291442  0.07445742  1
  Te  Te133  1  0.24075735  0.93343131  0.41165580  1
  Te  Te134  1  0.26726833  0.94158470  0.75119695  1
  Te  Te135  1  0.61705917  0.22736871  0.08400298  1
  Te  Te136  1  0.57286072  0.25444529  0.42215661  1
  Te  Te137  1  0.58542441  0.29366293  0.68503027  1
  Te  Te138  1  0.57741819  0.55723258  0.06948565  1
  Te  Te139  1  0.56703538  0.58658278  0.43039227  1
  Te  Te140  1  0.60325764  0.59604820  0.74883744  1
  Te  Te141  1  0.58365329  0.91893301  0.11383276  1
  Te  Te142  1  0.62166719  0.91879033  0.42758095  1
  Te  Te143  1  0.58469613  0.90939041  0.73806142  1
  Te  Te144  1  0.90322589  0.22354720  0.05440637  1
  Te  Te145  1  0.96359769  0.23996862  0.39083447  1
  Te  Te146  1  0.89707892  0.23969146  0.76888801  1
  Te  Te147  1  0.89869403  0.59270059  0.08390676  1
  Te  Te148  1  0.89566416  0.59683289  0.43271800  1
  Te  Te149  1  0.92694801  0.59836885  0.72193089  1
  Te  Te150  1  0.90539192  0.93931686  0.09433828  1
  Te  Te151  1  0.92522339  0.91362309  0.41158736  1
  Te  Te152  1  0.92664707  0.90715152  0.76460509  1
  Te  Te153  1  0.26516972  0.07909664  0.26709320  1
  Te  Te154  1  0.24877190  0.07753430  0.57557376  1
  Te  Te155  1  0.24841843  0.09348224  0.93231198  1
  Te  Te156  1  0.23438028  0.41863032  0.24281822  1
  Te  Te157  1  0.27533494  0.40962503  0.58709135  1
  Te  Te158  1  0.26021388  0.42124371  0.90968360  1
  Te  Te159  1  0.27013321  0.76093307  0.24415063  1
  Te  Te160  1  0.24558442  0.77027317  0.60421900  1
  Te  Te161  1  0.22577465  0.74902576  0.90753052  1
  Te  Te162  1  0.61800511  0.04587680  0.22896488  1
  Te  Te163  1  0.60147104  0.08225915  0.61024388  1
  Te  Te164  1  0.62188869  0.08718918  0.89066519  1
  Te  Te165  1  0.57175696  0.39937948  0.23540069  1
  Te  Te166  1  0.59255272  0.43617029  0.62815941  1
  Te  Te167  1  0.57416941  0.37981635  0.89584609  1
  Te  Te168  1  0.58732524  0.73602433  0.25693289  1
  Te  Te169  1  0.60862688  0.71716465  0.55494323  1
  Te  Te170  1  0.57882235  0.76320205  0.93986238  1
  Te  Te171  1  0.89179471  0.06189014  0.24383317  1
  Te  Te172  1  0.93050150  0.07010804  0.59488644  1
  Te  Te173  1  0.87339587  0.10073103  0.93746036  1
  Te  Te174  1  0.90441911  0.40135087  0.23560604  1
  Te  Te175  1  0.89751376  0.42212656  0.57392168  1
  Te  Te176  1  0.93075049  0.39350221  0.92700620  1
  Te  Te177  1  0.91779917  0.77530432  0.23293093  1
  Te  Te178  1  0.89783125  0.75206184  0.58593871  1
  Te  Te179  1  0.94235457  0.75998071  0.91449092  1
