# generated using pymatgen
data_In2Te3
_symmetry_space_group_name_H-M   'P 1'
_cell_length_a   18.78545748
_cell_length_b   18.77987922
_cell_length_c   18.78554256
_cell_angle_alpha   89.97568457
_cell_angle_beta   90.07119328
_cell_angle_gamma   90.04480783
_symmetry_Int_Tables_number   1
_chemical_formula_structural   In2Te3
_chemical_formula_sum   'In72 Te108'
_cell_volume   6627.31794735
_cell_formula_units_Z   36
loop_
 _symmetry_equiv_pos_site_id
 _symmetry_equiv_pos_as_xyz
  1  'x, y, z'
loop_
 _atom_site_type_symbol
 _atom_site_label
 _atom_site_symmetry_multiplicity
 _atom_site_fract_x
 _atom_site_fract_y
 _atom_site_fract_z
 _atom_site_occupancy
  In  In0  1  0.82470302  0.82900175  0.31528032  1
  In  In1  1  0.31945915  0.52609914  0.16607487  1
  In  In2  1  -0.00103772  0.82816502  0.50298586  1
  In  In3  1  0.16583724  0.32713982  0.16838756  1
  In  In4  1  0.66219815  -0.01596558  0.31774456  1
  In  In5  1  0.03024225  0.82608991  0.83295967  1
  In  In6  1  0.82551961  0.67615491  0.85169560  1
  In  In7  1  0.33450839  0.33436282  0.64416479  1
  In  In8  1  0.67075791  -0.02659723  0.67639018  1
  In  In9  1  -0.01642050  0.31021071  -0.00006751  1
  In  In10  1  0.17643700  0.51928705  0.02466340  1
  In  In11  1  0.15358021  0.15752846  -0.00945099  1
  In  In12  1  0.16742758  0.66716328  0.51095930  1
  In  In13  1  -0.00345503  0.48661157  0.82902410  1
  In  In14  1  0.66986977  0.52104175  0.84594066  1
  In  In15  1  0.47857867  0.80953833  0.67847697  1
  In  In16  1  0.83237635  0.50629589  0.32082602  1
  In  In17  1  0.17034352  -0.01674056  0.17268227  1
  In  In18  1  -0.01937805  0.52363176  0.16205068  1
  In  In19  1  0.49379275  0.53407631  0.00452605  1
  In  In20  1  0.33906421  0.15884858  0.84122867  1
  In  In21  1  0.83243094  -0.01618411  0.86045822  1
  In  In22  1  -0.01865819  0.15632217  0.50706907  1
  In  In23  1  0.83430388  0.32933955  0.84555034  1
  In  In24  1  0.82777596  0.82785796  0.65364289  1
  In  In25  1  0.49444243  0.69923164  0.14695058  1
  In  In26  1  0.66266352  0.50176528  0.16114234  1
  In  In27  1  0.33136469  0.34144215  0.35068877  1
  In  In28  1  -0.02593294  0.14591133  0.86776486  1
  In  In29  1  0.49983811  0.32122531  0.82853748  1
  In  In30  1  0.49721159  0.53253447  0.66943675  1
  In  In31  1  0.65659271  0.68025455  0.33267643  1
  In  In32  1  -0.00085259  -0.01590235  0.31610135  1
  In  In33  1  -0.00024423  0.52359729  0.49816177  1
  In  In34  1  0.84564188  0.50745359  0.66417882  1
  In  In35  1  0.34211307  0.51963713  0.51076437  1
  In  In36  1  0.66132254  0.52145408  0.47648197  1
  In  In37  1  0.34275230  0.33973093  -0.01557793  1
  In  In38  1  0.17755841  -0.02125060  0.83606494  1
  In  In39  1  0.67959402  0.32789402  0.32130751  1
  In  In40  1  0.35620978  0.14030121  0.15866047  1
  In  In41  1  0.00879609  0.00051394  0.65284739  1
  In  In42  1  0.33315964  0.67576668  0.32800164  1
  In  In43  1  0.17604089  0.67382136  0.16911886  1
  In  In44  1  0.33267807  0.82479266  0.48983123  1
  In  In45  1  0.66904696  0.16280780  0.49413161  1
  In  In46  1  0.33424622  -0.01544410  0.69270678  1
  In  In47  1  0.65174898  0.31718915  0.67276552  1
  In  In48  1  0.83447324  0.15580178  0.31104107  1
  In  In49  1  0.65718973  0.67021998  0.65905001  1
  In  In50  1  0.49705124  -0.03125318  0.87752719  1
  In  In51  1  0.82409167  0.15730614  0.66983200  1
  In  In52  1  0.68326724  -0.01819005  0.01871563  1
  In  In53  1  0.52908141  0.33800857  0.16650933  1
  In  In54  1  0.50532006  0.14435061  0.31567436  1
  In  In55  1  0.18216245  0.16969096  0.67297742  1
  In  In56  1  0.34615781  0.19743822  0.51078325  1
  In  In57  1  0.17194341  0.34245177  0.49698236  1
  In  In58  1  0.17575462  0.84496628  0.00336273  1
  In  In59  1  -0.00357260  0.68186001  0.31906936  1
  In  In60  1  0.47788972  0.33548283  0.51374951  1
  In  In61  1  0.53183755  -0.00911775  0.48982100  1
  In  In62  1  0.17600512  0.66519391  0.82381026  1
  In  In63  1  -0.01029248  0.34075068  0.33291732  1
  In  In64  1  0.50547258  -0.01753344  0.16592947  1
  In  In65  1  0.34315752  -0.00855918  0.31303914  1
  In  In66  1  -0.01932099  0.17093016  0.15875906  1
  In  In67  1  0.66994697  0.32112915  0.00073597  1
  In  In68  1  0.33834498  0.52492731  0.85125537  1
  In  In69  1  -0.01883720  0.67689075  0.01094967  1
  In  In70  1  -0.00046027  0.36317047  0.67538441  1
  In  In71  1  0.15615206  -0.00894894  0.49294178  1
  Te  Te72  1  0.07585119  0.07310796  0.08822931  1
  Te  Te73  1  0.07270802  0.08543807  0.40744420  1
  Te  Te74  1  0.08650469  0.08350034  0.75676321  1
  Te  Te75  1  0.07418912  0.41527710  0.08248986  1
  Te  Te76  1  0.08566062  0.43157490  0.40848851  1
  Te  Te77  1  0.10673296  0.42500345  0.75336642  1
  Te  Te78  1  0.07906117  0.76285562  0.09052326  1
  Te  Te79  1  0.09568987  0.75667587  0.40787335  1
  Te  Te80  1  0.08205169  0.73458380  0.73022700  1
  Te  Te81  1  0.42791454  0.05615672  0.06213364  1
  Te  Te82  1  0.41504512  0.08339368  0.42357328  1
  Te  Te83  1  0.43519545  0.06826379  0.76708124  1
  Te  Te84  1  0.41539254  0.42332312  0.09135221  1
  Te  Te85  1  0.42932020  0.44013222  0.41342006  1
  Te  Te86  1  0.41631214  0.42327859  0.74940827  1
  Te  Te87  1  0.43318756  0.79759599  0.04783014  1
  Te  Te88  1  0.43339005  0.74300756  0.41620780  1
  Te  Te89  1  0.42135355  0.73811873  0.79482834  1
  Te  Te90  1  0.78005790  0.08535218  0.06654839  1
  Te  Te91  1  0.75236831  0.06939512  0.40848038  1
  Te  Te92  1  0.74595469  0.07197669  0.76880781  1
  Te  Te93  1  0.75074168  0.41266063  0.08342327  1
  Te  Te94  1  0.75692078  0.41602711  0.41889557  1
  Te  Te95  1  0.74850755  0.42219075  0.74972593  1
  Te  Te96  1  0.74946977  0.78493463  0.04107939  1
  Te  Te97  1  0.75531707  0.75073294  0.41929296  1
  Te  Te98  1  0.73920361  0.75667537  0.75626990  1
  Te  Te99  1  0.07677751  0.24078048  0.25664286  1
  Te  Te100  1  0.08373315  0.24710378  0.58166789  1
  Te  Te101  1  0.08306374  0.25568373  0.89844670  1
  Te  Te102  1  0.08934085  0.57905500  0.25239419  1
  Te  Te103  1  0.07972317  0.58896756  0.60304421  1
  Te  Te104  1  0.07840138  0.59033164  0.92779152  1
  Te  Te105  1  0.08332448  0.88673018  0.24505434  1
  Te  Te106  1  0.10281236  0.89448340  0.59769765  1
  Te  Te107  1  0.06982695  0.93376270  0.93432064  1
  Te  Te108  1  0.41398797  0.25800210  0.25021993  1
  Te  Te109  1  0.44508764  0.23066963  0.62121848  1
  Te  Te110  1  0.43649682  0.23152163  0.93578068  1
  Te  Te111  1  0.43382642  0.59129175  0.23977844  1
  Te  Te112  1  0.41369263  0.62590374  0.58864999  1
  Te  Te113  1  0.42657886  0.63233813  0.91269239  1
  Te  Te114  1  0.43877184  0.89128252  0.26236307  1
  Te  Te115  1  0.41958461  0.92701477  0.57684838  1
  Te  Te116  1  0.38774884  0.86876398  0.90875405  1
  Te  Te117  1  0.74604852  0.23941613  0.22560039  1
  Te  Te118  1  0.75546934  0.25862727  0.57734784  1
  Te  Te119  1  0.74372156  0.23112597  0.90673914  1
  Te  Te120  1  0.75064925  0.60269591  0.23756884  1
  Te  Te121  1  0.75722130  0.59290573  0.57344851  1
  Te  Te122  1  0.76317038  0.57793437  0.94504387  1
  Te  Te123  1  0.73970892  0.90546478  0.21317211  1
  Te  Te124  1  0.73536689  0.90190347  0.56473134  1
  Te  Te125  1  0.72516645  0.88606560  0.90579984  1
  Te  Te126  1  0.25590753  0.24343833  0.07696643  1
  Te  Te127  1  0.23740591  0.23580257  0.40961174  1
  Te  Te128  1  0.26015009  0.26355306  0.76244487  1
  Te  Te129  1  0.27718060  0.62694279  0.05983479  1
  Te  Te130  1  0.24541169  0.58100870  0.40974616  1
  Te  Te131  1  0.27255877  0.59247025  0.73760719  1
  Te  Te132  1  0.27336357  0.91342800  0.09191307  1
  Te  Te133  1  0.24365527  0.90990556  0.39849402  1
  Te  Te134  1  0.24493448  0.88067191  0.74731872  1
  Te  Te135  1  0.58163873  0.23160080  0.08116178  1
  Te  Te136  1  0.56972513  0.25209676  0.41500416  1
  Te  Te137  1  0.60466077  0.22824108  0.77973487  1
  Te  Te138  1  0.60243618  0.61303262  0.07407077  1
  Te  Te139  1  0.55897589  0.61536431  0.42748297  1
  Te  Te140  1  0.57262512  0.61386628  0.77563681  1
  Te  Te141  1  0.56676340  0.87531973  0.05962417  1
  Te  Te142  1  0.57813687  0.88838374  0.39476091  1
  Te  Te143  1  0.57306598  0.89606726  0.76363524  1
  Te  Te144  1  0.87686998  0.24051939  0.07665680  1
  Te  Te145  1  0.90045613  0.24806614  0.41546565  1
  Te  Te146  1  0.92667952  0.24498181  0.74511933  1
  Te  Te147  1  0.87827821  0.59837961  0.08520352  1
  Te  Te148  1  0.90311376  0.60596826  0.41314047  1
  Te  Te149  1  0.92179849  0.59978564  0.75810977  1
  Te  Te150  1  0.85246148  0.86780706  0.10824994  1
  Te  Te151  1  0.90872986  0.91480497  0.41655728  1
  Te  Te152  1  0.92232887  0.91872537  0.75182237  1
  Te  Te153  1  0.24610242  0.09288679  0.25218793  1
  Te  Te154  1  0.25560125  0.07428071  0.58031708  1
  Te  Te155  1  0.25974789  0.06481689  0.93163593  1
  Te  Te156  1  0.24427738  0.42468301  0.25524797  1
  Te  Te157  1  0.23806487  0.44053781  0.59195857  1
  Te  Te158  1  0.23821134  0.42703543  0.91857945  1
  Te  Te159  1  0.27108458  0.76894125  0.23051690  1
  Te  Te160  1  0.27623207  0.73205267  0.59288583  1
  Te  Te161  1  0.25583548  0.77320237  0.89627829  1
  Te  Te162  1  0.60579314  0.08891695  0.21937504  1
  Te  Te163  1  0.59063083  0.08331094  0.59661150  1
  Te  Te164  1  0.58734523  0.06729916  0.94109465  1
  Te  Te165  1  0.58133312  0.43496810  0.27281602  1
  Te  Te166  1  0.58512520  0.42841358  0.58697974  1
  Te  Te167  1  0.56757774  0.42796978  0.92133094  1
  Te  Te168  1  0.59156308  0.77381507  0.23382402  1
  Te  Te169  1  0.57898266  0.76645872  0.57943288  1
  Te  Te170  1  0.61580634  0.76919802  0.96156261  1
  Te  Te171  1  0.90181408  0.05265238  0.22089274  1
  Te  Te172  1  0.88908670  0.05571699  0.57544208  1
  Te  Te173  1  0.89939500  0.05987981  0.97389290  1
  Te  Te174  1  0.90260566  0.40731987  0.22734725  1
  Te  Te175  1  0.91211057  0.41344615  0.56330497  1
  Te  Te176  1  0.90641539  0.42769056  0.93672368  1
  Te  Te177  1  0.91494521  0.75673641  0.21713417  1
  Te  Te178  1  0.92260417  0.73555472  0.58893754  1
  Te  Te179  1  0.91326090  0.77995118  0.92157650  1
