# generated using pymatgen
data_In2Te3
_symmetry_space_group_name_H-M   'P 1'
_cell_length_a   19.01613500
_cell_length_b   18.98131875
_cell_length_c   18.98049029
_cell_angle_alpha   90.01333377
_cell_angle_beta   89.96517497
_cell_angle_gamma   89.95251302
_symmetry_Int_Tables_number   1
_chemical_formula_structural   In2Te3
_chemical_formula_sum   'In72 Te108'
_cell_volume   6851.02921649
_cell_formula_units_Z   36
loop_
 _symmetry_equiv_pos_site_id
 _symmetry_equiv_pos_as_xyz
  1  'x, y, z'
loop_
 _atom_site_type_symbol
 _atom_site_label
 _atom_site_symmetry_multiplicity
 _atom_site_fract_x
 _atom_site_fract_y
 _atom_site_fract_z
 _atom_site_occupancy
  In  In0  1  0.84839107  0.01936819  0.82588851  1
  In  In1  1  0.01051988  0.15893072  0.14879322  1
  In  In2  1  0.50400911  0.52242407  0.00914417  1
  In  In3  1  0.50938501  0.16460095  0.33597661  1
  In  In4  1  0.17248733  0.50401108  -0.00778617  1
  In  In5  1  0.64603038  0.84351282  0.18127219  1
  In  In6  1  0.65877958  0.34733246  0.31527568  1
  In  In7  1  0.34024189  0.32306289  -0.01686238  1
  In  In8  1  0.83478479  0.33401690  0.82478939  1
  In  In9  1  0.00416987  0.33071978  -0.01068639  1
  In  In10  1  0.17403851  0.47085273  0.67667904  1
  In  In11  1  -0.01394936  0.82284035  0.13757760  1
  In  In12  1  0.84167908  0.81766088  -0.03647738  1
  In  In13  1  0.34595567  0.35833847  0.35434314  1
  In  In14  1  0.16546425  0.16795684  -0.01450598  1
  In  In15  1  0.84440098  0.16733858  0.63813162  1
  In  In16  1  0.48473687  0.00192154  0.82311710  1
  In  In17  1  0.17098409  0.01810668  0.18388061  1
  In  In18  1  0.00207042  0.32828731  0.34073489  1
  In  In19  1  -0.00707986  -0.03127311  0.33461451  1
  In  In20  1  0.35190965  0.51843747  0.20633051  1
  In  In21  1  0.34148687  0.51231331  0.51300725  1
  In  In22  1  0.16914554  0.66981287  0.50265624  1
  In  In23  1  0.49438745  0.36227158  0.83828100  1
  In  In24  1  0.19366853  0.19700726  0.68016644  1
  In  In25  1  0.32200838  0.49368719  0.83846404  1
  In  In26  1  0.84278650  0.17517189  -0.01773306  1
  In  In27  1  0.65359794  0.00381154  0.36196455  1
  In  In28  1  0.14548214  0.66447008  0.81831823  1
  In  In29  1  0.16343587  0.82567920  0.35527278  1
  In  In30  1  0.17137162  0.84081979  0.00359902  1
  In  In31  1  -0.00695098  0.35109384  0.67290080  1
  In  In32  1  0.18115178  -0.00229073  0.82731967  1
  In  In33  1  0.00255828  0.64638121  0.66244341  1
  In  In34  1  0.63578146  0.65322040  0.33168549  1
  In  In35  1  0.49594783  0.51932905  0.68101585  1
  In  In36  1  0.85771576  0.52300027  0.36349480  1
  In  In37  1  0.66107701  0.00563645  0.01396993  1
  In  In38  1  0.15436748  0.68372853  0.18256675  1
  In  In39  1  0.65266869  0.50872987  0.50594685  1
  In  In40  1  0.17881301  0.17636263  0.33113434  1
  In  In41  1  0.64005426  0.83017751  0.84213930  1
  In  In42  1  0.84207505  -0.02063621  0.16443944  1
  In  In43  1  0.49511653  0.34700410  0.15703523  1
  In  In44  1  0.16437109  -0.02241472  0.51664423  1
  In  In45  1  0.68676340  0.26738770  0.13762015  1
  In  In46  1  0.63717753  0.81967763  0.49279728  1
  In  In47  1  0.02118241  0.15471663  0.51469914  1
  In  In48  1  0.84944422  0.66118654  0.80530620  1
  In  In49  1  0.35201228  0.79967034  0.48929429  1
  In  In50  1  0.32213849  -0.00388348  -0.01741165  1
  In  In51  1  0.67980044  0.48674796  0.83801779  1
  In  In52  1  0.34082218  0.15588053  0.15610102  1
  In  In53  1  0.65052143  0.17863121  0.80716891  1
  In  In54  1  0.01807225  -0.02116417  0.67535913  1
  In  In55  1  0.49434084  -0.00064610  0.17393349  1
  In  In56  1  0.32733720  0.67459190  0.00496888  1
  In  In57  1  0.81116657  0.67462164  0.18025751  1
  In  In58  1  0.35284715  0.20051677  0.50974794  1
  In  In59  1  0.83488918  0.81095442  0.36270068  1
  In  In60  1  0.66546060  0.17062345  0.48555294  1
  In  In61  1  0.65519670  0.67429528  0.00214544  1
  In  In62  1  0.35591845  0.81161224  0.79482575  1
  In  In63  1  0.85090617  0.33026420  0.50198188  1
  In  In64  1  -0.01063154  0.49508055  0.15711947  1
  In  In65  1  0.64526716  0.00209546  0.63336954  1
  In  In66  1  0.34903807  -0.00420347  0.63690781  1
  In  In67  1  0.80871671  0.49066445  0.03144231  1
  In  In68  1  0.15410237  0.49269590  0.34632954  1
  In  In69  1  0.84124839  0.81923052  0.63821264  1
  In  In70  1  0.36040391  0.81812547  0.18431712  1
  In  In71  1  0.66098871  0.65522469  0.66786588  1
  Te  Te72  1  0.09013606  0.06102741  0.06485860  1
  Te  Te73  1  0.09405102  0.06942323  0.40392700  1
  Te  Te74  1  0.09799582  0.08879221  0.73866664  1
  Te  Te75  1  0.09162717  0.41206902  0.08385764  1
  Te  Te76  1  0.06808626  0.41625702  0.43627384  1
  Te  Te77  1  0.07572587  0.41982141  0.77235379  1
  Te  Te78  1  0.08018162  0.73301719  0.06001840  1
  Te  Te79  1  0.06663912  0.72784604  0.40924502  1
  Te  Te80  1  0.07902785  0.75665637  0.72477438  1
  Te  Te81  1  0.42475620  0.07638364  0.06047656  1
  Te  Te82  1  0.41265240  0.09877034  0.42333405  1
  Te  Te83  1  0.41520894  0.09341319  0.72875922  1
  Te  Te84  1  0.39140104  0.43690841  0.07381320  1
  Te  Te85  1  0.43582856  0.41380954  0.45473151  1
  Te  Te86  1  0.38411498  0.40388673  0.73090462  1
  Te  Te87  1  0.43046590  0.72645608  0.09479894  1
  Te  Te88  1  0.44260200  0.71187894  0.40578202  1
  Te  Te89  1  0.43823509  0.73604223  0.70001640  1
  Te  Te90  1  0.76753552  0.08495682  0.08412143  1
  Te  Te91  1  0.76088093  0.07581040  0.42820570  1
  Te  Te92  1  0.74567237  0.07922062  0.72883369  1
  Te  Te93  1  0.72246527  0.41377588  0.11934439  1
  Te  Te94  1  0.75507622  0.41874389  0.41996074  1
  Te  Te95  1  0.74056848  0.40214289  0.73650368  1
  Te  Te96  1  0.75193342  0.77982045  0.08217262  1
  Te  Te97  1  0.73271505  0.72205046  0.42793157  1
  Te  Te98  1  0.74470725  0.76567697  0.75038681  1
  Te  Te99  1  0.08879682  0.25352040  0.23797886  1
  Te  Te100  1  0.08999996  0.26359340  0.58991523  1
  Te  Te101  1  0.07326549  0.23969260  0.89777911  1
  Te  Te102  1  0.06975476  0.58062180  0.25329471  1
  Te  Te103  1  0.09756424  0.56168445  0.57965749  1
  Te  Te104  1  0.07502745  0.57694280  0.91248838  1
  Te  Te105  1  0.08889763  0.89862694  0.23231813  1
  Te  Te106  1  0.08295958  0.87797638  0.58800944  1
  Te  Te107  1  0.09124825  0.91470543  0.90706496  1
  Te  Te108  1  0.40935296  0.25533971  0.25134810  1
  Te  Te109  1  0.44639198  0.21616078  0.62362506  1
  Te  Te110  1  0.43291197  0.24525861  0.90289719  1
  Te  Te111  1  0.42943319  0.59623581  0.30198380  1
  Te  Te112  1  0.39862622  0.61042113  0.61347522  1
  Te  Te113  1  0.41198718  0.59195064  0.90887398  1
  Te  Te114  1  0.42641881  0.91529551  0.27142208  1
  Te  Te115  1  0.43565240  0.90469471  0.55824949  1
  Te  Te116  1  0.41132169  0.89940477  0.90766823  1
  Te  Te117  1  0.74348986  0.23774120  0.26756088  1
  Te  Te118  1  0.74165994  0.26096457  0.58310646  1
  Te  Te119  1  0.73633055  0.25363976  0.90924724  1
  Te  Te120  1  0.74674669  0.57182255  0.26666998  1
  Te  Te121  1  0.75389141  0.57837454  0.58636526  1
  Te  Te122  1  0.75622642  0.59664873  0.92043825  1
  Te  Te123  1  0.75267455  0.91085775  0.26742398  1
  Te  Te124  1  0.74205599  0.90792400  0.56380251  1
  Te  Te125  1  0.74447787  0.93136656  0.90733362  1
  Te  Te126  1  0.24775539  0.24854476  0.08351081  1
  Te  Te127  1  0.24258944  0.27197938  0.42638312  1
  Te  Te128  1  0.28294575  0.28778488  0.74985806  1
  Te  Te129  1  0.24573689  0.58969096  0.10302622  1
  Te  Te130  1  0.25518991  0.58452582  0.41087049  1
  Te  Te131  1  0.25041211  0.58701931  0.74340400  1
  Te  Te132  1  0.26412463  0.92014725  0.10157768  1
  Te  Te133  1  0.26382296  0.91299450  0.42310958  1
  Te  Te134  1  0.26313019  0.91253910  0.73121029  1
  Te  Te135  1  0.55696123  0.24027384  0.07859843  1
  Te  Te136  1  0.57446170  0.27276884  0.41811179  1
  Te  Te137  1  0.56550970  0.27631979  0.73645465  1
  Te  Te138  1  0.58739671  0.59523333  0.10494006  1
  Te  Te139  1  0.54853414  0.59914082  0.44348910  1
  Te  Te140  1  0.58441589  0.58985293  0.78143876  1
  Te  Te141  1  0.56293582  0.90705571  0.07184068  1
  Te  Te142  1  0.55202303  0.93152811  0.44149026  1
  Te  Te143  1  0.57225585  0.91520033  0.73539788  1
  Te  Te144  1  0.91387621  0.25840159  0.08852736  1
  Te  Te145  1  0.92449268  0.22472775  0.42104091  1
  Te  Te146  1  0.92139210  0.23592206  0.74609586  1
  Te  Te147  1  0.90272924  0.59716596  0.08580857  1
  Te  Te148  1  0.93649921  0.62725721  0.43024327  1
  Te  Te149  1  0.91471593  0.55111473  0.73486601  1
  Te  Te150  1  0.92039632  0.92293099  0.04780195  1
  Te  Te151  1  0.92465350  0.89610868  0.44041557  1
  Te  Te152  1  0.90865757  0.90386106  0.74850163  1
  Te  Te153  1  0.27820860  0.07828111  0.27085758  1
  Te  Te154  1  0.24519857  0.09493332  0.57094342  1
  Te  Te155  1  0.26761129  0.10379345  0.89248983  1
  Te  Te156  1  0.24964851  0.41821819  0.25209392  1
  Te  Te157  1  0.27018852  0.40376632  0.58618724  1
  Te  Te158  1  0.22990931  0.39359871  0.90525311  1
  Te  Te159  1  0.26048105  0.74304707  0.27109692  1
  Te  Te160  1  0.24301042  0.76863946  0.58248544  1
  Te  Te161  1  0.25137946  0.75615150  0.90124167  1
  Te  Te162  1  0.59890316  0.08300523  0.24408287  1
  Te  Te163  1  0.56174432  0.11136216  0.57776184  1
  Te  Te164  1  0.58601718  0.08069433  0.90563659  1
  Te  Te165  1  0.55994842  0.43582017  0.25227286  1
  Te  Te166  1  0.57757218  0.42655231  0.60294595  1
  Te  Te167  1  0.59133008  0.41913070  0.94093253  1
  Te  Te168  1  0.56087892  0.76859257  0.27470990  1
  Te  Te169  1  0.56622015  0.75404324  0.60783186  1
  Te  Te170  1  0.55412235  0.74522206  0.92243950  1
  Te  Te171  1  0.92823920  0.07340116  0.24628776  1
  Te  Te172  1  0.92678869  0.05558404  0.57852467  1
  Te  Te173  1  0.94078150  0.09484187  0.90906824  1
  Te  Te174  1  0.90992431  0.42013815  0.26165200  1
  Te  Te175  1  0.91263408  0.43580055  0.58322132  1
  Te  Te176  1  0.89942708  0.42367710  0.93006807  1
  Te  Te177  1  0.92151183  0.74891616  0.25182340  1
  Te  Te178  1  0.90733847  0.70927694  0.56161439  1
  Te  Te179  1  0.93965548  0.73655337  0.89348654  1
