# generated using pymatgen
data_In2Te3
_symmetry_space_group_name_H-M   'P 1'
_cell_length_a   19.03174205
_cell_length_b   19.01166700
_cell_length_c   19.04556420
_cell_angle_alpha   89.95272853
_cell_angle_beta   89.75774771
_cell_angle_gamma   89.89528307
_symmetry_Int_Tables_number   1
_chemical_formula_structural   In2Te3
_chemical_formula_sum   'In72 Te108'
_cell_volume   6891.08857061
_cell_formula_units_Z   36
loop_
 _symmetry_equiv_pos_site_id
 _symmetry_equiv_pos_as_xyz
  1  'x, y, z'
loop_
 _atom_site_type_symbol
 _atom_site_label
 _atom_site_symmetry_multiplicity
 _atom_site_fract_x
 _atom_site_fract_y
 _atom_site_fract_z
 _atom_site_occupancy
  In  In0  1  0.52512930  0.47939552  0.64257865  1
  In  In1  1  0.49729660  0.82473652  0.31598864  1
  In  In2  1  0.01472464  0.16542998  0.46834692  1
  In  In3  1  -0.03289264  0.49714745  0.49507723  1
  In  In4  1  0.17584840  0.33336276  0.88775035  1
  In  In5  1  0.32190009  0.50443988  0.84166121  1
  In  In6  1  0.34233237  0.31229100  0.67462413  1
  In  In7  1  0.71286072  0.49083334  0.45864942  1
  In  In8  1  0.34829168  0.69744856  0.65217186  1
  In  In9  1  0.34680990  0.17810691  0.50718742  1
  In  In10  1  0.31265385  0.03037834  -0.02808181  1
  In  In11  1  0.00071610  0.18107582  0.82739681  1
  In  In12  1  0.36583042  0.02449077  0.67130370  1
  In  In13  1  -0.00908147  0.84276917  0.50050266  1
  In  In14  1  0.64852188  0.48453327  0.85304396  1
  In  In15  1  0.48532820  0.62420251  0.18181405  1
  In  In16  1  0.69461950  0.82610454  0.50870046  1
  In  In17  1  0.66751222  0.64888676  0.02319022  1
  In  In18  1  0.33621665  0.47524820  0.17156580  1
  In  In19  1  0.15526707  0.67256381  0.84525527  1
  In  In20  1  0.14978730  0.50490232  0.68562648  1
  In  In21  1  0.64804722  0.86626978  0.15567382  1
  In  In22  1  0.66609699  0.17191655  0.19372921  1
  In  In23  1  0.15864374  0.84074555  0.32926305  1
  In  In24  1  0.16387580  0.86225409  0.64971652  1
  In  In25  1  -0.00282891  0.66142919  0.33263130  1
  In  In26  1  0.82892301  0.31907086  0.80997746  1
  In  In27  1  0.15518574  0.67313751  0.17233822  1
  In  In28  1  0.48263045  0.31701719  0.84713405  1
  In  In29  1  0.52661580  0.01552449  0.50234643  1
  In  In30  1  0.50386596  0.83269170  -0.00325813  1
  In  In31  1  0.16656636  0.49882592  0.32128793  1
  In  In32  1  0.82254618  0.00914192  0.50546140  1
  In  In33  1  0.53223229  0.67288924  0.50165731  1
  In  In34  1  0.65473643  0.83774559  0.83673361  1
  In  In35  1  -0.01452297  0.01597374  0.66193543  1
  In  In36  1  0.67802714  0.00800626  0.34550230  1
  In  In37  1  0.19447726  0.02070320  0.17634703  1
  In  In38  1  0.31405890  0.82517582  0.82925183  1
  In  In39  1  0.50704038  0.03421931  0.86615623  1
  In  In40  1  -0.00167186  0.49469362  0.84639694  1
  In  In41  1  0.82210914  -0.01621955  0.83041517  1
  In  In42  1  0.49226447  0.85976554  0.69522543  1
  In  In43  1  -0.00404091  0.67015322  0.64642261  1
  In  In44  1  0.00086203  0.84589450  0.84667304  1
  In  In45  1  0.66843376  0.47685813  0.18975589  1
  In  In46  1  0.34676497  0.34855043  0.33621349  1
  In  In47  1  0.02203862  -0.00068671  0.00505968  1
  In  In48  1  0.83124984  -0.01872566  0.16523122  1
  In  In49  1  0.01486761  0.64149467  0.00797742  1
  In  In50  1  -0.00990800  0.35324275  0.18822389  1
  In  In51  1  0.82916242  0.50623677  0.65603074  1
  In  In52  1  0.32936040  0.49411087  0.48865679  1
  In  In53  1  0.43411405  0.03560813  0.16337954  1
  In  In54  1  0.54067888  0.29778622  0.51607246  1
  In  In55  1  0.50283945  0.17719226  0.34592658  1
  In  In56  1  0.51477265  0.32857568  0.16647439  1
  In  In57  1  0.67251839  0.66901890  0.34089320  1
  In  In58  1  0.16509131  0.35106166  0.48634314  1
  In  In59  1  0.01941103  0.00270747  0.33324616  1
  In  In60  1  0.84682222  0.18174084  0.32245961  1
  In  In61  1  0.02349215  0.17579679  0.15051735  1
  In  In62  1  0.85276195  0.67588248  0.16168288  1
  In  In63  1  0.80505040  0.48574452  0.00922154  1
  In  In64  1  0.15755157  0.16313433  0.66613866  1
  In  In65  1  0.83584003  0.82885612  -0.03061525  1
  In  In66  1  0.66524012  0.16673467  0.80440773  1
  In  In67  1  0.68206135  0.66254234  0.68899589  1
  In  In68  1  0.83325954  0.16025426  0.00933049  1
  In  In69  1  0.31956536  0.83280241  0.16622599  1
  In  In70  1  0.33463609  0.64247643  0.00715943  1
  In  In71  1  0.32553988  0.83772933  0.47121754  1
  Te  Te72  1  0.12026778  0.09628620  0.06625349  1
  Te  Te73  1  0.11599792  0.09721842  0.38621339  1
  Te  Te74  1  0.08343328  0.07145869  0.76176625  1
  Te  Te75  1  0.06546766  0.38661814  0.05993104  1
  Te  Te76  1  0.06415956  0.42154484  0.40226553  1
  Te  Te77  1  0.08615182  0.40062460  0.76826344  1
  Te  Te78  1  0.08310791  0.75142768  0.07345439  1
  Te  Te79  1  0.08139409  0.75033588  0.42280129  1
  Te  Te80  1  0.09097711  0.75946468  0.73848097  1
  Te  Te81  1  0.38945402  0.12687409  0.05398834  1
  Te  Te82  1  0.41637427  0.07570863  0.41991324  1
  Te  Te83  1  0.41080610  0.11240001  0.78190016  1
  Te  Te84  1  0.41330007  0.39122467  0.07841223  1
  Te  Te85  1  0.43071736  0.38925925  0.45405630  1
  Te  Te86  1  0.41545092  0.42679885  0.74180434  1
  Te  Te87  1  0.42268918  0.74567601  0.09250824  1
  Te  Te88  1  0.42567065  0.73465849  0.41368603  1
  Te  Te89  1  0.42848716  0.74481162  0.77090313  1
  Te  Te90  1  0.74020092  0.07696581  0.09495308  1
  Te  Te91  1  0.74874676  0.11381317  0.42250179  1
  Te  Te92  1  0.77956725  0.09140436  0.73907289  1
  Te  Te93  1  0.71341254  0.39456687  0.07616930  1
  Te  Te94  1  0.80647721  0.39091134  0.40159468  1
  Te  Te95  1  0.73966567  0.42380931  0.74782860  1
  Te  Te96  1  0.74541844  0.76656803  0.08117663  1
  Te  Te97  1  0.77155955  0.74483778  0.41605836  1
  Te  Te98  1  0.75590388  0.76251414  0.76346040  1
  Te  Te99  1  0.07981186  0.25809324  0.25723476  1
  Te  Te100  1  0.08508432  0.25581729  0.57246760  1
  Te  Te101  1  0.05121217  0.26505697  0.94011763  1
  Te  Te102  1  0.06491608  0.56818941  0.23358610  1
  Te  Te103  1  0.08237927  0.57261799  0.57116714  1
  Te  Te104  1  0.11190465  0.55473875  0.92736100  1
  Te  Te105  1  0.08827902  0.92341807  0.22414596  1
  Te  Te106  1  0.07884078  0.94968200  0.56190499  1
  Te  Te107  1  0.10490543  0.92149961  0.91206127  1
  Te  Te108  1  0.40807988  0.24255957  0.24835877  1
  Te  Te109  1  0.44761419  0.22209890  0.61091024  1
  Te  Te110  1  0.38058225  0.22186568  0.90089770  1
  Te  Te111  1  0.40387926  0.55266041  0.27713744  1
  Te  Te112  1  0.42502488  0.58577089  0.58145728  1
  Te  Te113  1  0.42467795  0.57898207  0.91277798  1
  Te  Te114  1  0.39657693  0.92004684  0.26123090  1
  Te  Te115  1  0.41794584  0.91205862  0.57444138  1
  Te  Te116  1  0.40959266  0.91717225  0.91169750  1
  Te  Te117  1  0.76794605  0.27300313  0.23425579  1
  Te  Te118  1  0.69199238  0.20533209  0.65489799  1
  Te  Te119  1  0.75146304  0.24190555  0.91373768  1
  Te  Te120  1  0.75482726  0.58939598  0.24172155  1
  Te  Te121  1  0.74255237  0.59457072  0.56991932  1
  Te  Te122  1  0.74859336  0.58677723  0.91223624  1
  Te  Te123  1  0.74808028  0.90122394  0.26356056  1
  Te  Te124  1  0.72945573  0.93830940  0.59283252  1
  Te  Te125  1  0.72698444  0.92919221  0.93460545  1
  Te  Te126  1  0.18760227  0.30583578  0.04071821  1
  Te  Te127  1  0.25581505  0.25351872  0.41426446  1
  Te  Te128  1  0.23251264  0.25537403  0.75942192  1
  Te  Te129  1  0.24174500  0.57011460  0.09857757  1
  Te  Te130  1  0.24312185  0.58224764  0.41348845  1
  Te  Te131  1  0.25156054  0.60655937  0.73811422  1
  Te  Te132  1  0.25422929  0.92684528  0.07149121  1
  Te  Te133  1  0.23868731  0.93488182  0.40750729  1
  Te  Te134  1  0.26088732  0.93354747  0.74033020  1
  Te  Te135  1  0.57610322  0.21865220  0.08744143  1
  Te  Te136  1  0.61570509  0.25447363  0.39776087  1
  Te  Te137  1  0.58561101  0.28134655  0.74476914  1
  Te  Te138  1  0.57279335  0.55095865  0.08614528  1
  Te  Te139  1  0.58574747  0.56672606  0.40977703  1
  Te  Te140  1  0.57620015  0.57368089  0.74810958  1
  Te  Te141  1  0.54340986  0.94682341  0.08648674  1
  Te  Te142  1  0.58508455  0.89886839  0.41419333  1
  Te  Te143  1  0.58596582  0.95369411  0.76274139  1
  Te  Te144  1  0.91126986  0.25801198  0.09002287  1
  Te  Te145  1  0.92408468  0.27047464  0.41220645  1
  Te  Te146  1  0.92619105  0.25069372  0.72378414  1
  Te  Te147  1  0.91348165  0.56025788  0.08561281  1
  Te  Te148  1  0.89402527  0.59210320  0.41164061  1
  Te  Te149  1  0.92407518  0.58253492  0.74679188  1
  Te  Te150  1  0.91982330  0.90541703  0.06929267  1
  Te  Te151  1  0.90914699  0.93097861  0.40825396  1
  Te  Te152  1  0.91476087  0.90564222  0.73813899  1
  Te  Te153  1  0.30797261  0.10601976  0.21522708  1
  Te  Te154  1  0.25640623  0.08337258  0.58341490  1
  Te  Te155  1  0.25119783  0.13749259  0.89069708  1
  Te  Te156  1  0.23362586  0.38847763  0.24336389  1
  Te  Te157  1  0.25053413  0.41685459  0.59902317  1
  Te  Te158  1  0.29081208  0.40770887  0.95104454  1
  Te  Te159  1  0.25380995  0.73977549  0.26468935  1
  Te  Te160  1  0.23873837  0.75762603  0.56856736  1
  Te  Te161  1  0.24599502  0.74732253  0.93915123  1
  Te  Te162  1  0.56941374  0.06548649  0.25852869  1
  Te  Te163  1  0.58486090  0.10951216  0.59497770  1
  Te  Te164  1  0.59257595  0.13216412  0.93181169  1
  Te  Te165  1  0.57946110  0.39921433  0.27661430  1
  Te  Te166  1  0.63162636  0.40946261  0.56373506  1
  Te  Te167  1  0.57228642  0.39086404  0.93553139  1
  Te  Te168  1  0.58704629  0.74004071  0.22789598  1
  Te  Te169  1  0.58238545  0.76542568  0.60978859  1
  Te  Te170  1  0.58667879  0.73204807  0.92291450  1
  Te  Te171  1  0.92441528  0.08007484  0.23185630  1
  Te  Te172  1  0.91361543  0.11042037  0.57019452  1
  Te  Te173  1  0.91782316  0.07208822  0.91627777  1
  Te  Te174  1  0.86748632  0.40096032  0.26027269  1
  Te  Te175  1  0.91225615  0.40387285  0.59390430  1
  Te  Te176  1  0.89635071  0.40855968  0.91411967  1
  Te  Te177  1  0.93575092  0.76062964  0.24339836  1
  Te  Te178  1  0.90236208  0.76137733  0.58328307  1
  Te  Te179  1  0.93151477  0.72763319  0.91022915  1
