# generated using pymatgen
data_In2Te3
_symmetry_space_group_name_H-M   'P 1'
_cell_length_a   18.86585977
_cell_length_b   18.84727275
_cell_length_c   18.85066230
_cell_angle_alpha   90.00080581
_cell_angle_beta   89.78319780
_cell_angle_gamma   89.94796086
_symmetry_Int_Tables_number   1
_chemical_formula_structural   In2Te3
_chemical_formula_sum   'In72 Te108'
_cell_volume   6702.67933341
_cell_formula_units_Z   36
loop_
 _symmetry_equiv_pos_site_id
 _symmetry_equiv_pos_as_xyz
  1  'x, y, z'
loop_
 _atom_site_type_symbol
 _atom_site_label
 _atom_site_symmetry_multiplicity
 _atom_site_fract_x
 _atom_site_fract_y
 _atom_site_fract_z
 _atom_site_occupancy
  In  In0  1  0.50184361  0.65365600  0.51431392  1
  In  In1  1  -0.02001488  0.82939071  0.49197647  1
  In  In2  1  -0.01399549  0.50637559  0.84444179  1
  In  In3  1  0.50294883  0.65319991  0.17279358  1
  In  In4  1  0.84075375  0.48498148  0.31094112  1
  In  In5  1  0.36327730  0.21088589  0.50350318  1
  In  In6  1  0.18817078  0.17200639  0.68008644  1
  In  In7  1  0.14403771  0.83609002  0.00598983  1
  In  In8  1  0.49649425  0.49579157  -0.01786763  1
  In  In9  1  0.17346354  0.20687983  0.00872566  1
  In  In10  1  0.17385097  0.00706067  0.86488253  1
  In  In11  1  0.81732797  -0.00986895  0.83820849  1
  In  In12  1  0.67579308  0.15773147  0.23334968  1
  In  In13  1  0.81174554  0.81314909  0.63909344  1
  In  In14  1  0.33628012  0.66596964  0.33434263  1
  In  In15  1  0.15886468  0.34295372  0.48851343  1
  In  In16  1  0.34451007  -0.00095632  0.33902077  1
  In  In17  1  -0.01932500  -0.00043196  0.66335404  1
  In  In18  1  0.15518030  -0.00451040  0.48575633  1
  In  In19  1  0.16148410  0.62641697  0.86741483  1
  In  In20  1  0.15229897  0.49692230  0.33350499  1
  In  In21  1  0.84834785  0.65423132  0.17356141  1
  In  In22  1  0.16014277  0.15996894  0.33440139  1
  In  In23  1  0.81959726  0.33694428  0.80911091  1
  In  In24  1  0.15386985  0.80417075  0.69655228  1
  In  In25  1  0.51618314  0.64303724  0.79107766  1
  In  In26  1  0.67843844  0.81819522  0.83181059  1
  In  In27  1  0.31785910  0.83991456  0.84509953  1
  In  In28  1  0.82247086  0.49795802  0.01628818  1
  In  In29  1  0.83694395  0.32512270  0.48387701  1
  In  In30  1  0.03717366  0.18291947  0.86776382  1
  In  In31  1  0.35492856  0.21433061  0.80688843  1
  In  In32  1  0.36090762  0.18090939  0.15985425  1
  In  In33  1  0.34969779  0.48599813  0.82238765  1
  In  In34  1  0.15747217  0.64337532  0.14771774  1
  In  In35  1  -0.00448847  0.34492037  0.64678271  1
  In  In36  1  0.35016800  0.02526415  0.01363731  1
  In  In37  1  0.49636388  0.16211432  0.00256581  1
  In  In38  1  0.66005905  0.15385768  0.82673425  1
  In  In39  1  0.67173393  0.66507249  0.00668236  1
  In  In40  1  -0.02205915  0.19347463  0.46021869  1
  In  In41  1  0.52527785  -0.02960415  0.47403357  1
  In  In42  1  0.65978057  0.35841893  0.62334266  1
  In  In43  1  0.34652394  0.84783501  0.49354770  1
  In  In44  1  0.67715307  0.00219866  0.02034798  1
  In  In45  1  0.52327513  0.32030802  0.17968168  1
  In  In46  1  0.51050247  0.17325790  0.65407084  1
  In  In47  1  0.32640655  0.50584281  0.18419321  1
  In  In48  1  0.36627675  0.65601886  0.63744783  1
  In  In49  1  0.82881402  0.21795346  0.65181745  1
  In  In50  1  0.15306745  0.68340345  0.48464995  1
  In  In51  1  -0.01930928  0.68890770  0.67079382  1
  In  In52  1  0.84654804  0.66353771  0.85710568  1
  In  In53  1  -0.01439243  0.51344627  0.47778238  1
  In  In54  1  0.35699794  0.46035514  0.47344297  1
  In  In55  1  0.65979248  0.34056633  0.34691802  1
  In  In56  1  0.00158341  -0.01400247  0.02243112  1
  In  In57  1  0.66384140  0.34813962  -0.00494606  1
  In  In58  1  0.33242488  0.83033409  0.17505280  1
  In  In59  1  0.81186861  0.04232917  0.46254059  1
  In  In60  1  0.33599366  0.34036230  -0.00995419  1
  In  In61  1  0.67661588  0.65083581  0.34579020  1
  In  In62  1  0.16774465  0.50776354  0.67757703  1
  In  In63  1  0.53950424  0.79023499  0.66822562  1
  In  In64  1  0.34833817  0.02302779  0.65799758  1
  In  In65  1  0.84785961  0.15865915  0.01812284  1
  In  In66  1  -0.03611470  0.83961372  0.19801419  1
  In  In67  1  0.50485287  0.82555516  0.02964403  1
  In  In68  1  0.13977529  0.00001594  0.17311599  1
  In  In69  1  0.66618124  -0.02174777  0.66304702  1
  In  In70  1  0.70858225  0.84270711  0.20848449  1
  In  In71  1  -0.03054601  0.17854267  0.20158166  1
  Te  Te72  1  0.07975184  0.10386576  0.07952688  1
  Te  Te73  1  0.05486170  0.07306625  0.40119477  1
  Te  Te74  1  0.08649881  0.07520520  0.74865906  1
  Te  Te75  1  0.05142426  0.37170558  0.13879373  1
  Te  Te76  1  0.04909269  0.39881308  0.40153164  1
  Te  Te77  1  0.07564433  0.41640587  0.75502707  1
  Te  Te78  1  0.06483154  0.75935246  0.10636341  1
  Te  Te79  1  0.06251260  0.75266289  0.39394823  1
  Te  Te80  1  0.05969340  0.72621522  0.79923897  1
  Te  Te81  1  0.45315374  0.06650777  0.11624796  1
  Te  Te82  1  0.42197881  0.08261514  0.44030698  1
  Te  Te83  1  0.43391265  0.09085948  0.76205438  1
  Te  Te84  1  0.42662858  0.41251877  0.09259607  1
  Te  Te85  1  0.44398469  0.34911031  0.40950117  1
  Te  Te86  1  0.42460182  0.39586784  0.73625970  1
  Te  Te87  1  0.40173280  0.72639137  0.08562080  1
  Te  Te88  1  0.43334387  0.75212114  0.41323907  1
  Te  Te89  1  0.40872630  0.75903336  0.75115263  1
  Te  Te90  1  0.75987224  0.08338067  0.11835011  1
  Te  Te91  1  0.70841424  0.10987557  0.37898574  1
  Te  Te92  1  0.76124652  0.08668062  0.73058690  1
  Te  Te93  1  0.75510558  0.39527901  0.09945867  1
  Te  Te94  1  0.75322732  0.43816855  0.42731711  1
  Te  Te95  1  0.74669293  0.42965036  0.72127660  1
  Te  Te96  1  0.76006607  0.75081275  0.09262129  1
  Te  Te97  1  0.71188986  0.78065711  0.41222774  1
  Te  Te98  1  0.74558021  0.71950863  0.73974713  1
  Te  Te99  1  0.08748069  0.25970809  0.24701129  1
  Te  Te100  1  0.08325188  0.23731213  0.57495679  1
  Te  Te101  1  0.07806547  0.30034906  0.94565531  1
  Te  Te102  1  0.06426937  0.58142361  0.24886985  1
  Te  Te103  1  0.07613480  0.59070241  0.58734473  1
  Te  Te104  1  0.06087490  0.56583745  0.95972800  1
  Te  Te105  1  0.07543757  0.91000714  0.26776766  1
  Te  Te106  1  0.08178589  0.90601773  0.58804638  1
  Te  Te107  1  0.06181343  0.91078010  0.90046608  1
  Te  Te108  1  0.43687270  0.23940622  0.27249493  1
  Te  Te109  1  0.40606034  0.28218998  0.62875727  1
  Te  Te110  1  0.44807319  0.27307378  0.91048409  1
  Te  Te111  1  0.43334533  0.56441911  0.27606938  1
  Te  Te112  1  0.43229328  0.52658306  0.59142506  1
  Te  Te113  1  0.41728631  0.59707254  0.90137874  1
  Te  Te114  1  0.42479228  0.90210841  0.26252467  1
  Te  Te115  1  0.43736241  0.91296546  0.59651562  1
  Te  Te116  1  0.41760853  0.91296487  0.93402881  1
  Te  Te117  1  0.75952166  0.28060261  0.24961503  1
  Te  Te118  1  0.72397443  0.24007946  0.54609003  1
  Te  Te119  1  0.75777387  0.23168928  0.91339863  1
  Te  Te120  1  0.73814397  0.56732895  0.23244864  1
  Te  Te121  1  0.68260725  0.64167911  0.59628366  1
  Te  Te122  1  0.73742368  0.57039938  0.90758256  1
  Te  Te123  1  0.79962443  0.94130670  0.27939061  1
  Te  Te124  1  0.75760801  0.92650267  0.55409745  1
  Te  Te125  1  0.75373665  0.89503670  0.93792422  1
  Te  Te126  1  0.25832704  0.28125850  0.10977924  1
  Te  Te127  1  0.25381296  0.25573223  0.40661485  1
  Te  Te128  1  0.22598293  0.27651250  0.77453489  1
  Te  Te129  1  0.24045556  0.54573597  0.07160120  1
  Te  Te130  1  0.25590508  0.58101017  0.43454842  1
  Te  Te131  1  0.25820012  0.60787895  0.74476941  1
  Te  Te132  1  0.24936292  0.92833656  0.07752405  1
  Te  Te133  1  0.23989110  0.90261296  0.39921861  1
  Te  Te134  1  0.24972461  0.93380601  0.74382159  1
  Te  Te135  1  0.60451679  0.23134073  0.08232945  1
  Te  Te136  1  0.56808960  0.27542893  0.44806139  1
  Te  Te137  1  0.60613124  0.25996456  0.73461778  1
  Te  Te138  1  0.58839279  0.56395967  0.08372852  1
  Te  Te139  1  0.58206453  0.55989917  0.42581915  1
  Te  Te140  1  0.59959232  0.56673350  0.69530170  1
  Te  Te141  1  0.60118991  0.90744149  0.11274665  1
  Te  Te142  1  0.62331212  0.91876020  0.37216063  1
  Te  Te143  1  0.57813529  0.90974473  0.76385942  1
  Te  Te144  1  0.92661911  0.26468014  0.08712407  1
  Te  Te145  1  0.88733716  0.25435875  0.35969099  1
  Te  Te146  1  0.93992957  0.24266289  0.75500190  1
  Te  Te147  1  0.92438984  0.59986063  0.05574537  1
  Te  Te148  1  0.89930585  0.59830935  0.39200799  1
  Te  Te149  1  0.90243193  0.57737502  0.73945953  1
  Te  Te150  1  0.89273615  0.91682603  0.09202785  1
  Te  Te151  1  0.90105318  0.92969654  0.41189108  1
  Te  Te152  1  0.89345883  0.90066332  0.73890234  1
  Te  Te153  1  0.25648666  0.08574676  0.23888684  1
  Te  Te154  1  0.24874244  0.09066082  0.56102525  1
  Te  Te155  1  0.26973651  0.11428611  0.91870331  1
  Te  Te156  1  0.25960221  0.41303514  0.27739545  1
  Te  Te157  1  0.24800206  0.42030377  0.58226949  1
  Te  Te158  1  0.24856094  0.43863987  0.92150232  1
  Te  Te159  1  0.23671831  0.73569413  0.24630868  1
  Te  Te160  1  0.25711155  0.75593857  0.57786488  1
  Te  Te161  1  0.24042126  0.74314368  0.93308028  1
  Te  Te162  1  0.58823288  0.05183319  0.29358441  1
  Te  Te163  1  0.58996087  0.07265539  0.57103414  1
  Te  Te164  1  0.58059576  0.06314529  0.91972825  1
  Te  Te165  1  0.58957740  0.42952215  0.25152741  1
  Te  Te166  1  0.57606961  0.44248109  0.53333692  1
  Te  Te167  1  0.59167271  0.42536218  0.89374764  1
  Te  Te168  1  0.59431241  0.74326389  0.24995249  1
  Te  Te169  1  0.61514199  0.76743627  0.53394348  1
  Te  Te170  1  0.57317580  0.74078638  0.91431653  1
  Te  Te171  1  0.89444061  0.05321256  0.22529195  1
  Te  Te172  1  0.91185029  0.10217636  0.57362784  1
  Te  Te173  1  0.92301974  0.07650436  0.90780594  1
  Te  Te174  1  0.95475213  0.45816124  0.20747090  1
  Te  Te175  1  0.89841858  0.43528512  0.57725387  1
  Te  Te176  1  0.89952769  0.40476440  0.91857871  1
  Te  Te177  1  0.89811863  0.73712386  0.28700538  1
  Te  Te178  1  0.89159535  0.71791436  0.54986924  1
  Te  Te179  1  0.94342830  0.76283329  0.89855285  1
