# generated using pymatgen
data_In2Te3
_symmetry_space_group_name_H-M   'P 1'
_cell_length_a   18.77574626
_cell_length_b   18.78748279
_cell_length_c   18.77798926
_cell_angle_alpha   89.89938534
_cell_angle_beta   89.95418137
_cell_angle_gamma   89.93248426
_symmetry_Int_Tables_number   1
_chemical_formula_structural   In2Te3
_chemical_formula_sum   'In72 Te108'
_cell_volume   6623.90019931
_cell_formula_units_Z   36
loop_
 _symmetry_equiv_pos_site_id
 _symmetry_equiv_pos_as_xyz
  1  'x, y, z'
loop_
 _atom_site_type_symbol
 _atom_site_label
 _atom_site_symmetry_multiplicity
 _atom_site_fract_x
 _atom_site_fract_y
 _atom_site_fract_z
 _atom_site_occupancy
  In  In0  1  0.34463944  0.82434026  0.15438498  1
  In  In1  1  0.32490876  0.01547342  0.69105251  1
  In  In2  1  0.67713827  -0.00101179  -0.00288197  1
  In  In3  1  0.82354278  0.65070119  0.48726448  1
  In  In4  1  0.31605251  0.64590808  0.67704253  1
  In  In5  1  0.31853675  0.32799223  0.65385058  1
  In  In6  1  0.33686771  0.17857801  0.48699416  1
  In  In7  1  0.67832169  0.51420992  0.16296498  1
  In  In8  1  0.50853272  0.51150470  0.66629713  1
  In  In9  1  0.66635219  0.66210011  0.68119732  1
  In  In10  1  0.00604898  0.67154746  -0.01782551  1
  In  In11  1  0.69118788  0.18697945  0.51529639  1
  In  In12  1  0.14733829  0.01279466  0.15809319  1
  In  In13  1  0.80739705  0.67632348  0.16638355  1
  In  In14  1  -0.00380980  0.82340758  0.83080050  1
  In  In15  1  0.84281072  -0.00567755  0.14400404  1
  In  In16  1  -0.01287942  0.15543025  0.15421058  1
  In  In17  1  0.17791139  0.34478284  0.16398825  1
  In  In18  1  0.15565200  0.85169704  0.31897836  1
  In  In19  1  0.51740026  0.16316034  0.00147093  1
  In  In20  1  0.50798727  -0.00250950  0.49441953  1
  In  In21  1  0.83724503  -0.00113094  0.83823776  1
  In  In22  1  0.33339532  0.18375748  0.17207318  1
  In  In23  1  0.14294701  0.65209654  0.51216936  1
  In  In24  1  -0.00346059  0.32447703  0.35800384  1
  In  In25  1  0.31757440  0.81686900  0.48383679  1
  In  In26  1  -0.01287361  0.16429967  0.83581225  1
  In  In27  1  0.15970363  0.52140967  -0.00877531  1
  In  In28  1  -0.00578729  0.65265307  0.68104833  1
  In  In29  1  0.83696143  0.49069948  -0.01813708  1
  In  In30  1  0.69343675  0.47257998  0.52292156  1
  In  In31  1  0.66132393  0.82749634  0.49118695  1
  In  In32  1  0.66378126  -0.00065379  0.68256480  1
  In  In33  1  0.83991411  0.81762006  0.67683014  1
  In  In34  1  0.32204018  0.83728190  0.83793380  1
  In  In35  1  0.15279767  0.47703089  0.32857792  1
  In  In36  1  0.51804452  0.46374040  -0.01649054  1
  In  In37  1  0.00485145  0.00480190  0.32997333  1
  In  In38  1  0.15863428  0.17889063  0.35659125  1
  In  In39  1  -0.02307594  0.66882647  0.32832530  1
  In  In40  1  0.33301786  0.68840035  0.33016501  1
  In  In41  1  0.50774314  0.31205626  0.15301209  1
  In  In42  1  0.33033490  -0.00772870  0.35581964  1
  In  In43  1  0.50321878  0.84993774  0.67120835  1
  In  In44  1  0.51802970  0.32541154  0.82895551  1
  In  In45  1  0.52697630  0.68492838  0.85038092  1
  In  In46  1  0.32234761  0.49280428  0.51394330  1
  In  In47  1  0.31661439  0.50406088  0.83257278  1
  In  In48  1  0.14623193  -0.01361480  0.84209922  1
  In  In49  1  0.16325659  0.17214812  0.66674021  1
  In  In50  1  0.67906454  0.85458083  0.15242195  1
  In  In51  1  0.84547408  0.31326969  0.17729219  1
  In  In52  1  0.01992323  0.86489935  0.52836282  1
  In  In53  1  0.00262966  0.50229741  0.17291500  1
  In  In54  1  0.68201483  0.33536961  0.33880162  1
  In  In55  1  0.83280519  0.66238570  0.83489180  1
  In  In56  1  0.50178372  0.51270252  0.34847842  1
  In  In57  1  -0.00256447  0.34380524  0.68717787  1
  In  In58  1  0.33869635  0.15546781  0.81222955  1
  In  In59  1  0.56139275  0.03808592  0.17224444  1
  In  In60  1  0.15847903  0.82364212  -0.01294004  1
  In  In61  1  0.69202032  0.18528064  0.83185185  1
  In  In62  1  0.32687357  0.33676495  0.01773019  1
  In  In63  1  0.34821023  0.00014329  -0.02260234  1
  In  In64  1  0.66142068  0.65728373  0.32991038  1
  In  In65  1  -0.01979681  0.33035671  -0.03430154  1
  In  In66  1  0.83736182  0.01876186  0.49441591  1
  In  In67  1  -0.03358103  0.18640341  0.51529372  1
  In  In68  1  0.32066501  0.66067149  0.00323128  1
  In  In69  1  0.50302443  0.84460106  0.33739390  1
  In  In70  1  0.49469021  0.34069924  0.52637215  1
  In  In71  1  0.49043643  0.66651020  0.13922299  1
  Te  Te72  1  0.07987629  0.09459402  0.05610605  1
  Te  Te73  1  0.06884018  0.09008598  0.43889639  1
  Te  Te74  1  0.07151689  0.07586702  0.74139704  1
  Te  Te75  1  0.06733546  0.40554639  0.07413063  1
  Te  Te76  1  0.06873139  0.42601396  0.43846836  1
  Te  Te77  1  0.10766145  0.43889089  0.72403058  1
  Te  Te78  1  0.09313246  0.73336815  0.08354593  1
  Te  Te79  1  0.07974927  0.75894963  0.41578891  1
  Te  Te80  1  0.08896347  0.74149296  0.75076026  1
  Te  Te81  1  0.41951132  0.08310857  0.09269542  1
  Te  Te82  1  0.43326631  0.09404354  0.40095666  1
  Te  Te83  1  0.44576024  0.07224847  0.75359915  1
  Te  Te84  1  0.42057910  0.42780816  0.09564924  1
  Te  Te85  1  0.41118069  0.41140537  0.41960701  1
  Te  Te86  1  0.41334307  0.41853755  0.74598176  1
  Te  Te87  1  0.42642817  0.76524349  0.04047810  1
  Te  Te88  1  0.43913708  0.74037937  0.42704634  1
  Te  Te89  1  0.41658692  0.73726492  0.75074342  1
  Te  Te90  1  0.74974257  0.09395025  0.08328339  1
  Te  Te91  1  0.73717086  0.08986358  0.41005963  1
  Te  Te92  1  0.77036278  0.09263217  0.73545465  1
  Te  Te93  1  0.76192211  0.41040049  0.08996563  1
  Te  Te94  1  0.78263088  0.40249435  0.42610298  1
  Te  Te95  1  0.79192872  0.36905420  0.71371019  1
  Te  Te96  1  0.72512436  0.74459704  0.05925119  1
  Te  Te97  1  0.75758426  0.75655390  0.39684852  1
  Te  Te98  1  0.73409985  0.76516718  0.77076477  1
  Te  Te99  1  0.07755491  0.24962660  0.24406747  1
  Te  Te100  1  0.07925571  0.26571272  0.58119423  1
  Te  Te101  1  0.08731157  0.25654264  0.89516848  1
  Te  Te102  1  0.09165710  0.59490144  0.25285568  1
  Te  Te103  1  0.04374988  0.55975074  0.57380233  1
  Te  Te104  1  0.05995135  0.56698207  0.89308923  1
  Te  Te105  1  0.05347582  0.90612446  0.21705644  1
  Te  Te106  1  0.10977626  0.92887622  0.62219282  1
  Te  Te107  1  0.04466391  0.92683267  0.94600474  1
  Te  Te108  1  0.42640726  0.25395847  0.26093854  1
  Te  Te109  1  0.42272169  0.22934107  0.60318492  1
  Te  Te110  1  0.41369617  0.25132342  0.92200583  1
  Te  Te111  1  0.41345582  0.58834787  0.24684408  1
  Te  Te112  1  0.41845777  0.59399205  0.57531397  1
  Te  Te113  1  0.42390835  0.57459869  0.91617442  1
  Te  Te114  1  0.41414624  0.92672772  0.24484092  1
  Te  Te115  1  0.40266454  0.91664770  0.57384499  1
  Te  Te116  1  0.43428706  0.91737746  0.89109481  1
  Te  Te117  1  0.72891618  0.23412434  0.23640528  1
  Te  Te118  1  0.79128089  0.26683853  0.59518812  1
  Te  Te119  1  0.73595255  0.28826052  0.92828472  1
  Te  Te120  1  0.76896072  0.56690844  0.27225287  1
  Te  Te121  1  0.76971516  0.57567495  0.60972440  1
  Te  Te122  1  0.73801019  0.57545040  0.91075790  1
  Te  Te123  1  0.76866590  0.91705646  0.24896213  1
  Te  Te124  1  0.75064941  0.90869584  0.58479875  1
  Te  Te125  1  0.76463322  0.90286888  0.92560694  1
  Te  Te126  1  0.22883019  0.23255076  0.07223973  1
  Te  Te127  1  0.24481024  0.27591070  0.42494478  1
  Te  Te128  1  0.23767629  0.26122598  0.76571167  1
  Te  Te129  1  0.25039725  0.57043879  0.09575750  1
  Te  Te130  1  0.24973816  0.59089828  0.41624461  1
  Te  Te131  1  0.20941840  0.55982409  0.73986281  1
  Te  Te132  1  0.25128584  0.92047174  0.07434874  1
  Te  Te133  1  0.21972155  0.92643412  0.43588342  1
  Te  Te134  1  0.22531929  0.90440712  0.73536105  1
  Te  Te135  1  0.61365769  0.25532635  0.06666691  1
  Te  Te136  1  0.58396328  0.26112564  0.43150350  1
  Te  Te137  1  0.59125544  0.23962935  0.73500183  1
  Te  Te138  1  0.58719437  0.57897766  0.05959037  1
  Te  Te139  1  0.60200690  0.57513798  0.44457175  1
  Te  Te140  1  0.59739128  0.56503593  0.77704476  1
  Te  Te141  1  0.56479772  0.92188269  0.07747379  1
  Te  Te142  1  0.60880608  0.93569852  0.39542748  1
  Te  Te143  1  0.59459586  0.90447050  0.77309712  1
  Te  Te144  1  0.89858958  0.23543587  0.05499319  1
  Te  Te145  1  0.88122869  0.24501712  0.40758057  1
  Te  Te146  1  0.89295066  0.25750221  0.75946535  1
  Te  Te147  1  0.91091899  0.58720037  0.08398637  1
  Te  Te148  1  0.93010408  0.56661585  0.42596104  1
  Te  Te149  1  0.91352743  0.55704311  0.76413622  1
  Te  Te150  1  0.95025280  0.92319179  0.07224525  1
  Te  Te151  1  0.92192316  0.91295456  0.42155690  1
  Te  Te152  1  0.92847034  0.92355612  0.73762741  1
  Te  Te153  1  0.24189917  0.08135429  0.26029223  1
  Te  Te154  1  0.25214966  0.08658111  0.57652885  1
  Te  Te155  1  0.24129715  0.08501278  0.90991827  1
  Te  Te156  1  0.26582441  0.41082037  0.26065564  1
  Te  Te157  1  0.21934544  0.42795121  0.60110982  1
  Te  Te158  1  0.23486861  0.40801419  0.91895986  1
  Te  Te159  1  0.23487036  0.75280218  0.23263723  1
  Te  Te160  1  0.23551456  0.74493260  0.59144200  1
  Te  Te161  1  0.23399684  0.72574934  0.89519609  1
  Te  Te162  1  0.62214674  0.12201021  0.27347963  1
  Te  Te163  1  0.58941805  0.08875310  0.58392647  1
  Te  Te164  1  0.59430728  0.08332866  0.89929971  1
  Te  Te165  1  0.58489109  0.42698204  0.25025358  1
  Te  Te166  1  0.60117900  0.39805134  0.61971372  1
  Te  Te167  1  0.63180431  0.39680821  0.90059359  1
  Te  Te168  1  0.57846823  0.74919504  0.23735995  1
  Te  Te169  1  0.57741379  0.74431154  0.58764183  1
  Te  Te170  1  0.62117957  0.75099558  0.93937528  1
  Te  Te171  1  0.90225229  0.09142317  0.26133176  1
  Te  Te172  1  0.91481922  0.07895367  0.60401199  1
  Te  Te173  1  0.89655824  0.09660689  0.93284954  1
  Te  Te174  1  0.91555732  0.41832937  0.26331377  1
  Te  Te175  1  0.88886966  0.39492746  0.59305562  1
  Te  Te176  1  0.91199384  0.42395334  0.86943924  1
  Te  Te177  1  0.90260013  0.76128862  0.23982751  1
  Te  Te178  1  0.92041196  0.74638125  0.56924361  1
  Te  Te179  1  0.89658711  0.76388382  0.93065395  1
