# generated using pymatgen
data_In2Te3
_symmetry_space_group_name_H-M   'P 1'
_cell_length_a   18.80506591
_cell_length_b   18.81081661
_cell_length_c   18.80976991
_cell_angle_alpha   89.98763849
_cell_angle_beta   90.01297300
_cell_angle_gamma   89.98871824
_symmetry_Int_Tables_number   1
_chemical_formula_structural   In2Te3
_chemical_formula_sum   'In72 Te108'
_cell_volume   6653.74209035
_cell_formula_units_Z   36
loop_
 _symmetry_equiv_pos_site_id
 _symmetry_equiv_pos_as_xyz
  1  'x, y, z'
loop_
 _atom_site_type_symbol
 _atom_site_label
 _atom_site_symmetry_multiplicity
 _atom_site_fract_x
 _atom_site_fract_y
 _atom_site_fract_z
 _atom_site_occupancy
  In  In0  1  0.51023278  -0.00741073  0.82542246  1
  In  In1  1  0.29793065  0.48143307  0.53040914  1
  In  In2  1  0.32666010  0.67168285  0.68894694  1
  In  In3  1  -0.00748799  0.66709520  0.34236953  1
  In  In4  1  0.66706717  0.48572489  0.48865928  1
  In  In5  1  0.32086953  0.48244343  0.80506706  1
  In  In6  1  0.50160104  0.84252638  -0.01930168  1
  In  In7  1  0.30516361  0.00133071  0.32209422  1
  In  In8  1  -0.00814398  0.85235281  0.80776963  1
  In  In9  1  0.15567682  -0.00513961  0.50876943  1
  In  In10  1  0.69562766  0.67417099  0.34958308  1
  In  In11  1  -0.01287162  0.33881833  -0.00196081  1
  In  In12  1  0.16117896  0.84040519  0.66259042  1
  In  In13  1  0.83727414  0.15858981  -0.04325272  1
  In  In14  1  0.33760685  0.83461942  0.83631727  1
  In  In15  1  0.85147187  0.67673388  0.50531298  1
  In  In16  1  0.48506559  0.32109078  0.50368712  1
  In  In17  1  0.33602608  0.33055455  0.31855963  1
  In  In18  1  0.48708607  0.66771516  0.83667467  1
  In  In19  1  0.01389149  0.67928523  -0.01171592  1
  In  In20  1  0.00652824  0.49557936  0.16143270  1
  In  In21  1  0.00310082  0.66208312  0.66110656  1
  In  In22  1  0.84472908  0.18796074  0.33827102  1
  In  In23  1  0.83836008  0.34975307  0.16790408  1
  In  In24  1  0.01412052  0.32039151  0.66089511  1
  In  In25  1  0.66030942  0.49718396  0.17072665  1
  In  In26  1  0.48829596  0.14810559  0.00814583  1
  In  In27  1  0.66191253  0.68364021  0.68441940  1
  In  In28  1  0.30697045  0.16351519  0.82394705  1
  In  In29  1  0.66192767  0.86266651  0.16240227  1
  In  In30  1  0.00773214  0.32809706  0.36805482  1
  In  In31  1  0.17704063  0.01179547  0.16388098  1
  In  In32  1  0.32788250  0.16787590  0.51011529  1
  In  In33  1  0.69783482  0.83943947  0.81479967  1
  In  In34  1  0.66981119  0.00060730  0.32053606  1
  In  In35  1  0.32526095  0.83657246  0.17301023  1
  In  In36  1  -0.00779504  0.13342818  0.80122398  1
  In  In37  1  0.82010834  0.49529655  -0.02372484  1
  In  In38  1  0.50465412  0.00514133  0.52165762  1
  In  In39  1  0.83496494  0.33396003  0.85126154  1
  In  In40  1  0.65051410  0.49695643  0.83669768  1
  In  In41  1  0.49863849  0.67295834  0.52258432  1
  In  In42  1  0.15715076  0.66198968  0.50802193  1
  In  In43  1  0.84637790  0.67934892  0.17474567  1
  In  In44  1  0.33017022  0.65084433  0.00112585  1
  In  In45  1  0.49823040  0.19012792  0.34473028  1
  In  In46  1  0.65702698  0.32393868  0.65185438  1
  In  In47  1  0.84397997  0.01004317  0.54523981  1
  In  In48  1  0.16367803  0.49070590  0.33474169  1
  In  In49  1  0.84355581  -0.02148777  0.15459123  1
  In  In50  1  0.81840115  0.33671927  0.50054530  1
  In  In51  1  0.50085421  0.33098769  0.81678425  1
  In  In52  1  0.65493571  0.17342468  0.14673363  1
  In  In53  1  0.01983187  0.16850355  0.17327378  1
  In  In54  1  0.15322751  0.33634259  0.82368229  1
  In  In55  1  0.16723873  0.83072271  0.34806932  1
  In  In56  1  0.65707357  0.15280748  0.51189542  1
  In  In57  1  0.18396733  0.17912520  -0.00562463  1
  In  In58  1  0.51356126  0.84974580  0.35033216  1
  In  In59  1  0.36395717  0.66193887  0.32402403  1
  In  In60  1  0.35664452  0.34317180  0.02747877  1
  In  In61  1  0.15312739  0.83429138  -0.01859803  1
  In  In62  1  0.66781171  0.63911695  0.01039293  1
  In  In63  1  0.84433973  0.51349495  0.66700488  1
  In  In64  1  0.17563061  0.15065522  0.34216117  1
  In  In65  1  0.83771612  0.85036500  -0.00929254  1
  In  In66  1  0.50067344  0.64940368  0.18018557  1
  In  In67  1  0.50516483  0.48947006  0.31705293  1
  In  In68  1  0.65574398  -0.01717259  -0.01156853  1
  In  In69  1  -0.00387157  -0.01608944  0.35732125  1
  In  In70  1  0.33033447  -0.00669503  0.66143339  1
  In  In71  1  0.15661099  0.50413872  0.00551159  1
  Te  Te72  1  0.08103035  0.08072472  0.06853528  1
  Te  Te73  1  0.06736283  0.09500984  0.43347243  1
  Te  Te74  1  0.07830472  0.06013858  0.70469109  1
  Te  Te75  1  0.09354804  0.39141919  0.09166318  1
  Te  Te76  1  0.08577856  0.42813922  0.44448894  1
  Te  Te77  1  0.07073409  0.43018162  0.74462946  1
  Te  Te78  1  0.09174342  0.75240015  0.08876868  1
  Te  Te79  1  0.06645546  0.76248301  0.43881611  1
  Te  Te80  1  0.09064804  0.74617385  0.75779790  1
  Te  Te81  1  0.41915986  0.04197147  0.07987255  1
  Te  Te82  1  0.41294885  0.07966313  0.41216983  1
  Te  Te83  1  0.41579569  0.08558325  0.74785076  1
  Te  Te84  1  0.43074709  0.44676995  0.10044535  1
  Te  Te85  1  0.40605630  0.42911985  0.42511405  1
  Te  Te86  1  0.41489986  0.40554003  0.72182257  1
  Te  Te87  1  0.42528377  0.75373168  0.08126000  1
  Te  Te88  1  0.41540025  0.76203112  0.42704994  1
  Te  Te89  1  0.43514053  0.77161897  0.73845078  1
  Te  Te90  1  0.75233473  0.07355068  0.07774955  1
  Te  Te91  1  0.75906637  0.08454349  0.41417801  1
  Te  Te92  1  0.80103470  0.05698934  0.69791189  1
  Te  Te93  1  0.73845079  0.40776263  0.06830313  1
  Te  Te94  1  0.75196209  0.41366353  0.39367504  1
  Te  Te95  1  0.74950553  0.41367442  0.74402804  1
  Te  Te96  1  0.73902476  0.75631117  0.08091600  1
  Te  Te97  1  0.75654796  0.77178645  0.44020336  1
  Te  Te98  1  0.78685887  0.75818141  0.72453585  1
  Te  Te99  1  0.09771374  0.25940326  0.26372438  1
  Te  Te100  1  0.11725535  0.27802586  0.56315960  1
  Te  Te101  1  0.06313344  0.24125519  0.90880181  1
  Te  Te102  1  0.08646721  0.59175838  0.24765870  1
  Te  Te103  1  0.09296010  0.56195252  0.59508197  1
  Te  Te104  1  0.08366914  0.58105507  0.90362296  1
  Te  Te105  1  0.08983367  0.92162833  0.25265588  1
  Te  Te106  1  0.05753476  0.91475373  0.58603884  1
  Te  Te107  1  0.07437999  0.93315189  0.90184582  1
  Te  Te108  1  0.43255864  0.25923852  0.23186829  1
  Te  Te109  1  0.42411121  0.23148305  0.60268929  1
  Te  Te110  1  0.40290105  0.24368582  0.91265315  1
  Te  Te111  1  0.39084850  0.54559245  0.22416757  1
  Te  Te112  1  0.40184457  0.57743239  0.59307205  1
  Te  Te113  1  0.40924785  0.55977905  0.90791775  1
  Te  Te114  1  0.41951255  0.92437495  0.25524939  1
  Te  Te115  1  0.41552514  0.90370642  0.58077777  1
  Te  Te116  1  0.40281086  0.94347484  0.92336807  1
  Te  Te117  1  0.74607920  0.25423957  0.24460907  1
  Te  Te118  1  0.76247140  0.23010077  0.59334575  1
  Te  Te119  1  0.73137611  0.24927216  0.91343200  1
  Te  Te120  1  0.76318116  0.57712934  0.25310810  1
  Te  Te121  1  0.73551921  0.58461514  0.58186754  1
  Te  Te122  1  0.75223673  0.60036590  0.88936831  1
  Te  Te123  1  0.76937398  0.89913219  0.26336852  1
  Te  Te124  1  0.74059895  0.93444510  0.62689716  1
  Te  Te125  1  0.77046357  0.94729896  0.89395197  1
  Te  Te126  1  0.26486753  0.24824209  0.09645156  1
  Te  Te127  1  0.24551940  0.26169332  0.42304024  1
  Te  Te128  1  0.25003209  0.26830143  0.72962531  1
  Te  Te129  1  0.23533395  0.59146971  0.09581189  1
  Te  Te130  1  0.26162379  0.59013778  0.41756402  1
  Te  Te131  1  0.22670878  0.57608385  0.74051532  1
  Te  Te132  1  0.25251614  0.91852226  0.06954957  1
  Te  Te133  1  0.26149535  0.91189261  0.43674119  1
  Te  Te134  1  0.23943372  0.92517474  0.76336600  1
  Te  Te135  1  0.56093539  0.25971200  0.07316939  1
  Te  Te136  1  0.60343476  0.26628462  0.42362080  1
  Te  Te137  1  0.59075187  0.23366330  0.74755087  1
  Te  Te138  1  0.55418876  0.55553314  0.06573503  1
  Te  Te139  1  0.57465076  0.59380872  0.40686238  1
  Te  Te140  1  0.56427687  0.57809048  0.74042618  1
  Te  Te141  1  0.55034298  0.94499893  0.09568095  1
  Te  Te142  1  0.60963982  0.92532923  0.43951546  1
  Te  Te143  1  0.59864984  0.91503475  0.73304545  1
  Te  Te144  1  0.90595654  0.23709728  0.08364837  1
  Te  Te145  1  0.92650358  0.23445196  0.45665536  1
  Te  Te146  1  0.90691548  0.24843128  0.74876023  1
  Te  Te147  1  0.90768243  0.57747379  0.07537651  1
  Te  Te148  1  0.91436858  0.57267623  0.42358654  1
  Te  Te149  1  0.91475080  0.59794536  0.76333945  1
  Te  Te150  1  0.94204811  0.89551646  0.08472946  1
  Te  Te151  1  0.90069466  0.91465068  0.44433568  1
  Te  Te152  1  0.89611376  0.94193746  0.72281598  1
  Te  Te153  1  0.27130430  0.11501314  0.22666860  1
  Te  Te154  1  0.22933936  0.09400471  0.60176871  1
  Te  Te155  1  0.22146868  0.07099906  0.90134682  1
  Te  Te156  1  0.24155317  0.41095379  0.23822164  1
  Te  Te157  1  0.22945196  0.37544981  0.61015692  1
  Te  Te158  1  0.24966937  0.40262430  0.92594549  1
  Te  Te159  1  0.24650794  0.73730136  0.25660821  1
  Te  Te160  1  0.25583090  0.75354614  0.58069791  1
  Te  Te161  1  0.24721742  0.73490116  0.90469815  1
  Te  Te162  1  0.57401499  0.09283754  0.24977337  1
  Te  Te163  1  0.57766428  0.08994468  0.61969960  1
  Te  Te164  1  0.59405042  0.09207361  0.90468551  1
  Te  Te165  1  0.58444671  0.39161834  0.24183450  1
  Te  Te166  1  0.56592526  0.42580176  0.58432546  1
  Te  Te167  1  0.57854309  0.40244389  0.92188220  1
  Te  Te168  1  0.58990692  0.75442221  0.25325325  1
  Te  Te169  1  0.60030317  0.76446311  0.57697242  1
  Te  Te170  1  0.59835541  0.74709838  0.91225963  1
  Te  Te171  1  0.91896853  0.08235684  0.25243743  1
  Te  Te172  1  0.95817350  0.08635949  0.61975834  1
  Te  Te173  1  0.93451659  0.05668932  0.91542806  1
  Te  Te174  1  0.92854041  0.41860079  0.26765409  1
  Te  Te175  1  0.92032156  0.41762525  0.57856645  1
  Te  Te176  1  0.93762508  0.43974329  0.89622299  1
  Te  Te177  1  0.92405226  0.76978715  0.25910629  1
  Te  Te178  1  0.90560407  0.76689905  0.61190278  1
  Te  Te179  1  0.91313714  0.75443196  0.90137166  1
