# generated using pymatgen
data_In2Te3
_symmetry_space_group_name_H-M   'P 1'
_cell_length_a   18.75472683
_cell_length_b   18.76300286
_cell_length_c   18.77263064
_cell_angle_alpha   90.03952455
_cell_angle_beta   89.96230646
_cell_angle_gamma   89.98191015
_symmetry_Int_Tables_number   1
_chemical_formula_structural   In2Te3
_chemical_formula_sum   'In72 Te108'
_cell_volume   6605.99140136
_cell_formula_units_Z   36
loop_
 _symmetry_equiv_pos_site_id
 _symmetry_equiv_pos_as_xyz
  1  'x, y, z'
loop_
 _atom_site_type_symbol
 _atom_site_label
 _atom_site_symmetry_multiplicity
 _atom_site_fract_x
 _atom_site_fract_y
 _atom_site_fract_z
 _atom_site_occupancy
  In  In0  1  0.01108128  0.17684350  0.80535344  1
  In  In1  1  0.32279487  0.15700308  0.51384776  1
  In  In2  1  0.84464836  0.33958503  0.16437134  1
  In  In3  1  0.80954250  0.16781661  0.00037882  1
  In  In4  1  0.83872751  0.67289734  0.84203584  1
  In  In5  1  -0.00833086  0.52589153  0.15090709  1
  In  In6  1  0.68646690  0.83870720  0.49708496  1
  In  In7  1  0.32663920  0.66593196  -0.00909233  1
  In  In8  1  0.68281303  0.53176263  0.19617067  1
  In  In9  1  -0.02205107  0.39396989  -0.01959380  1
  In  In10  1  0.84724207  -0.00905257  0.50014945  1
  In  In11  1  0.63020629  0.16569715  0.18048912  1
  In  In12  1  0.15987328  0.52441817  0.67062133  1
  In  In13  1  0.84373709  0.16637356  0.66186082  1
  In  In14  1  -0.00802980  0.83453332  0.82160656  1
  In  In15  1  0.66619826  0.33920089  0.66851916  1
  In  In16  1  0.66879087  -0.01150755  0.00922709  1
  In  In17  1  0.50925457  0.84095756  0.33795604  1
  In  In18  1  0.67561445  0.33937585  0.34518650  1
  In  In19  1  0.84055104  -0.00212164  0.81225989  1
  In  In20  1  0.31728559  0.01873837  0.32321126  1
  In  In21  1  0.66846637  0.19090114  0.82520367  1
  In  In22  1  0.51450499  0.65147037  0.49084147  1
  In  In23  1  0.48260384  0.31333035  0.16827176  1
  In  In24  1  0.32366821  0.32652477  -0.01320222  1
  In  In25  1  0.67623226  0.66502979  0.68086766  1
  In  In26  1  0.49659273  0.48430368  0.34608710  1
  In  In27  1  0.16469570  0.33276484  0.47818966  1
  In  In28  1  0.35194524  0.33523965  0.67130831  1
  In  In29  1  0.64907611  0.81045161  0.82923927  1
  In  In30  1  0.47622861  0.83249349  0.67601288  1
  In  In31  1  0.16856498  0.17852261  0.01493614  1
  In  In32  1  0.64072294  0.13046056  0.52841779  1
  In  In33  1  0.16903231  0.35255870  0.84787275  1
  In  In34  1  0.84365193  0.16112660  0.35078954  1
  In  In35  1  0.85544686  -0.01705368  0.19712035  1
  In  In36  1  0.01561808  0.69163953  0.65594861  1
  In  In37  1  0.17227533  0.14695961  0.67141381  1
  In  In38  1  0.19620708  -0.03416313  0.80784448  1
  In  In39  1  0.68809295  0.80816029  0.15814132  1
  In  In40  1  0.01072637  0.02476355  0.01566785  1
  In  In41  1  0.51252472  0.50288698  0.68013033  1
  In  In42  1  0.30093592  0.47695695  0.18482669  1
  In  In43  1  0.14524879  0.51657578  0.00165269  1
  In  In44  1  0.66800433  0.37075050  0.01030189  1
  In  In45  1  0.02943131  0.18568390  0.16586003  1
  In  In46  1  0.84819561  0.79835462  -0.01675041  1
  In  In47  1  0.47607520  0.00365730  0.17407616  1
  In  In48  1  0.00922205  0.35026003  0.32071793  1
  In  In49  1  0.35057462  0.15410541  0.83834169  1
  In  In50  1  0.49044530  0.16799768  0.32733917  1
  In  In51  1  0.32743089  0.50098220  0.48726200  1
  In  In52  1  0.33023609  0.84507565  0.51451205  1
  In  In53  1  0.32513959  0.68785567  0.68542037  1
  In  In54  1  0.83975474  0.50140584  0.66873448  1
  In  In55  1  0.16408592  0.82531667  0.33038737  1
  In  In56  1  0.46421931  0.15273533  -0.00809096  1
  In  In57  1  0.49635937  0.82284188  -0.02690596  1
  In  In58  1  0.16371901  0.82196227  0.00483568  1
  In  In59  1  0.84185767  0.81947483  0.34283269  1
  In  In60  1  0.01446415  0.82372272  0.17158449  1
  In  In61  1  0.49719421  0.50403549  -0.02180643  1
  In  In62  1  0.30948618  0.66358549  0.33093432  1
  In  In63  1  0.01927550  0.33223941  0.66750232  1
  In  In64  1  0.02004029  0.85648706  0.51347142  1
  In  In65  1  0.48828000  0.35241364  0.50390195  1
  In  In66  1  0.49249631  0.66609956  0.14764553  1
  In  In67  1  0.49174762  -0.00702094  0.82447286  1
  In  In68  1  0.32987009  -0.01110610  0.01043644  1
  In  In69  1  0.84095441  0.34650779  0.49196363  1
  In  In70  1  0.00122251  0.66737092  0.32446449  1
  In  In71  1  0.85756700  0.66239113  0.49633580  1
  Te  Te72  1  0.12443591  0.06431834  0.11390271  1
  Te  Te73  1  0.05667075  0.02678284  0.46961422  1
  Te  Te74  1  0.07768689  0.05363114  0.74907987  1
  Te  Te75  1  0.07977688  0.40984342  0.09071149  1
  Te  Te76  1  0.08457408  0.44024019  0.41367554  1
  Te  Te77  1  0.07299003  0.43602790  0.76571547  1
  Te  Te78  1  0.07784579  0.72524129  0.08186767  1
  Te  Te79  1  0.08392489  0.74328939  0.43069799  1
  Te  Te80  1  0.10708726  0.77091076  0.74698127  1
  Te  Te81  1  0.37928675  0.10068087  0.10582313  1
  Te  Te82  1  0.41888381  0.07457264  0.42270148  1
  Te  Te83  1  0.40985604  0.07271584  0.72830193  1
  Te  Te84  1  0.41499026  0.42329350  0.08368192  1
  Te  Te85  1  0.38653437  0.39088991  0.39707710  1
  Te  Te86  1  0.40993941  0.43442221  0.76226935  1
  Te  Te87  1  0.40211937  0.76747368  0.08058528  1
  Te  Te88  1  0.41116577  0.74298097  0.42060166  1
  Te  Te89  1  0.44177326  0.72495573  0.77363831  1
  Te  Te90  1  0.75455596  0.07078007  0.10656694  1
  Te  Te91  1  0.74159391  0.07521663  0.42238673  1
  Te  Te92  1  0.73789856  0.08577824  0.73808070  1
  Te  Te93  1  0.77610771  0.45417463  0.08629380  1
  Te  Te94  1  0.76208600  0.43985929  0.40770132  1
  Te  Te95  1  0.74549277  0.42820068  0.75826770  1
  Te  Te96  1  0.76696333  0.71066872  0.07453342  1
  Te  Te97  1  0.73789039  0.72445009  0.40192927  1
  Te  Te98  1  0.76859206  0.76857488  0.74444971  1
  Te  Te99  1  0.11940475  0.25974874  0.26364967  1
  Te  Te100  1  0.09104617  0.23435431  0.57673423  1
  Te  Te101  1  0.07199974  0.25902740  0.92153171  1
  Te  Te102  1  0.09388228  0.59245187  0.23492669  1
  Te  Te103  1  0.07911187  0.59058072  0.56689018  1
  Te  Te104  1  0.05016733  0.58249884  0.91164366  1
  Te  Te105  1  0.07747679  0.92462771  0.25824778  1
  Te  Te106  1  0.11105588  0.95082100  0.58514432  1
  Te  Te107  1  0.08016762  0.92982046  0.91671233  1
  Te  Te108  1  0.38614995  0.24273719  0.25394244  1
  Te  Te109  1  0.43328390  0.23797475  0.58785531  1
  Te  Te110  1  0.43350817  0.26863595  0.89704445  1
  Te  Te111  1  0.41767885  0.57345440  0.24889248  1
  Te  Te112  1  0.41148906  0.58413306  0.58375469  1
  Te  Te113  1  0.43153217  0.61190949  0.89715530  1
  Te  Te114  1  0.39734845  0.90131065  0.25391696  1
  Te  Te115  1  0.43414094  0.93662003  0.57584378  1
  Te  Te116  1  0.39077368  0.90491211  0.89740041  1
  Te  Te117  1  0.75514312  0.24187950  0.24508835  1
  Te  Te118  1  0.74798826  0.24614345  0.56626505  1
  Te  Te119  1  0.75513340  0.27940223  0.91425141  1
  Te  Te120  1  0.75720186  0.62970489  0.27612544  1
  Te  Te121  1  0.75066339  0.58361587  0.57502096  1
  Te  Te122  1  0.78115997  0.55965846  0.91850002  1
  Te  Te123  1  0.74111704  0.90695124  0.26351101  1
  Te  Te124  1  0.75430446  0.92583080  0.59520549  1
  Te  Te125  1  0.75933320  0.91106631  0.91444948  1
  Te  Te126  1  0.24369521  0.27499505  0.09928544  1
  Te  Te127  1  0.23383613  0.21817575  0.41208145  1
  Te  Te128  1  0.24633332  0.25231458  0.76140245  1
  Te  Te129  1  0.24490714  0.58585717  0.09659577  1
  Te  Te130  1  0.22360520  0.57545339  0.41348944  1
  Te  Te131  1  0.24930079  0.59036942  0.76697316  1
  Te  Te132  1  0.24791731  0.90309426  0.09749501  1
  Te  Te133  1  0.24217839  0.92417204  0.41902474  1
  Te  Te134  1  0.24744595  0.85829833  0.71854454  1
  Te  Te135  1  0.58219807  0.24499825  0.06036477  1
  Te  Te136  1  0.58377465  0.24675828  0.42370855  1
  Te  Te137  1  0.56770606  0.25196441  0.73729149  1
  Te  Te138  1  0.59345045  0.57513596  0.07919517  1
  Te  Te139  1  0.60160034  0.57009316  0.40339536  1
  Te  Te140  1  0.59700340  0.58243800  0.77399273  1
  Te  Te141  1  0.57103255  0.90777134  0.09280076  1
  Te  Te142  1  0.57961637  0.92318530  0.43776554  1
  Te  Te143  1  0.59413010  0.91851645  0.73955337  1
  Te  Te144  1  0.92390237  0.24927003  0.06983285  1
  Te  Te145  1  0.94061967  0.25302356  0.42169657  1
  Te  Te146  1  0.90375321  0.27282685  0.75281695  1
  Te  Te147  1  0.87641484  0.57637105  0.06910374  1
  Te  Te148  1  0.93337457  0.56746908  0.41282789  1
  Te  Te149  1  0.93135782  0.59766283  0.74473752  1
  Te  Te150  1  0.91310093  0.91478265  0.07156053  1
  Te  Te151  1  0.94376039  0.92286631  0.39267289  1
  Te  Te152  1  0.92588801  0.92065501  0.72031037  1
  Te  Te153  1  0.21171221  0.08438931  0.24490801  1
  Te  Te154  1  0.25363917  0.04887053  0.59434239  1
  Te  Te155  1  0.23562510  0.08337334  0.91224739  1
  Te  Te156  1  0.21370837  0.38579970  0.25958550  1
  Te  Te157  1  0.24538050  0.40929968  0.59144633  1
  Te  Te158  1  0.26150659  0.44851523  0.92002684  1
  Te  Te159  1  0.24408387  0.74834638  0.23068641  1
  Te  Te160  1  0.23561599  0.75102431  0.58299390  1
  Te  Te161  1  0.23525790  0.74194686  0.90240209  1
  Te  Te162  1  0.58321981  0.05501440  0.27110581  1
  Te  Te163  1  0.54426505  0.05736068  0.61103251  1
  Te  Te164  1  0.58689940  0.08078582  0.91912920  1
  Te  Te165  1  0.58960715  0.40436411  0.23244788  1
  Te  Te166  1  0.59651898  0.43481018  0.56921673  1
  Te  Te167  1  0.58982727  0.42170305  0.89567775  1
  Te  Te168  1  0.58242156  0.74020649  0.24781331  1
  Te  Te169  1  0.58118851  0.75064965  0.58666723  1
  Te  Te170  1  0.60788269  0.72978805  0.94464568  1
  Te  Te171  1  0.94355957  0.09333480  0.25542972  1
  Te  Te172  1  0.93671509  0.09045713  0.57022371  1
  Te  Te173  1  0.91249174  0.09354394  0.91117882  1
  Te  Te174  1  0.90543941  0.44209241  0.25660282  1
  Te  Te175  1  0.93873509  0.42644517  0.57803334  1
  Te  Te176  1  0.88155025  0.45008865  0.88394640  1
  Te  Te177  1  0.90074356  0.73693670  0.22883056  1
  Te  Te178  1  0.90588462  0.77398797  0.58412129  1
  Te  Te179  1  0.97149914  0.71772320  0.92998590  1
