# generated using pymatgen
data_In2Te3
_symmetry_space_group_name_H-M   'P 1'
_cell_length_a   18.74094455
_cell_length_b   18.73614457
_cell_length_c   18.73545762
_cell_angle_alpha   89.99671080
_cell_angle_beta   90.00907614
_cell_angle_gamma   90.06847053
_symmetry_Int_Tables_number   1
_chemical_formula_structural   In2Te3
_chemical_formula_sum   'In72 Te108'
_cell_volume   6578.63352061
_cell_formula_units_Z   36
loop_
 _symmetry_equiv_pos_site_id
 _symmetry_equiv_pos_as_xyz
  1  'x, y, z'
loop_
 _atom_site_type_symbol
 _atom_site_label
 _atom_site_symmetry_multiplicity
 _atom_site_fract_x
 _atom_site_fract_y
 _atom_site_fract_z
 _atom_site_occupancy
  In  In0  1  0.00879747  0.00552715  0.65515392  1
  In  In1  1  0.50844296  0.84046175  0.33000198  1
  In  In2  1  -0.01418371  0.00869349  0.01235630  1
  In  In3  1  -0.00282880  0.52538177  0.16135894  1
  In  In4  1  0.64985224  0.82726089  0.83945906  1
  In  In5  1  0.34090739  0.68121972  0.01991358  1
  In  In6  1  0.18198946  0.14671149  0.66658485  1
  In  In7  1  0.82689365  0.68410717  0.47492152  1
  In  In8  1  0.65765240  0.31905432  0.68806734  1
  In  In9  1  -0.00604250  0.67217316  0.02593534  1
  In  In10  1  0.49217982  0.15017631  0.31679804  1
  In  In11  1  0.34324406  -0.00075030  -0.00571716  1
  In  In12  1  0.83933431  -0.00206622  0.85312403  1
  In  In13  1  0.48280400  0.48054296  0.00510164  1
  In  In14  1  0.00337609  0.32762425  0.33584461  1
  In  In15  1  0.00873663  0.83289306  0.82131700  1
  In  In16  1  0.68893391  -0.01373931  0.63806715  1
  In  In17  1  -0.04955365  0.49377104  0.49764960  1
  In  In18  1  0.32457889  0.14469686  0.49444627  1
  In  In19  1  0.00030532  0.69305674  0.64897094  1
  In  In20  1  0.64166300  0.50720614  0.85815319  1
  In  In21  1  0.17903535  0.68258214  0.50514827  1
  In  In22  1  0.49511934  0.68085689  0.83820034  1
  In  In23  1  0.67542543  0.68259431  -0.00088858  1
  In  In24  1  0.01769971  0.13146478  0.48514921  1
  In  In25  1  0.65144378  0.14786004  0.49685411  1
  In  In26  1  0.35226047  -0.01943906  0.32890046  1
  In  In27  1  0.52214378  0.17183781  0.03425996  1
  In  In28  1  0.50240276  0.68267585  0.17526358  1
  In  In29  1  0.82371112  0.16114460  0.31415749  1
  In  In30  1  0.15302960  0.50298331  0.68503947  1
  In  In31  1  0.80510476  0.67026396  0.83030553  1
  In  In32  1  0.33580819  0.69050584  0.32139628  1
  In  In33  1  0.84614391  0.50048245  0.66107561  1
  In  In34  1  0.65291990  0.16371772  0.85321622  1
  In  In35  1  0.32502049  0.69666720  0.66944110  1
  In  In36  1  0.50202084  0.31686838  0.49387166  1
  In  In37  1  0.16853408  0.81747151  0.00764541  1
  In  In38  1  0.18494164  -0.00446268  0.81493063  1
  In  In39  1  0.34786256  0.50620556  0.49718596  1
  In  In40  1  0.65115773  0.70531068  0.64487480  1
  In  In41  1  0.81336290  0.51632379  0.33829025  1
  In  In42  1  0.84910271  0.16437350  0.66749010  1
  In  In43  1  0.32324908  0.49896678  0.15128730  1
  In  In44  1  0.17390686  0.84569728  0.32184247  1
  In  In45  1  0.66822319  0.49684963  0.17752179  1
  In  In46  1  0.67986793  0.50169354  0.47199013  1
  In  In47  1  0.66190541  -0.01452813  0.32484844  1
  In  In48  1  0.49004549  0.47671611  0.68257408  1
  In  In49  1  0.84686080  0.82096993  0.31778242  1
  In  In50  1  0.00036446  0.48324270  0.83840228  1
  In  In51  1  0.81517113  0.32812371  0.17333557  1
  In  In52  1  0.16067949  0.68295138  0.83449909  1
  In  In53  1  0.19474560  0.48545456  -0.00670261  1
  In  In54  1  0.83499717  0.32003926  0.84867009  1
  In  In55  1  -0.00470999  0.15531653  0.17825080  1
  In  In56  1  0.13992632  0.51290006  0.30600275  1
  In  In57  1  0.00350787  0.86673379  0.48828053  1
  In  In58  1  0.15512556  0.00275959  0.17100755  1
  In  In59  1  0.32680202  0.31802692  0.67610011  1
  In  In60  1  0.80972931  0.12839688  0.02793818  1
  In  In61  1  0.32522827  0.16914799  0.15961232  1
  In  In62  1  0.50980135  0.68807060  0.49136434  1
  In  In63  1  0.52227367  0.48047510  0.33085935  1
  In  In64  1  0.02005976  0.31343447  -0.01797545  1
  In  In65  1  0.49758026  0.31855895  0.83499090  1
  In  In66  1  0.17390533  0.30451834  0.49302491  1
  In  In67  1  0.16026209  0.30960476  0.16975354  1
  In  In68  1  0.83358022  0.83628599  0.02757920  1
  In  In69  1  0.34662963  0.14887020  0.83284210  1
  In  In70  1  0.83423906  0.36042640  0.49716741  1
  In  In71  1  0.48141770  0.00747093  0.82766515  1
  Te  Te72  1  0.09202105  0.10268885  0.07196830  1
  Te  Te73  1  0.10924358  0.09083340  0.37772686  1
  Te  Te74  1  0.07414830  0.08771748  0.76429695  1
  Te  Te75  1  0.08150323  0.41819253  0.08815853  1
  Te  Te76  1  0.08456197  0.42195179  0.42566397  1
  Te  Te77  1  0.09383082  0.39206536  0.76617261  1
  Te  Te78  1  0.05710809  0.78425721  0.10017096  1
  Te  Te79  1  0.08076227  0.75650379  0.41642941  1
  Te  Te80  1  0.10904567  0.77382149  0.72163868  1
  Te  Te81  1  0.42702949  0.07023662  0.10046128  1
  Te  Te82  1  0.43633799  0.06192918  0.43039943  1
  Te  Te83  1  0.38325098  0.05518833  0.71906894  1
  Te  Te84  1  0.40363225  0.38986067  0.09125737  1
  Te  Te85  1  0.41156142  0.40347825  0.40449378  1
  Te  Te86  1  0.38876431  0.41866687  0.78633356  1
  Te  Te87  1  0.41743788  0.78179949  0.10114751  1
  Te  Te88  1  0.40189169  0.77562619  0.42697965  1
  Te  Te89  1  0.44202172  0.77196382  0.72940385  1
  Te  Te90  1  0.73252558  0.03636789  0.12532427  1
  Te  Te91  1  0.75393629  0.06975800  0.41776441  1
  Te  Te92  1  0.74883618  0.08767580  0.75862651  1
  Te  Te93  1  0.75279518  0.42343749  0.07988901  1
  Te  Te94  1  0.73626432  0.39051103  0.38251719  1
  Te  Te95  1  0.74658456  0.42349073  0.75798172  1
  Te  Te96  1  0.74008039  0.75504032  0.11201805  1
  Te  Te97  1  0.73247273  0.76552226  0.39782019  1
  Te  Te98  1  0.75442793  0.77683024  0.73455801  1
  Te  Te99  1  0.09752580  0.21610741  0.28602721  1
  Te  Te100  1  0.07931651  0.23098913  0.58575695  1
  Te  Te101  1  0.11404231  0.26104069  0.88328242  1
  Te  Te102  1  0.07346595  0.63133056  0.24044894  1
  Te  Te103  1  0.07460931  0.57994808  0.57644427  1
  Te  Te104  1  0.08238921  0.58516321  0.92325353  1
  Te  Te105  1  0.06406503  0.93157137  0.26580206  1
  Te  Te106  1  0.10885835  0.92943008  0.57512285  1
  Te  Te107  1  0.08364752  0.92275398  0.92047672  1
  Te  Te108  1  0.41514609  0.25438345  0.24345594  1
  Te  Te109  1  0.41658444  0.23325890  0.58918403  1
  Te  Te110  1  0.41971955  0.23614251  0.93656325  1
  Te  Te111  1  0.41600680  0.57529443  0.25435030  1
  Te  Te112  1  0.42865295  0.59625103  0.59032251  1
  Te  Te113  1  0.40804046  0.58574682  0.92089977  1
  Te  Te114  1  0.42746808  0.90713555  0.22232870  1
  Te  Te115  1  0.39146253  0.89373648  0.63233249  1
  Te  Te116  1  0.41831981  0.90192806  0.91154762  1
  Te  Te117  1  0.71921136  0.22094320  0.21929227  1
  Te  Te118  1  0.74787874  0.25574703  0.58121837  1
  Te  Te119  1  0.74321508  0.24351823  0.94506314  1
  Te  Te120  1  0.74856650  0.60498260  0.24003034  1
  Te  Te121  1  0.74920760  0.59258518  0.58324565  1
  Te  Te122  1  0.75962917  0.56934871  0.93419459  1
  Te  Te123  1  0.75970022  0.91557264  0.23196253  1
  Te  Te124  1  0.77300098  0.88213199  0.57948293  1
  Te  Te125  1  0.73791628  0.91655953  0.93453379  1
  Te  Te126  1  0.24466574  0.25181372  0.06440016  1
  Te  Te127  1  0.27651571  0.25133828  0.40280481  1
  Te  Te128  1  0.23464577  0.24837276  0.77732324  1
  Te  Te129  1  0.22845580  0.60222011  0.08853500  1
  Te  Te130  1  0.24917434  0.58342899  0.40816487  1
  Te  Te131  1  0.25657607  0.58970674  0.75699689  1
  Te  Te132  1  0.25138763  0.91667913  0.08883379  1
  Te  Te133  1  0.25014357  0.92526850  0.42286829  1
  Te  Te134  1  0.29573834  0.91708622  0.74810760  1
  Te  Te135  1  0.60649591  0.26452630  0.11526761  1
  Te  Te136  1  0.59288666  0.24565498  0.39621591  1
  Te  Te137  1  0.56009926  0.21389084  0.74092730  1
  Te  Te138  1  0.57270597  0.58573489  0.07484740  1
  Te  Te139  1  0.59238318  0.60110681  0.39420783  1
  Te  Te140  1  0.59219133  0.59720048  0.74582277  1
  Te  Te141  1  0.62742680  0.95591313  0.05853716  1
  Te  Te142  1  0.58482904  0.91701938  0.43549985  1
  Te  Te143  1  0.58893898  0.93195109  0.74798234  1
  Te  Te144  1  0.91621680  0.24752275  0.08615458  1
  Te  Te145  1  0.90853559  0.24222101  0.42138439  1
  Te  Te146  1  0.92772280  0.25226108  0.75641248  1
  Te  Te147  1  0.88601236  0.59789706  0.09521755  1
  Te  Te148  1  0.93221848  0.60496675  0.39325961  1
  Te  Te149  1  0.92860559  0.60051964  0.75390260  1
  Te  Te150  1  0.92643269  0.91639782  0.11224980  1
  Te  Te151  1  0.91692443  0.93650692  0.38886270  1
  Te  Te152  1  0.91254687  0.92137564  0.74285389  1
  Te  Te153  1  0.25360890  0.07859462  0.26204156  1
  Te  Te154  1  0.22869244  0.04888943  0.56224279  1
  Te  Te155  1  0.24010393  0.08681777  0.92535297  1
  Te  Te156  1  0.24059724  0.41311710  0.25154207  1
  Te  Te157  1  0.25351286  0.41968957  0.58485251  1
  Te  Te158  1  0.27779357  0.41223203  0.89993642  1
  Te  Te159  1  0.24655354  0.75708497  0.22568444  1
  Te  Te160  1  0.26407867  0.78872355  0.56739237  1
  Te  Te161  1  0.26863344  0.76378842  0.90573959  1
  Te  Te162  1  0.58047228  0.06674977  0.22854211  1
  Te  Te163  1  0.57301476  0.06567089  0.59057855  1
  Te  Te164  1  0.58363215  0.05928645  0.94565763  1
  Te  Te165  1  0.56700638  0.39196795  0.21816317  1
  Te  Te166  1  0.59278238  0.41788846  0.57612287  1
  Te  Te167  1  0.58950031  0.38959879  0.93600770  1
  Te  Te168  1  0.60459078  0.76750231  0.24168299  1
  Te  Te169  1  0.57976543  0.80445939  0.55838937  1
  Te  Te170  1  0.55883321  0.76814982  0.94785736  1
  Te  Te171  1  0.91733147  0.05753732  0.25962516  1
  Te  Te172  1  0.90228771  0.06651697  0.56313959  1
  Te  Te173  1  0.91938555  0.10939407  0.91732271  1
  Te  Te174  1  0.91700331  0.42365081  0.25487645  1
  Te  Te175  1  0.93824788  0.39056852  0.61031183  1
  Te  Te176  1  0.91233994  0.41656408  0.94254121  1
  Te  Te177  1  0.93796450  0.71664221  0.26111661  1
  Te  Te178  1  0.89737143  0.77982392  0.57633762  1
  Te  Te179  1  0.91132198  0.75536199  0.91124367  1
