# generated using pymatgen
data_In2Te3
_symmetry_space_group_name_H-M   'P 1'
_cell_length_a   18.80645116
_cell_length_b   18.83551143
_cell_length_c   18.82841214
_cell_angle_alpha   90.01395327
_cell_angle_beta   90.03592694
_cell_angle_gamma   90.10727810
_symmetry_Int_Tables_number   1
_chemical_formula_structural   In2Te3
_chemical_formula_sum   'In72 Te108'
_cell_volume   6669.55877080
_cell_formula_units_Z   36
loop_
 _symmetry_equiv_pos_site_id
 _symmetry_equiv_pos_as_xyz
  1  'x, y, z'
loop_
 _atom_site_type_symbol
 _atom_site_label
 _atom_site_symmetry_multiplicity
 _atom_site_fract_x
 _atom_site_fract_y
 _atom_site_fract_z
 _atom_site_occupancy
  In  In0  1  0.13777496  0.66468912  0.51439954  1
  In  In1  1  0.65227630  0.00142070  0.02990909  1
  In  In2  1  -0.00373109  0.17178616  0.83871170  1
  In  In3  1  0.34130059  0.64652476  0.33357635  1
  In  In4  1  -0.01959901  0.14293483  0.20585975  1
  In  In5  1  0.00263248  -0.03246108  0.67151807  1
  In  In6  1  0.86403896  0.83702566  0.29658609  1
  In  In7  1  0.68365770  0.34268301  0.33959739  1
  In  In8  1  0.33800022  0.32828287  0.67949345  1
  In  In9  1  0.84969829  0.65521506  0.83128271  1
  In  In10  1  0.67462109  0.16513343  0.16442594  1
  In  In11  1  0.82982556  0.01246221  0.48548738  1
  In  In12  1  0.32464991  0.48983233  0.48816907  1
  In  In13  1  0.15468715  0.82784114  0.01841404  1
  In  In14  1  0.83589390  0.51811200  0.33460624  1
  In  In15  1  0.48709139  0.34520840  0.81433588  1
  In  In16  1  0.16233813  0.16458106  0.31983745  1
  In  In17  1  0.52794577  0.15397010  0.66875893  1
  In  In18  1  0.66658393  0.51253473  0.17547025  1
  In  In19  1  0.51038921  0.00025081  0.49199145  1
  In  In20  1  0.53816709  -0.00010144  0.85360214  1
  In  In21  1  0.85305168  0.85823817  0.04235592  1
  In  In22  1  0.32573466  0.16786443  0.15541188  1
  In  In23  1  -0.01010338  0.52239685  0.16801012  1
  In  In24  1  -0.02066733  0.82586868  0.49566399  1
  In  In25  1  0.68578005  0.83710901  0.84198045  1
  In  In26  1  0.20328392  0.35828687  0.17800918  1
  In  In27  1  0.32593494  0.16174316  0.82266688  1
  In  In28  1  -0.02848351  0.30981853  0.35309536  1
  In  In29  1  0.12709926  0.19471125  0.64997597  1
  In  In30  1  0.67310631  0.32315109  -0.01222478  1
  In  In31  1  0.67171898  0.51167416  0.49036373  1
  In  In32  1  0.14485804  0.32949884  0.48088295  1
  In  In33  1  0.49350556  0.15785396  -0.00265306  1
  In  In34  1  0.49192127  0.48911330  0.67956758  1
  In  In35  1  0.49861224  0.67249204  0.17788283  1
  In  In36  1  0.32770006  0.79937769  0.86768271  1
  In  In37  1  0.16029016  0.80139693  0.68224950  1
  In  In38  1  0.88868436  0.52718870  0.00046095  1
  In  In39  1  0.82100026  0.32570625  0.14364434  1
  In  In40  1  0.48456501  0.79831229  0.67996735  1
  In  In41  1  0.65313829  0.81988459  0.48413354  1
  In  In42  1  0.51399165  0.18112759  0.32026497  1
  In  In43  1  0.29719284  0.83400955  0.49015458  1
  In  In44  1  0.83565095  0.17052265  -0.02285546  1
  In  In45  1  0.16330826  0.49979346  -0.02885142  1
  In  In46  1  0.83728850  0.66581803  0.49347530  1
  In  In47  1  0.67685270  0.68175874  0.00856621  1
  In  In48  1  0.13608005  0.85684848  0.30373534  1
  In  In49  1  0.46517506  0.36558685  0.14533840  1
  In  In50  1  0.18199567  -0.00562684  0.84396454  1
  In  In51  1  0.50345379  0.83499237  0.32578453  1
  In  In52  1  0.69715118  0.31636800  0.65723471  1
  In  In53  1  0.85493103  0.17129564  0.66688643  1
  In  In54  1  0.00350736  0.49016509  0.82967839  1
  In  In55  1  0.84843524  0.82165326  0.67290623  1
  In  In56  1  0.33469079  0.00909215  0.01314216  1
  In  In57  1  0.49926359  0.63559641  0.85266134  1
  In  In58  1  0.48818321  0.35183610  0.48016578  1
  In  In59  1  0.14413832  0.66527587  0.17172595  1
  In  In60  1  0.00521830  0.34445588  -0.01407056  1
  In  In61  1  0.51378104  0.64195377  0.48594466  1
  In  In62  1  0.16732695  0.53131958  0.69463556  1
  In  In63  1  0.32568515  0.17815673  0.48421914  1
  In  In64  1  0.14061720  0.00536282  0.46305606  1
  In  In65  1  0.52138665  0.86517875  0.02281283  1
  In  In66  1  0.67781921  0.47210135  0.82075061  1
  In  In67  1  0.34235395  0.83447062  0.17051361  1
  In  In68  1  0.69324095  0.00405656  0.67260837  1
  In  In69  1  -0.00499205  0.82231159  0.83132416  1
  In  In70  1  0.32442229  -0.00046286  0.64499875  1
  In  In71  1  0.31349211  0.65778284  -0.01323428  1
  Te  Te72  1  0.05910087  0.06270758  0.10678871  1
  Te  Te73  1  0.06190966  0.12125920  0.42119376  1
  Te  Te74  1  0.09454326  0.07033702  0.74278411  1
  Te  Te75  1  0.08426064  0.42406037  0.09209526  1
  Te  Te76  1  0.05744025  0.41966301  0.40236251  1
  Te  Te77  1  0.11422304  0.41436289  0.76910768  1
  Te  Te78  1  0.04943788  0.76492509  0.10845972  1
  Te  Te79  1  0.07841507  0.75741205  0.40292271  1
  Te  Te80  1  0.06572284  0.71592118  0.75584739  1
  Te  Te81  1  0.44043882  0.06742590  0.10502520  1
  Te  Te82  1  0.41906500  0.08773746  0.40690684  1
  Te  Te83  1  0.42940030  0.07250779  0.75378409  1
  Te  Te84  1  0.37105649  0.42371068  0.04485005  1
  Te  Te85  1  0.40678956  0.42519265  0.38003033  1
  Te  Te86  1  0.37456706  0.44636267  0.77015852  1
  Te  Te87  1  0.41597509  0.75299908  0.06489508  1
  Te  Te88  1  0.41460242  0.75148009  0.42385539  1
  Te  Te89  1  0.38878228  0.70280758  0.75748925  1
  Te  Te90  1  0.77226071  0.08047003  0.08523063  1
  Te  Te91  1  0.77299048  0.11204773  0.38849579  1
  Te  Te92  1  0.76604126  0.09514396  0.76009194  1
  Te  Te93  1  0.74805870  0.43492286  0.06996570  1
  Te  Te94  1  0.77669860  0.41667540  0.43471279  1
  Te  Te95  1  0.77491865  0.43314437  0.71163783  1
  Te  Te96  1  0.73470407  0.78427402  0.09989711  1
  Te  Te97  1  0.76804345  0.76409993  0.40122051  1
  Te  Te98  1  0.74585464  0.73688617  0.74713602  1
  Te  Te99  1  0.07580464  0.26458557  0.24158792  1
  Te  Te100  1  0.03119605  0.28728397  0.57641360  1
  Te  Te101  1  0.09306184  0.24330170  0.92509998  1
  Te  Te102  1  0.08246609  0.57436873  0.27066665  1
  Te  Te103  1  0.07702769  0.54818036  0.57949372  1
  Te  Te104  1  0.03103983  0.57474208  0.95328606  1
  Te  Te105  1  0.05969432  0.96626808  0.23557954  1
  Te  Te106  1  0.10383985  0.90284315  0.57324736  1
  Te  Te107  1  0.07676989  0.91746003  0.92147807  1
  Te  Te108  1  0.40975042  0.26108929  0.24267789  1
  Te  Te109  1  0.42601720  0.23802388  0.58853404  1
  Te  Te110  1  0.41017753  0.25233362  0.91259204  1
  Te  Te111  1  0.40310322  0.56523583  0.22408046  1
  Te  Te112  1  0.41428050  0.57429337  0.57884143  1
  Te  Te113  1  0.41638706  0.55555482  0.94740847  1
  Te  Te114  1  0.42048260  0.92976463  0.25027880  1
  Te  Te115  1  0.42697946  0.90035424  0.57403520  1
  Te  Te116  1  0.41302309  0.92579367  0.91187856  1
  Te  Te117  1  0.76644186  0.24261320  0.25898909  1
  Te  Te118  1  0.77356697  0.23675405  0.55559730  1
  Te  Te119  1  0.77389269  0.27553702  0.89050737  1
  Te  Te120  1  0.76160541  0.60714649  0.24031173  1
  Te  Te121  1  0.75365837  0.58652577  0.58608593  1
  Te  Te122  1  0.74519832  0.57955641  0.91718732  1
  Te  Te123  1  0.78223029  0.94171711  0.23130444  1
  Te  Te124  1  0.76125170  0.89859996  0.57263199  1
  Te  Te125  1  0.75425063  0.92669108  0.93961800  1
  Te  Te126  1  0.23272012  0.25380785  0.07786563  1
  Te  Te127  1  0.25354852  0.27015031  0.39095645  1
  Te  Te128  1  0.22595162  0.25368479  0.75330400  1
  Te  Te129  1  0.23451425  0.57783826  0.08903492  1
  Te  Te130  1  0.23028352  0.58447519  0.41670012  1
  Te  Te131  1  0.27381331  0.59142367  0.77404957  1
  Te  Te132  1  0.24027187  0.92467256  0.09853837  1
  Te  Te133  1  0.25000495  0.93350319  0.38730303  1
  Te  Te134  1  0.25970085  0.89680474  0.75450126  1
  Te  Te135  1  0.57231108  0.26096084  0.08817266  1
  Te  Te136  1  0.59376269  0.25491743  0.42792536  1
  Te  Te137  1  0.59819046  0.25383064  0.75823820  1
  Te  Te138  1  0.57703485  0.58700005  0.07641851  1
  Te  Te139  1  0.59055657  0.57151002  0.38301984  1
  Te  Te140  1  0.59424065  0.57909215  0.74800312  1
  Te  Te141  1  0.61145005  0.90199648  0.13489526  1
  Te  Te142  1  0.60783941  0.93365051  0.39582067  1
  Te  Te143  1  0.58245459  0.90760059  0.73259873  1
  Te  Te144  1  0.93161781  0.24265714  0.08237979  1
  Te  Te145  1  0.87709780  0.22362473  0.42915707  1
  Te  Te146  1  0.93416091  0.27536150  0.74625223  1
  Te  Te147  1  0.88380065  0.62007311  0.12051439  1
  Te  Te148  1  0.93672366  0.58410595  0.42047605  1
  Te  Te149  1  0.91889568  0.56758500  0.73621432  1
  Te  Te150  1  0.96118048  0.93707544  0.11455492  1
  Te  Te151  1  0.93220838  0.93383256  0.40280081  1
  Te  Te152  1  0.89655210  0.92643264  0.77187034  1
  Te  Te153  1  0.25000973  0.07536263  0.24198576  1
  Te  Te154  1  0.22981568  0.10078790  0.57533823  1
  Te  Te155  1  0.24042408  0.10051246  0.93633502  1
  Te  Te156  1  0.29032837  0.44398221  0.26002064  1
  Te  Te157  1  0.24569118  0.39736534  0.57962150  1
  Te  Te158  1  0.26142911  0.39546381  0.94080839  1
  Te  Te159  1  0.24959654  0.75048350  0.26034205  1
  Te  Te160  1  0.25742895  0.72753954  0.58964100  1
  Te  Te161  1  0.19902561  0.72892965  0.91139837  1
  Te  Te162  1  0.59621445  0.07849484  0.25402958  1
  Te  Te163  1  0.61584069  0.08393541  0.56644087  1
  Te  Te164  1  0.61615742  0.10954076  0.92077968  1
  Te  Te165  1  0.58309106  0.40520610  0.24377546  1
  Te  Te166  1  0.58258309  0.40643166  0.58825700  1
  Te  Te167  1  0.57408108  0.41769893  0.91907350  1
  Te  Te168  1  0.59728385  0.73936774  0.26424826  1
  Te  Te169  1  0.58734819  0.72936797  0.58817758  1
  Te  Te170  1  0.57018655  0.76245900  0.90997440  1
  Te  Te171  1  0.86780280  0.05962294  0.27198562  1
  Te  Te172  1  0.93506747  0.07018354  0.58183825  1
  Te  Te173  1  0.93211905  0.07158361  0.92480584  1
  Te  Te174  1  0.90422201  0.41114553  0.23992079  1
  Te  Te175  1  0.90703607  0.36823758  0.62385377  1
  Te  Te176  1  0.89094707  0.40614146  0.90675559  1
  Te  Te177  1  0.94820289  0.73756769  0.22593547  1
  Te  Te178  1  0.94035575  0.72662181  0.60133721  1
  Te  Te179  1  0.90104386  0.75739720  0.93269950  1
