# generated using pymatgen
data_In2Te3
_symmetry_space_group_name_H-M   'P 1'
_cell_length_a   18.81218233
_cell_length_b   18.79750921
_cell_length_c   18.81587593
_cell_angle_alpha   89.94199442
_cell_angle_beta   89.97807005
_cell_angle_gamma   90.08579712
_symmetry_Int_Tables_number   1
_chemical_formula_structural   In2Te3
_chemical_formula_sum   'In72 Te108'
_cell_volume   6653.69952585
_cell_formula_units_Z   36
loop_
 _symmetry_equiv_pos_site_id
 _symmetry_equiv_pos_as_xyz
  1  'x, y, z'
loop_
 _atom_site_type_symbol
 _atom_site_label
 _atom_site_symmetry_multiplicity
 _atom_site_fract_x
 _atom_site_fract_y
 _atom_site_fract_z
 _atom_site_occupancy
  In  In0  1  0.15851939  0.67420416  0.84394561  1
  In  In1  1  0.52672009  0.63650072  0.48463963  1
  In  In2  1  -0.01411637  0.33129151  0.66788090  1
  In  In3  1  0.35910946  0.01876243  0.33149238  1
  In  In4  1  0.67190681  0.30665049  0.00819616  1
  In  In5  1  0.51501345  0.82461095  0.66101382  1
  In  In6  1  0.66627440  0.83742171  0.16373738  1
  In  In7  1  0.85340159  0.12921682  -0.01358297  1
  In  In8  1  0.17191351  0.50962485  0.32406025  1
  In  In9  1  0.15513607  0.52140479  0.62880863  1
  In  In10  1  0.31462690  0.80880849  0.15807267  1
  In  In11  1  0.16303285  0.32062137  0.18468289  1
  In  In12  1  0.86205056  -0.00965931  0.14105996  1
  In  In13  1  0.34159171  0.32643648  -0.01001994  1
  In  In14  1  0.32940830  0.67862325  0.01313026  1
  In  In15  1  0.84791989  0.15076757  0.68339914  1
  In  In16  1  0.50330291  0.00246738  0.15598539  1
  In  In17  1  0.15952486  0.00775118  0.50733517  1
  In  In18  1  0.50690842  0.70836373  0.82586018  1
  In  In19  1  0.82044676  0.15702950  0.31800074  1
  In  In20  1  0.15359355  0.11641917  0.70330801  1
  In  In21  1  0.66945585  0.51717015  0.18019314  1
  In  In22  1  0.13791734  0.66934756  0.50390212  1
  In  In23  1  0.51676841  0.30624624  0.82288627  1
  In  In24  1  -0.00676790  0.31208844  0.30557442  1
  In  In25  1  0.34550141  0.67751184  0.69489268  1
  In  In26  1  0.33034677  0.14736870  0.14992405  1
  In  In27  1  0.84632120  0.68878605  0.16148851  1
  In  In28  1  -0.00039630  0.69862005  -0.01439732  1
  In  In29  1  -0.03059833  0.50439341  0.81910457  1
  In  In30  1  0.80815657  0.31052809  0.84294872  1
  In  In31  1  0.17338019  0.30522397  0.49518807  1
  In  In32  1  0.33799796  0.31442813  0.35154097  1
  In  In33  1  0.82739432  0.32108836  0.17324339  1
  In  In34  1  0.33047066  0.82948953  0.51970646  1
  In  In35  1  0.15441606  0.83914179  0.00859503  1
  In  In36  1  0.69040304  -0.00738493  0.64220731  1
  In  In37  1  0.35438092  0.66436085  0.32038234  1
  In  In38  1  0.81944626  0.70264321  0.49782992  1
  In  In39  1  0.67760862  0.69585090  0.67115464  1
  In  In40  1  0.51391442  -0.00421284  0.87291892  1
  In  In41  1  0.51227100  0.51320269  0.00511411  1
  In  In42  1  0.52529024  0.85328173  0.33921391  1
  In  In43  1  0.32939838  -0.00332640  0.67366699  1
  In  In44  1  0.01249285  0.31304853  0.00163754  1
  In  In45  1  0.83113235  0.52732699  -0.00756143  1
  In  In46  1  0.02820407  0.51324492  0.49797638  1
  In  In47  1  0.69375610  0.15312072  0.16180601  1
  In  In48  1  0.84363235  0.54770447  0.66411680  1
  In  In49  1  0.65558362  0.33042054  0.65722451  1
  In  In50  1  0.14767783  0.30780634  0.83595885  1
  In  In51  1  0.18687610  0.49572553  0.01115171  1
  In  In52  1  0.15055263  0.86222844  0.31835633  1
  In  In53  1  0.68733336  0.50616347  0.83014215  1
  In  In54  1  0.79982250  0.34825518  0.49855611  1
  In  In55  1  0.34453430  0.47904813  0.49764374  1
  In  In56  1  0.31301283  0.13034083  0.85035422  1
  In  In57  1  0.37023919  0.48975904  0.80812624  1
  In  In58  1  0.69742237  0.86178071  0.84617039  1
  In  In59  1  0.68828785  -0.00927348  0.36112426  1
  In  In60  1  0.14838319  0.66858131  0.13364222  1
  In  In61  1  -0.01868282  0.86205869  0.83924969  1
  In  In62  1  0.51951849  0.48497541  0.65298684  1
  In  In63  1  -0.00376817  0.69391692  0.33640925  1
  In  In64  1  0.83325435  0.48785832  0.33535123  1
  In  In65  1  -0.01362058  0.15424308  0.50309049  1
  In  In66  1  0.49684991  0.16396875  0.63533951  1
  In  In67  1  0.50331722  0.66487344  0.16524998  1
  In  In68  1  0.14970001  0.86994697  0.68340790  1
  In  In69  1  0.14229227  -0.01043037  0.15300988  1
  In  In70  1  0.51489121  0.32789167  0.15551795  1
  In  In71  1  0.52295671  0.17871848  0.35930863  1
  Te  Te72  1  0.08531160  0.07576085  0.04630023  1
  Te  Te73  1  0.06543725  0.07005965  0.41036281  1
  Te  Te74  1  0.03141745  0.04964376  0.76010613  1
  Te  Te75  1  0.08459294  0.41447346  0.09074138  1
  Te  Te76  1  0.08993199  0.40487188  0.40692973  1
  Te  Te77  1  0.08165721  0.42364212  0.74644099  1
  Te  Te78  1  0.05141340  0.78520601  0.11096722  1
  Te  Te79  1  0.07328621  0.78649253  0.43166256  1
  Te  Te80  1  0.06925843  0.76154012  0.75879173  1
  Te  Te81  1  0.40874881  0.06150355  0.05890501  1
  Te  Te82  1  0.41992202  0.10276167  0.43519269  1
  Te  Te83  1  0.42682930  0.08413405  0.75370978  1
  Te  Te84  1  0.41734227  0.42141133  0.08239167  1
  Te  Te85  1  0.43291101  0.41877792  0.39749191  1
  Te  Te86  1  0.42024703  0.37247358  0.72137987  1
  Te  Te87  1  0.43641682  0.76762860  0.07392158  1
  Te  Te88  1  0.42468129  0.75099326  0.42449321  1
  Te  Te89  1  0.39485425  0.80640242  0.76323435  1
  Te  Te90  1  0.73796580  0.04314369  0.05963780  1
  Te  Te91  1  0.77750910  0.08122757  0.43639572  1
  Te  Te92  1  0.75895062  0.05611109  0.75979397  1
  Te  Te93  1  0.75022459  0.42068343  0.07769167  1
  Te  Te94  1  0.71458418  0.44398422  0.41931092  1
  Te  Te95  1  0.76664902  0.41418411  0.73637294  1
  Te  Te96  1  0.76065013  0.76849819  0.07053631  1
  Te  Te97  1  0.73080228  0.77781742  0.40557619  1
  Te  Te98  1  0.77525356  0.78208238  0.74262895  1
  Te  Te99  1  0.08338800  0.21301306  0.24719264  1
  Te  Te100  1  0.08325334  0.23383300  0.60176410  1
  Te  Te101  1  0.08261792  0.20291097  0.92387714  1
  Te  Te102  1  0.07227978  0.59226821  0.24636222  1
  Te  Te103  1  0.03928485  0.61919545  0.61112466  1
  Te  Te104  1  0.08107427  0.56987600  0.92545643  1
  Te  Te105  1  0.04580963  0.95184537  0.26243652  1
  Te  Te106  1  0.06263947  0.91788199  0.57555652  1
  Te  Te107  1  0.08995690  0.93529905  0.91436510  1
  Te  Te108  1  0.42328470  0.23204055  0.24102810  1
  Te  Te109  1  0.42344631  0.28268915  0.58802419  1
  Te  Te110  1  0.42218706  0.22609280  0.91276057  1
  Te  Te111  1  0.43363544  0.56459926  0.24873964  1
  Te  Te112  1  0.41446069  0.59136306  0.59026598  1
  Te  Te113  1  0.41555758  0.59562092  0.91274759  1
  Te  Te114  1  0.40924976  0.89679288  0.24916114  1
  Te  Te115  1  0.42866617  0.92627283  0.58138502  1
  Te  Te116  1  0.41110845  0.89496195  0.89168638  1
  Te  Te117  1  0.72310043  0.26290768  0.26712958  1
  Te  Te118  1  0.75621344  0.23632961  0.59008368  1
  Te  Te119  1  0.72874963  0.19623744  0.91247133  1
  Te  Te120  1  0.76481558  0.60328098  0.26162813  1
  Te  Te121  1  0.72855106  0.58692840  0.57887204  1
  Te  Te122  1  0.75304981  0.61544393  0.90372235  1
  Te  Te123  1  0.76021219  0.92809155  0.24421440  1
  Te  Te124  1  0.76635361  0.88227716  0.57272483  1
  Te  Te125  1  0.77658817  0.94255686  0.94547080  1
  Te  Te126  1  0.24261853  0.24811988  0.07446833  1
  Te  Te127  1  0.24585886  0.21338005  0.40668252  1
  Te  Te128  1  0.24842691  0.23124035  0.75324179  1
  Te  Te129  1  0.26868529  0.57810985  0.11101842  1
  Te  Te130  1  0.25051987  0.58939524  0.42975134  1
  Te  Te131  1  0.24331866  0.58037114  0.75632323  1
  Te  Te132  1  0.26218164  0.92410869  0.07645580  1
  Te  Te133  1  0.26123357  0.91753390  0.41551953  1
  Te  Te134  1  0.23186605  0.95011617  0.77671425  1
  Te  Te135  1  0.57549272  0.21144916  0.07857901  1
  Te  Te136  1  0.60067049  0.25698342  0.45610962  1
  Te  Te137  1  0.60317423  0.21430241  0.74020425  1
  Te  Te138  1  0.61129884  0.60655706  0.06963037  1
  Te  Te139  1  0.61320341  0.56177898  0.39447734  1
  Te  Te140  1  0.57690068  0.59067271  0.75095703  1
  Te  Te141  1  0.57601622  0.90876981  0.06892093  1
  Te  Te142  1  0.57078281  0.94839661  0.44419623  1
  Te  Te143  1  0.58913876  0.92733678  0.74597793  1
  Te  Te144  1  0.91381684  0.23041703  0.08589239  1
  Te  Te145  1  0.90832720  0.26435346  0.42212396  1
  Te  Te146  1  0.92894135  0.24265788  0.77812047  1
  Te  Te147  1  0.93531414  0.59207956  0.07940871  1
  Te  Te148  1  0.91574267  0.58935035  0.42378659  1
  Te  Te149  1  0.89229882  0.62458881  0.78085629  1
  Te  Te150  1  0.94160490  0.90166340  0.05011114  1
  Te  Te151  1  0.85744990  0.84727261  0.44404380  1
  Te  Te152  1  0.90207484  0.95756756  0.74973027  1
  Te  Te153  1  0.24384481  0.06652223  0.24576644  1
  Te  Te154  1  0.25469721  0.09635834  0.58671888  1
  Te  Te155  1  0.20245056  0.08931169  0.94268933  1
  Te  Te156  1  0.26374234  0.41140469  0.25385771  1
  Te  Te157  1  0.24554641  0.40442396  0.58730854  1
  Te  Te158  1  0.25362934  0.41383448  0.89869104  1
  Te  Te159  1  0.22608586  0.73836279  0.26450278  1
  Te  Te160  1  0.23535053  0.74550908  0.60476645  1
  Te  Te161  1  0.25481019  0.76692482  0.91507435  1
  Te  Te162  1  0.59254364  0.07582156  0.25660104  1
  Te  Te163  1  0.59421748  0.07564854  0.56182020  1
  Te  Te164  1  0.59922527  0.10403181  0.92011380  1
  Te  Te165  1  0.59291896  0.41099315  0.24914325  1
  Te  Te166  1  0.55915007  0.37840924  0.54757759  1
  Te  Te167  1  0.58643425  0.41324025  0.91178744  1
  Te  Te168  1  0.59355106  0.74204156  0.26234982  1
  Te  Te169  1  0.59680841  0.75409464  0.55378834  1
  Te  Te170  1  0.60484265  0.76728014  0.91710269  1
  Te  Te171  1  0.92366954  0.09067005  0.23583580  1
  Te  Te172  1  0.91095023  0.05609389  0.58539363  1
  Te  Te173  1  0.92142553  0.04044652  0.88345244  1
  Te  Te174  1  0.92435789  0.42533679  0.22995255  1
  Te  Te175  1  0.91615711  0.42989615  0.57438485  1
  Te  Te176  1  0.90814341  0.40303940  0.92357729  1
  Te  Te177  1  0.91087693  0.78318952  0.25725864  1
  Te  Te178  1  0.88618062  0.78448186  0.60468094  1
  Te  Te179  1  0.89003450  0.79480656  0.94431802  1
