# generated using pymatgen
data_In2Te3
_symmetry_space_group_name_H-M   'P 1'
_cell_length_a   18.88317251
_cell_length_b   18.88114909
_cell_length_c   18.86647496
_cell_angle_alpha   89.90596392
_cell_angle_beta   89.99072168
_cell_angle_gamma   89.97249763
_symmetry_Int_Tables_number   1
_chemical_formula_structural   In2Te3
_chemical_formula_sum   'In72 Te108'
_cell_volume   6726.56750789
_cell_formula_units_Z   36
loop_
 _symmetry_equiv_pos_site_id
 _symmetry_equiv_pos_as_xyz
  1  'x, y, z'
loop_
 _atom_site_type_symbol
 _atom_site_label
 _atom_site_symmetry_multiplicity
 _atom_site_fract_x
 _atom_site_fract_y
 _atom_site_fract_z
 _atom_site_occupancy
  In  In0  1  0.84334778  0.49143424  0.01603210  1
  In  In1  1  0.49327022  0.49233020  0.36123300  1
  In  In2  1  0.15885624  0.83069955  -0.01321378  1
  In  In3  1  0.51908487  0.81271491  0.63602423  1
  In  In4  1  0.35334752  0.48223452  0.16599924  1
  In  In5  1  0.83830680  0.82563805  0.69425657  1
  In  In6  1  0.01715905  0.50137904  0.49229818  1
  In  In7  1  0.83876809  0.82539474  0.36365002  1
  In  In8  1  0.00667167  0.67740637  0.32517730  1
  In  In9  1  0.01237822  0.83477458  0.45991819  1
  In  In10  1  0.16414628  0.34176503  0.49325202  1
  In  In11  1  0.48195889  0.30880646  0.84364349  1
  In  In12  1  0.82916926  0.01215216  0.16328906  1
  In  In13  1  0.65398684  0.00098924  0.00172411  1
  In  In14  1  0.32980220  0.63029400  0.63371515  1
  In  In15  1  0.49870532  0.82504544  0.01193002  1
  In  In16  1  -0.00331570  0.51495784  0.83701476  1
  In  In17  1  -0.03263556  0.80380510  0.88182805  1
  In  In18  1  0.32673313  0.51087819  0.81976828  1
  In  In19  1  0.18851691  0.18778307  0.65994885  1
  In  In20  1  0.84818192  -0.01930396  0.50922591  1
  In  In21  1  0.50855422  0.16727780  0.33485474  1
  In  In22  1  0.66899585  0.64507137  0.01376879  1
  In  In23  1  0.31920418  0.31800136  0.32025935  1
  In  In24  1  0.18545717  -0.00198857  0.88373722  1
  In  In25  1  0.66190677  0.33353277  0.65683446  1
  In  In26  1  0.14821676  0.49547939  0.00985542  1
  In  In27  1  0.33913590  -0.00241240  0.69038748  1
  In  In28  1  -0.01520890  0.50138842  0.18047695  1
  In  In29  1  0.34976222  0.17038487  0.48593156  1
  In  In30  1  0.33333108  0.00529942  0.01437911  1
  In  In31  1  0.83815058  0.17214625  0.33029228  1
  In  In32  1  -0.01808435  0.16760377  0.47595249  1
  In  In33  1  0.17877126  0.82297705  0.33853061  1
  In  In34  1  0.67098207  0.80441384  0.16663514  1
  In  In35  1  0.54040684  0.32573931  0.13666188  1
  In  In36  1  0.66494649  0.17122683  0.85814831  1
  In  In37  1  0.33843671  0.38250579  0.65249939  1
  In  In38  1  0.84935344  0.01515561  0.86912411  1
  In  In39  1  0.16992428  0.79752227  0.65862057  1
  In  In40  1  0.85100011  0.66382227  0.50043641  1
  In  In41  1  0.16122641  0.00656920  0.46683576  1
  In  In42  1  0.65891012  0.02307093  0.64219463  1
  In  In43  1  -0.00431173  0.84214374  0.15037757  1
  In  In44  1  0.49955995  -0.02563574  0.47316922  1
  In  In45  1  0.50231218  0.67332342  0.83343802  1
  In  In46  1  0.13865264  0.31246512  0.19360588  1
  In  In47  1  0.31980097  0.82327191  0.84902774  1
  In  In48  1  0.16127285  0.34369781  0.83438077  1
  In  In49  1  0.51018823  0.48980924  -0.01884060  1
  In  In50  1  0.17847140  0.15865886  0.00886609  1
  In  In51  1  -0.00170956  0.15001908  0.85404085  1
  In  In52  1  0.84458096  0.32044594  0.16343057  1
  In  In53  1  -0.00847600  0.35614388  0.66710800  1
  In  In54  1  0.00590388  0.65893383  0.67247029  1
  In  In55  1  0.66026050  0.80368810  0.48620834  1
  In  In56  1  0.18095219  0.66863967  0.16722688  1
  In  In57  1  0.46692335  0.69025896  0.17945210  1
  In  In58  1  0.66769384  0.18038104  0.52986863  1
  In  In59  1  0.69137106  0.52072250  0.17862876  1
  In  In60  1  0.79578178  0.18960487  0.68087913  1
  In  In61  1  0.70629108  0.37077489  0.33060072  1
  In  In62  1  0.65947482  0.69369623  0.63696694  1
  In  In63  1  0.32704115  0.16302311  0.15578462  1
  In  In64  1  0.66441257  0.01366072  0.32988401  1
  In  In65  1  0.02105452  0.02123815  0.66274578  1
  In  In66  1  0.18940397  -0.00534092  0.17508598  1
  In  In67  1  0.82636823  0.33898891  0.84573948  1
  In  In68  1  0.50756066  0.34280828  0.49612306  1
  In  In69  1  0.68919112  0.84378387  0.81437953  1
  In  In70  1  0.51093680  0.02522915  0.83173476  1
  In  In71  1  0.64617407  0.49459934  0.81370050  1
  Te  Te72  1  0.09402716  0.07399008  0.09268069  1
  Te  Te73  1  0.07629704  0.09696221  0.38505864  1
  Te  Te74  1  0.11224400  0.09451080  0.76250157  1
  Te  Te75  1  0.06206978  0.40214480  0.09454178  1
  Te  Te76  1  0.07911794  0.40868678  0.39455576  1
  Te  Te77  1  0.09232170  0.44141096  0.74127002  1
  Te  Te78  1  0.07913266  0.73727758  0.07842337  1
  Te  Te79  1  0.10886286  0.72160004  0.43125903  1
  Te  Te80  1  0.05969797  0.76983621  0.76172003  1
  Te  Te81  1  0.42522139  0.06042881  0.11479942  1
  Te  Te82  1  0.40924183  0.06610270  0.39014927  1
  Te  Te83  1  0.42590521  0.10405267  0.74075995  1
  Te  Te84  1  0.42510494  0.39363280  0.06348338  1
  Te  Te85  1  0.38467857  0.40493670  0.42546961  1
  Te  Te86  1  0.43946452  0.42914556  0.75632182  1
  Te  Te87  1  0.39219522  0.73832434  0.06217659  1
  Te  Te88  1  0.39018623  0.80821499  0.37491021  1
  Te  Te89  1  0.41969499  0.76802908  0.74833568  1
  Te  Te90  1  0.72117381  0.09333556  0.09749505  1
  Te  Te91  1  0.74895704  0.08168754  0.43602488  1
  Te  Te92  1  0.74030663  0.06723849  0.76524184  1
  Te  Te93  1  0.73837259  0.40996012  0.08913216  1
  Te  Te94  1  0.72276491  0.43586646  0.45989449  1
  Te  Te95  1  0.75761877  0.42107423  0.73807107  1
  Te  Te96  1  0.76759322  0.74103893  0.07183816  1
  Te  Te97  1  0.73923478  0.70940467  0.39008379  1
  Te  Te98  1  0.75476761  0.71900993  0.76089087  1
  Te  Te99  1  0.04729378  0.20992376  0.24576337  1
  Te  Te100  1  0.06861574  0.24377019  0.58470482  1
  Te  Te101  1  0.08612384  0.25090339  0.92748683  1
  Te  Te102  1  0.09684025  0.57749433  0.25479662  1
  Te  Te103  1  0.09576412  0.59910082  0.57339502  1
  Te  Te104  1  0.08953510  0.59608175  0.91885558  1
  Te  Te105  1  0.08731113  0.90879046  0.25213898  1
  Te  Te106  1  0.08674798  0.91502550  0.57438077  1
  Te  Te107  1  0.05875856  0.92473191  0.92223005  1
  Te  Te108  1  0.43401607  0.26232513  0.23838049  1
  Te  Te109  1  0.41476810  0.26312199  0.58714221  1
  Te  Te110  1  0.40435035  0.21924122  0.92963073  1
  Te  Te111  1  0.40613468  0.57879956  0.27118338  1
  Te  Te112  1  0.43065557  0.54376159  0.55882122  1
  Te  Te113  1  0.41247738  0.59022794  0.92153584  1
  Te  Te114  1  0.37208712  0.86599261  0.24494463  1
  Te  Te115  1  0.41662297  0.91503685  0.58593819  1
  Te  Te116  1  0.42306336  0.92364479  0.90944916  1
  Te  Te117  1  0.73484270  0.24725092  0.24819484  1
  Te  Te118  1  0.77843566  0.27959262  0.56199146  1
  Te  Te119  1  0.77300501  0.23521476  0.94048735  1
  Te  Te120  1  0.75853242  0.60047848  0.27799992  1
  Te  Te121  1  0.75249078  0.59295488  0.58375274  1
  Te  Te122  1  0.74188322  0.55523263  0.91674878  1
  Te  Te123  1  0.75504561  0.90940764  0.25931520  1
  Te  Te124  1  0.73806195  0.90186199  0.58197001  1
  Te  Te125  1  0.75649620  0.91116459  0.93266143  1
  Te  Te126  1  0.24326094  0.27001814  0.08927184  1
  Te  Te127  1  0.23255914  0.23286214  0.41133734  1
  Te  Te128  1  0.26831329  0.27845482  0.74821864  1
  Te  Te129  1  0.26127400  0.57203923  0.08194541  1
  Te  Te130  1  0.32778266  0.62095665  0.48234752  1
  Te  Te131  1  0.24424773  0.61469677  0.75443003  1
  Te  Te132  1  0.25893164  0.89173645  0.08388044  1
  Te  Te133  1  0.26944995  0.91844843  0.41159938  1
  Te  Te134  1  0.22825564  0.91217089  0.75301794  1
  Te  Te135  1  0.60355186  0.21445033  0.06474248  1
  Te  Te136  1  0.60352445  0.25937780  0.40989669  1
  Te  Te137  1  0.58525518  0.23823323  0.74672320  1
  Te  Te138  1  0.56214815  0.57644261  0.09695480  1
  Te  Te139  1  0.56803967  0.58046294  0.45358857  1
  Te  Te140  1  0.57470009  0.59617384  0.72528845  1
  Te  Te141  1  0.58060125  0.91200320  0.10390751  1
  Te  Te142  1  0.58680584  0.89198024  0.38230088  1
  Te  Te143  1  0.58060784  0.91822383  0.73768553  1
  Te  Te144  1  0.89223687  0.23908830  0.05056583  1
  Te  Te145  1  0.91809028  0.27683439  0.39869226  1
  Te  Te146  1  0.92098389  0.24342129  0.75882472  1
  Te  Te147  1  0.91987812  0.59817693  0.08580760  1
  Te  Te148  1  0.91637442  0.57761187  0.39603667  1
  Te  Te149  1  0.90362254  0.59041935  0.75050235  1
  Te  Te150  1  0.90305394  0.92389221  0.06992811  1
  Te  Te151  1  0.93203041  0.94516691  0.38929586  1
  Te  Te152  1  0.91817117  0.94304608  0.74953200  1
  Te  Te153  1  0.25411480  0.09377965  0.26282556  1
  Te  Te154  1  0.25464643  0.07806091  0.57631944  1
  Te  Te155  1  0.29072133  0.11291984  0.90439093  1
  Te  Te156  1  0.23861767  0.42193743  0.24668039  1
  Te  Te157  1  0.22122482  0.44169065  0.58564264  1
  Te  Te158  1  0.25572153  0.42314726  0.92189721  1
  Te  Te159  1  0.27882345  0.73620844  0.26321616  1
  Te  Te160  1  0.27726982  0.75724647  0.56588215  1
  Te  Te161  1  0.22321943  0.72587080  0.90189841  1
  Te  Te162  1  0.57313762  0.07996110  0.23436866  1
  Te  Te163  1  0.54944031  0.09111447  0.56528114  1
  Te  Te164  1  0.54916308  0.11652409  0.95173338  1
  Te  Te165  1  0.58060811  0.42326174  0.25443593  1
  Te  Te166  1  0.60519968  0.44062343  0.56189838  1
  Te  Te167  1  0.59681776  0.38714722  0.91050897  1
  Te  Te168  1  0.58534500  0.72663841  0.25738098  1
  Te  Te169  1  0.53253043  0.72084571  0.51538322  1
  Te  Te170  1  0.60020080  0.75711732  0.91702770  1
  Te  Te171  1  0.92737755  0.11027204  0.22459964  1
  Te  Te172  1  0.89955344  0.09342081  0.59770466  1
  Te  Te173  1  0.91955943  0.09899716  0.97197856  1
  Te  Te174  1  0.90270962  0.41049660  0.26531849  1
  Te  Te175  1  0.91310437  0.44130893  0.57937468  1
  Te  Te176  1  0.93443362  0.40798217  0.92619529  1
  Te  Te177  1  0.90808157  0.75837814  0.24469366  1
  Te  Te178  1  0.92222183  0.77648476  0.57542850  1
  Te  Te179  1  0.88923586  0.71147324  0.96140947  1
