# generated using pymatgen
data_In2Te3
_symmetry_space_group_name_H-M   'P 1'
_cell_length_a   18.89244141
_cell_length_b   18.88944318
_cell_length_c   18.88603816
_cell_angle_alpha   89.87691546
_cell_angle_beta   90.04655901
_cell_angle_gamma   89.90797673
_symmetry_Int_Tables_number   1
_chemical_formula_structural   In2Te3
_chemical_formula_sum   'In72 Te108'
_cell_volume   6739.79048453
_cell_formula_units_Z   36
loop_
 _symmetry_equiv_pos_site_id
 _symmetry_equiv_pos_as_xyz
  1  'x, y, z'
loop_
 _atom_site_type_symbol
 _atom_site_label
 _atom_site_symmetry_multiplicity
 _atom_site_fract_x
 _atom_site_fract_y
 _atom_site_fract_z
 _atom_site_occupancy
  In  In0  1  0.33355853  0.51031005  0.47693483  1
  In  In1  1  0.17824607  0.83463909  0.32005892  1
  In  In2  1  0.34685512  0.32990936  0.01261668  1
  In  In3  1  0.48080656  0.87744559  0.67000051  1
  In  In4  1  0.67735180  0.67931042  0.65305636  1
  In  In5  1  0.84729733  0.02607212  0.52468262  1
  In  In6  1  0.31548003  0.31967351  0.32762675  1
  In  In7  1  0.00273201  0.66456117  0.67101976  1
  In  In8  1  0.03258856  0.12111921  0.81179085  1
  In  In9  1  0.48402503  0.00718734  0.17055947  1
  In  In10  1  0.34900203  0.32344890  0.66065245  1
  In  In11  1  0.50943005  0.49121565  0.00535110  1
  In  In12  1  0.81139687  0.48041527  0.35530590  1
  In  In13  1  0.65539860  0.47373191  0.15824500  1
  In  In14  1  0.50370057  0.31765690  0.18722076  1
  In  In15  1  0.82907641  0.63723585  0.87184885  1
  In  In16  1  0.83595397  0.84407101  0.66745671  1
  In  In17  1  0.50263019  0.16020112  0.64950521  1
  In  In18  1  0.82144798  0.86693017  0.36297234  1
  In  In19  1  0.18714203  0.31772422  0.15625501  1
  In  In20  1  0.17302456  0.33328399  0.83599299  1
  In  In21  1  0.67363347  0.49285593  0.82575541  1
  In  In22  1  0.20643176  0.67427473  0.48314379  1
  In  In23  1  0.34518547  0.46237751  0.83643569  1
  In  In24  1  0.14501819  0.31229503  0.50377880  1
  In  In25  1  0.84012235  0.28495292  0.81970559  1
  In  In26  1  -0.01115242  0.31586456  -0.01244438  1
  In  In27  1  -0.00403011  0.69773724  0.04849844  1
  In  In28  1  -0.02226013  0.48513268  0.17935486  1
  In  In29  1  0.65166769  0.17567123  0.48920783  1
  In  In30  1  0.34923411  0.03584013  0.34579484  1
  In  In31  1  0.01006154  0.66722607  0.33127811  1
  In  In32  1  0.82654442  0.84193165  0.00547007  1
  In  In33  1  0.21000044  0.91436564  0.68654768  1
  In  In34  1  0.67047932  0.33904346  -0.00167433  1
  In  In35  1  0.36208129  0.70305932  0.02426322  1
  In  In36  1  0.15579721  0.53454550  0.02430608  1
  In  In37  1  0.15705859  0.15685676  0.34085924  1
  In  In38  1  0.82501447  0.48583960  0.64661304  1
  In  In39  1  0.61692713  0.65819907  -0.00206219  1
  In  In40  1  0.04801100  0.81688417  0.17555023  1
  In  In41  1  0.63295189  0.82616602  0.15372067  1
  In  In42  1  0.02959295  -0.01787806  0.00245915  1
  In  In43  1  0.84797424  0.66322497  0.17081763  1
  In  In44  1  0.01910091  0.86185205  0.83419193  1
  In  In45  1  0.32115005  0.65380026  0.63945859  1
  In  In46  1  0.65953872  0.84446995  0.49446996  1
  In  In47  1  0.19219009  0.68373713  0.17148616  1
  In  In48  1  0.48887334  0.67868101  0.82874568  1
  In  In49  1  0.34472094  -0.00304935  -0.00248133  1
  In  In50  1  0.83973328  0.15684258  0.01286217  1
  In  In51  1  0.01022979  0.47765437  0.84232332  1
  In  In52  1  0.50111279  0.33835649  0.48405166  1
  In  In53  1  0.65223959  0.84338188  0.80723465  1
  In  In54  1  0.19805132  0.69179758  0.85168421  1
  In  In55  1  0.81518283  0.68760782  0.51136717  1
  In  In56  1  0.64064787  0.01936048  -0.03896954  1
  In  In57  1  0.84260605  0.01843191  0.18118821  1
  In  In58  1  -0.00021300  0.16531186  0.19328046  1
  In  In59  1  0.63178283  0.30473021  0.65630461  1
  In  In60  1  0.68941374  0.18744962  0.19159014  1
  In  In61  1  -0.01136535  0.47599535  0.48837724  1
  In  In62  1  0.81692987  0.04271022  0.80568286  1
  In  In63  1  0.62044037  0.65254325  0.31282862  1
  In  In64  1  0.15491330  0.49716996  0.66721634  1
  In  In65  1  0.64859406  -0.00640033  0.33810256  1
  In  In66  1  0.16812188  0.02197581  0.52425042  1
  In  In67  1  0.18571062  -0.00721182  0.16088755  1
  In  In68  1  0.47068934  0.30602030  0.79549733  1
  In  In69  1  0.31576585  0.16044037  0.83988261  1
  In  In70  1  0.33612121  0.82682725  0.47720175  1
  In  In71  1  0.82053166  0.30425657  0.48679900  1
  Te  Te72  1  0.08558263  0.09082283  0.09207734  1
  Te  Te73  1  0.06335290  0.09395034  0.44115637  1
  Te  Te74  1  0.13431120  0.04906782  0.72450694  1
  Te  Te75  1  0.07170242  0.41407552  0.07243854  1
  Te  Te76  1  0.09357202  0.41279580  0.40876836  1
  Te  Te77  1  0.07034983  0.39039662  0.73437291  1
  Te  Te78  1  0.12795716  0.76985551  0.05668858  1
  Te  Te79  1  0.09165575  0.75865230  0.41948820  1
  Te  Te80  1  0.09404600  0.75244719  0.75511824  1
  Te  Te81  1  0.41183404  0.09912427  0.08100295  1
  Te  Te82  1  0.45280223  0.04872162  0.45328820  1
  Te  Te83  1  0.38878188  0.08960876  0.72480407  1
  Te  Te84  1  0.42045602  0.42017254  0.10710779  1
  Te  Te85  1  0.41580248  0.42098090  0.38731900  1
  Te  Te86  1  0.43483529  0.43619564  0.71951128  1
  Te  Te87  1  0.46992015  0.75015525  0.11131987  1
  Te  Te88  1  0.42642437  0.70952452  0.43888711  1
  Te  Te89  1  0.40988974  0.75004568  0.72137238  1
  Te  Te90  1  0.73718081  0.06831207  0.08208491  1
  Te  Te91  1  0.74481372  0.07764093  0.41806891  1
  Te  Te92  1  0.72925039  0.11434799  0.71542384  1
  Te  Te93  1  0.76342537  0.39779537  0.09523454  1
  Te  Te94  1  0.72078792  0.40511381  0.44290439  1
  Te  Te95  1  0.74879192  0.39032571  0.74180315  1
  Te  Te96  1  0.74077940  0.73879039  0.07769430  1
  Te  Te97  1  0.73490887  0.74393954  0.39410042  1
  Te  Te98  1  0.76714881  0.74234387  0.76109714  1
  Te  Te99  1  0.08875735  0.26780996  0.26144946  1
  Te  Te100  1  0.04944067  0.20806753  0.55042782  1
  Te  Te101  1  0.08546575  0.23199111  0.90801131  1
  Te  Te102  1  0.08069942  0.58779464  0.22428880  1
  Te  Te103  1  0.08310635  0.58634865  0.56689950  1
  Te  Te104  1  0.08522658  0.59439799  0.90281157  1
  Te  Te105  1  0.08004082  0.93787792  0.25949917  1
  Te  Te106  1  0.08714314  0.92336018  0.60350368  1
  Te  Te107  1  0.13059898  0.92836082  0.90723262  1
  Te  Te108  1  0.40483255  0.22922241  0.25154128  1
  Te  Te109  1  0.41113814  0.23670969  0.55422909  1
  Te  Te110  1  0.42295807  0.23497852  0.92273062  1
  Te  Te111  1  0.35909230  0.63377156  0.32570091  1
  Te  Te112  1  0.43139903  0.58682806  0.56323718  1
  Te  Te113  1  0.41279902  0.57572293  0.91541016  1
  Te  Te114  1  0.41084881  0.92554309  0.27041653  1
  Te  Te115  1  0.40490091  0.93866398  0.55361962  1
  Te  Te116  1  0.41441089  0.91078950  0.89449522  1
  Te  Te117  1  0.78972094  0.24495838  0.28206767  1
  Te  Te118  1  0.75223050  0.22330746  0.60500607  1
  Te  Te119  1  0.74252589  0.22741556  0.92025797  1
  Te  Te120  1  0.74856792  0.57790203  0.24827770  1
  Te  Te121  1  0.73115157  0.57058014  0.56156285  1
  Te  Te122  1  0.72356851  0.55966262  0.95250569  1
  Te  Te123  1  0.74204310  0.90825278  0.23652302  1
  Te  Te124  1  0.74052082  0.93072679  0.58991992  1
  Te  Te125  1  0.75537110  0.92669607  0.90068198  1
  Te  Te126  1  0.24620513  0.23205832  0.05383181  1
  Te  Te127  1  0.25257689  0.22828704  0.43597531  1
  Te  Te128  1  0.23753974  0.24646976  0.73140365  1
  Te  Te129  1  0.28209299  0.59052369  0.09024443  1
  Te  Te130  1  0.22773898  0.56737952  0.38116141  1
  Te  Te131  1  0.25020234  0.57439873  0.75830466  1
  Te  Te132  1  0.27723789  0.90214947  0.09198101  1
  Te  Te133  1  0.24213941  0.93759513  0.41348727  1
  Te  Te134  1  0.33514396  0.94313653  0.77229445  1
  Te  Te135  1  0.59232580  0.24272859  0.08631668  1
  Te  Te136  1  0.58168579  0.25786434  0.38827545  1
  Te  Te137  1  0.59260616  0.20472915  0.77601496  1
  Te  Te138  1  0.55439528  0.58758988  0.11633999  1
  Te  Te139  1  0.54875225  0.60767593  0.43131604  1
  Te  Te140  1  0.59170251  0.59563032  0.74986520  1
  Te  Te141  1  0.57039563  0.93218869  0.06423772  1
  Te  Te142  1  0.55949000  0.88966912  0.39443594  1
  Te  Te143  1  0.57448170  0.95596472  0.75508696  1
  Te  Te144  1  0.91093331  0.25372554  0.10292203  1
  Te  Te145  1  0.90867173  0.25019822  0.38200968  1
  Te  Te146  1  0.94149131  0.21607020  0.73524993  1
  Te  Te147  1  0.91422554  0.57135719  0.06844619  1
  Te  Te148  1  0.90788395  0.59480867  0.41972385  1
  Te  Te149  1  0.91031199  0.56775190  0.74455817  1
  Te  Te150  1  0.92544605  0.91576724  0.09477521  1
  Te  Te151  1  0.92482159  0.92536780  0.44614236  1
  Te  Te152  1  0.91935389  0.94057825  0.74922443  1
  Te  Te153  1  0.25654728  0.10058867  0.24124145  1
  Te  Te154  1  0.24888282  0.09273649  0.62740439  1
  Te  Te155  1  0.23395558  0.06256394  0.91651773  1
  Te  Te156  1  0.25790792  0.41929501  0.23284004  1
  Te  Te157  1  0.25238608  0.41939283  0.57945661  1
  Te  Te158  1  0.23533088  0.42860693  0.93794382  1
  Te  Te159  1  0.29094175  0.75931070  0.25568546  1
  Te  Te160  1  0.23957643  0.77774577  0.59354468  1
  Te  Te161  1  0.30382340  0.77931557  0.90955615  1
  Te  Te162  1  0.58147116  0.09791994  0.25189309  1
  Te  Te163  1  0.57437967  0.06519829  0.55732643  1
  Te  Te164  1  0.54807945  0.09519642  0.87866342  1
  Te  Te165  1  0.59216208  0.40355542  0.27068544  1
  Te  Te166  1  0.58046563  0.41902943  0.58078528  1
  Te  Te167  1  0.56830640  0.40133352  0.89463427  1
  Te  Te168  1  0.54086483  0.76874715  0.25764999  1
  Te  Te169  1  0.57360784  0.77219641  0.59659748  1
  Te  Te170  1  0.56747310  0.77651776  0.91551785  1
  Te  Te171  1  0.90966461  0.09424087  0.28889333  1
  Te  Te172  1  0.93654681  0.11314076  0.60654153  1
  Te  Te173  1  0.92835751  0.07410135  0.92193053  1
  Te  Te174  1  0.90989722  0.39818384  0.27916022  1
  Te  Te175  1  0.91721281  0.38411288  0.58318414  1
  Te  Te176  1  0.89459734  0.40306909  0.90561227  1
  Te  Te177  1  0.91916337  0.76712715  0.25670071  1
  Te  Te178  1  0.92926298  0.76255246  0.57957596  1
  Te  Te179  1  0.92739101  0.76226251  0.92150563  1
