# generated using pymatgen
data_In2Te3
_symmetry_space_group_name_H-M   'P 1'
_cell_length_a   18.78531474
_cell_length_b   18.79429041
_cell_length_c   18.79320730
_cell_angle_alpha   89.92860307
_cell_angle_beta   90.00138885
_cell_angle_gamma   89.96598628
_symmetry_Int_Tables_number   1
_chemical_formula_structural   In2Te3
_chemical_formula_sum   'In72 Te108'
_cell_volume   6635.06069090
_cell_formula_units_Z   36
loop_
 _symmetry_equiv_pos_site_id
 _symmetry_equiv_pos_as_xyz
  1  'x, y, z'
loop_
 _atom_site_type_symbol
 _atom_site_label
 _atom_site_symmetry_multiplicity
 _atom_site_fract_x
 _atom_site_fract_y
 _atom_site_fract_z
 _atom_site_occupancy
  In  In0  1  0.33321691  0.50504397  0.16334699  1
  In  In1  1  0.50613473  0.33887241  0.82948803  1
  In  In2  1  0.18337536  -0.01724742  0.48197267  1
  In  In3  1  0.33720247  0.67245974  0.69344130  1
  In  In4  1  -0.00004259  0.50887638  0.19912987  1
  In  In5  1  0.68713918  0.85838031  0.87092641  1
  In  In6  1  0.49952057  0.32462468  0.16776782  1
  In  In7  1  0.66882104  0.65821703  0.65771463  1
  In  In8  1  0.84230054  0.70346733  0.18191380  1
  In  In9  1  0.17256764  -0.01043658  0.14916151  1
  In  In10  1  0.67878990  0.16044711  0.48116992  1
  In  In11  1  0.20080968  0.70008366  0.85487568  1
  In  In12  1  -0.00471794  0.32862437  -0.00572014  1
  In  In13  1  0.15534317  0.16952788  0.68187197  1
  In  In14  1  0.49538127  0.13940134  0.31761201  1
  In  In15  1  -0.02017963  0.50995862  0.47768481  1
  In  In16  1  0.34280230  0.18186539  0.48806725  1
  In  In17  1  0.65223770  0.14852244  0.15962455  1
  In  In18  1  0.67086241  0.51104595  0.14525236  1
  In  In19  1  -0.00056408  0.17070208  0.52567765  1
  In  In20  1  0.50446274  0.49355045  0.67515345  1
  In  In21  1  -0.00594293  0.15017014  0.12905383  1
  In  In22  1  0.18462591  0.32280047  0.16364391  1
  In  In23  1  0.50417925  0.49331453  -0.01484539  1
  In  In24  1  0.48754890  0.14482515  0.00026682  1
  In  In25  1  -0.00373063  0.30902639  0.66307157  1
  In  In26  1  0.01062006  -0.02361820  0.33245249  1
  In  In27  1  0.51533963  0.67503886  0.50260907  1
  In  In28  1  0.48754527  0.17009719  0.65509974  1
  In  In29  1  0.81591428  0.16819279  0.68820945  1
  In  In30  1  0.66817344  0.38059370  0.69805016  1
  In  In31  1  0.01442125  0.68591164  0.00956940  1
  In  In32  1  -0.02967811  0.14154335  0.87506863  1
  In  In33  1  0.83509460  0.50761384  0.31084056  1
  In  In34  1  0.33549607  0.14414781  0.14346226  1
  In  In35  1  0.17161574  0.17206448  0.32032399  1
  In  In36  1  0.18045922  0.49693486  0.00020377  1
  In  In37  1  0.82144454  0.49984397  0.01123353  1
  In  In38  1  0.83247997  -0.02927530  0.15541186  1
  In  In39  1  0.34213974  0.47943357  0.49447299  1
  In  In40  1  0.67717035  0.66882481  0.00470398  1
  In  In41  1  -0.00953020  0.85959238  0.49442347  1
  In  In42  1  0.67730005  -0.00967201  0.67834994  1
  In  In43  1  0.49427375  0.53101271  0.35045798  1
  In  In44  1  0.32879838  -0.00528253  0.67638775  1
  In  In45  1  0.62979267  0.85281909  0.13915595  1
  In  In46  1  0.83465643  0.33777524  0.49288516  1
  In  In47  1  0.68474180  0.18781057  0.86505740  1
  In  In48  1  0.64569676  0.31462137  0.32789551  1
  In  In49  1  0.83496918  0.84061269  0.66410275  1
  In  In50  1  0.48716030  0.84913485  0.30008454  1
  In  In51  1  0.33002243  0.84767783  0.49763916  1
  In  In52  1  0.84088314  0.65921330  0.84707646  1
  In  In53  1  0.31740115  0.15292351  0.84590874  1
  In  In54  1  0.18350934  0.68833135  0.15715575  1
  In  In55  1  0.49466967  -0.02954519  0.87439236  1
  In  In56  1  0.19785950  -0.02033756  0.86578858  1
  In  In57  1  0.15464611  0.50112838  0.30910269  1
  In  In58  1  0.00426483  -0.01848292  0.67339757  1
  In  In59  1  -0.02047046  0.68679366  0.68786879  1
  In  In60  1  0.16920725  0.33780221  0.84121872  1
  In  In61  1  0.64708780  0.50859206  0.50621567  1
  In  In62  1  0.32307163  0.66311539  0.31601758  1
  In  In63  1  0.48653257  0.68323269  0.84716191  1
  In  In64  1  0.15060576  0.68563523  0.49157261  1
  In  In65  1  0.00895485  0.83499405  0.84629461  1
  In  In66  1  0.82224965  0.15220685  0.33732023  1
  In  In67  1  0.83792251  -0.01867196  0.47660637  1
  In  In68  1  0.00270398  0.37280574  0.32148038  1
  In  In69  1  -0.00928437  0.50958268  0.82569044  1
  In  In70  1  0.18309406  0.52891706  0.66096752  1
  In  In71  1  0.51042544  -0.01978438  0.47567924  1
  Te  Te72  1  0.09843547  0.07849987  0.05416733  1
  Te  Te73  1  0.07749843  0.08254331  0.42227804  1
  Te  Te74  1  0.07447194  0.07619721  0.77094854  1
  Te  Te75  1  0.08042575  0.42348361  0.09049886  1
  Te  Te76  1  0.09696721  0.42425204  0.43007782  1
  Te  Te77  1  0.08221590  0.41912387  0.74224026  1
  Te  Te78  1  0.08679743  0.78391656  0.09246805  1
  Te  Te79  1  0.07613062  0.77819746  0.40365649  1
  Te  Te80  1  0.09830760  0.75515202  0.75057740  1
  Te  Te81  1  0.45416045  0.04070018  0.10870851  1
  Te  Te82  1  0.39933268  0.06216170  0.41111802  1
  Te  Te83  1  0.43118878  0.07610619  0.76602082  1
  Te  Te84  1  0.41033951  0.40734191  0.07582984  1
  Te  Te85  1  0.42962349  0.40866937  0.39976932  1
  Te  Te86  1  0.40727268  0.42280576  0.75940885  1
  Te  Te87  1  0.39116415  0.79047281  0.06480412  1
  Te  Te88  1  0.41173310  0.74524868  0.41451090  1
  Te  Te89  1  0.41482474  0.77895308  0.75783651  1
  Te  Te90  1  0.74764419  0.06780556  0.07421409  1
  Te  Te91  1  0.72465559  0.04774459  0.39112107  1
  Te  Te92  1  0.75402109  0.06947402  0.78348940  1
  Te  Te93  1  0.72704718  0.39848483  0.06731711  1
  Te  Te94  1  0.74294478  0.41748657  0.40080855  1
  Te  Te95  1  0.79066244  0.42013694  0.76116232  1
  Te  Te96  1  0.75578854  0.77357354  0.07942982  1
  Te  Te97  1  0.81674759  0.74625068  0.41630310  1
  Te  Te98  1  0.75274937  0.75799021  0.76493015  1
  Te  Te99  1  0.06729803  0.25213579  0.23652014  1
  Te  Te100  1  0.10942099  0.26490444  0.56979459  1
  Te  Te101  1  0.08742310  0.23398879  0.91807432  1
  Te  Te102  1  0.08066465  0.62225144  0.25809420  1
  Te  Te103  1  0.06510503  0.59349736  0.58562807  1
  Te  Te104  1  0.08660884  0.59316880  0.91094417  1
  Te  Te105  1  0.06729513  0.90340770  0.21667309  1
  Te  Te106  1  0.10353589  0.90466891  0.58975302  1
  Te  Te107  1  0.08612975  0.91778612  0.94332097  1
  Te  Te108  1  0.40247661  0.23764012  0.24642929  1
  Te  Te109  1  0.40158631  0.27047240  0.59139498  1
  Te  Te110  1  0.41560776  0.24770837  0.91609408  1
  Te  Te111  1  0.43153330  0.60171053  0.22919465  1
  Te  Te112  1  0.41551993  0.58897319  0.58420407  1
  Te  Te113  1  0.40574046  0.58780054  0.92566962  1
  Te  Te114  1  0.39970327  0.93218097  0.21164193  1
  Te  Te115  1  0.42971859  0.91701049  0.59119777  1
  Te  Te116  1  0.38718033  0.88959187  0.93985697  1
  Te  Te117  1  0.74661767  0.24296619  0.24013046  1
  Te  Te118  1  0.74356976  0.25473258  0.58284351  1
  Te  Te119  1  0.78755767  0.25136770  0.94770045  1
  Te  Te120  1  0.74087406  0.60663837  0.24205919  1
  Te  Te121  1  0.75806018  0.57654769  0.57354773  1
  Te  Te122  1  0.73282511  0.56905892  0.90514359  1
  Te  Te123  1  0.73274106  0.89840781  0.24017741  1
  Te  Te124  1  0.73687505  0.90391030  0.56618751  1
  Te  Te125  1  0.76880529  0.93903730  0.96689124  1
  Te  Te126  1  0.25053282  0.23718334  0.06469596  1
  Te  Te127  1  0.24410987  0.26178952  0.41128908  1
  Te  Te128  1  0.26148504  0.25540085  0.74757714  1
  Te  Te129  1  0.26966394  0.60314186  0.06428952  1
  Te  Te130  1  0.24298300  0.58222409  0.41941856  1
  Te  Te131  1  0.25991311  0.57617310  0.78348820  1
  Te  Te132  1  0.28359651  0.89594837  0.09763546  1
  Te  Te133  1  0.24327736  0.89151957  0.38240295  1
  Te  Te134  1  0.25313648  0.89719808  0.75700171  1
  Te  Te135  1  0.58151715  0.24716081  0.06609962  1
  Te  Te136  1  0.55902055  0.23552280  0.42390795  1
  Te  Te137  1  0.59529163  0.23717933  0.74420358  1
  Te  Te138  1  0.56512711  0.59890399  0.08012553  1
  Te  Te139  1  0.61258509  0.61459442  0.40158833  1
  Te  Te140  1  0.58332152  0.58900488  0.76221710  1
  Te  Te141  1  0.55362148  0.93884919  0.04228593  1
  Te  Te142  1  0.58741148  0.87525348  0.40856449  1
  Te  Te143  1  0.58535169  0.90570098  0.76471559  1
  Te  Te144  1  0.89159515  0.24174736  0.06581791  1
  Te  Te145  1  0.92545092  0.24801145  0.40922794  1
  Te  Te146  1  0.91469665  0.24422937  0.77440020  1
  Te  Te147  1  0.92041587  0.59112726  0.08821218  1
  Te  Te148  1  0.90688948  0.61116743  0.39444384  1
  Te  Te149  1  0.88625737  0.56964977  0.73015539  1
  Te  Te150  1  0.93364189  0.92963255  0.05387423  1
  Te  Te151  1  0.86538862  0.87735041  0.36102046  1
  Te  Te152  1  0.90435667  0.92304424  0.77187696  1
  Te  Te153  1  0.25692686  0.06784469  0.25250179  1
  Te  Te154  1  0.24277609  0.08489629  0.58478847  1
  Te  Te155  1  0.27339136  0.06790859  0.95899194  1
  Te  Te156  1  0.26598522  0.40849420  0.26064332  1
  Te  Te157  1  0.25894221  0.41862079  0.60018684  1
  Te  Te158  1  0.26877024  0.40645110  0.92576051  1
  Te  Te159  1  0.25573077  0.77920174  0.25261858  1
  Te  Te160  1  0.25389547  0.74722910  0.58494030  1
  Te  Te161  1  0.27054033  0.78341873  0.95755819  1
  Te  Te162  1  0.59420510  0.04979480  0.25436640  1
  Te  Te163  1  0.59019717  0.07680626  0.58262632  1
  Te  Te164  1  0.59875317  0.07333141  0.92344493  1
  Te  Te165  1  0.57971035  0.43022177  0.24841324  1
  Te  Te166  1  0.57399302  0.39740111  0.57748476  1
  Te  Te167  1  0.60429596  0.40853200  0.91572168  1
  Te  Te168  1  0.56832605  0.74896763  0.22588226  1
  Te  Te169  1  0.58915777  0.76406102  0.59320057  1
  Te  Te170  1  0.58223581  0.76579663  0.93481635  1
  Te  Te171  1  0.92195036  0.07659720  0.24923194  1
  Te  Te172  1  0.89766062  0.07362227  0.59046074  1
  Te  Te173  1  0.89082054  0.04241807  0.95856295  1
  Te  Te174  1  0.89195689  0.40001618  0.21873585  1
  Te  Te175  1  0.91967129  0.41918985  0.58678565  1
  Te  Te176  1  0.90209799  0.41594697  0.90676424  1
  Te  Te177  1  0.93821568  0.77276550  0.26863885  1
  Te  Te178  1  0.90715501  0.74646721  0.56527688  1
  Te  Te179  1  0.90477988  0.76292762  0.93580733  1
