# generated using pymatgen
data_In2Te3
_symmetry_space_group_name_H-M   'P 1'
_cell_length_a   18.99130610
_cell_length_b   19.00081066
_cell_length_c   19.01298537
_cell_angle_alpha   89.91381954
_cell_angle_beta   90.00889505
_cell_angle_gamma   90.05772979
_symmetry_Int_Tables_number   1
_chemical_formula_structural   In2Te3
_chemical_formula_sum   'In72 Te108'
_cell_volume   6860.82846465
_cell_formula_units_Z   36
loop_
 _symmetry_equiv_pos_site_id
 _symmetry_equiv_pos_as_xyz
  1  'x, y, z'
loop_
 _atom_site_type_symbol
 _atom_site_label
 _atom_site_symmetry_multiplicity
 _atom_site_fract_x
 _atom_site_fract_y
 _atom_site_fract_z
 _atom_site_occupancy
  In  In0  1  0.50432587  0.01416221  0.85294721  1
  In  In1  1  0.32892531  0.67853938  0.33931394  1
  In  In2  1  0.14385358  0.50062171  0.66420162  1
  In  In3  1  0.50700193  0.84344094  0.00368295  1
  In  In4  1  0.80875730  0.31229342  0.48496379  1
  In  In5  1  0.12899165  0.65224054  0.17950129  1
  In  In6  1  0.82975505  0.65933033  0.83848013  1
  In  In7  1  0.47781653  0.03663727  0.16021168  1
  In  In8  1  0.17197562  0.82359750  0.00528992  1
  In  In9  1  0.15781298  0.30726619  0.50059784  1
  In  In10  1  0.51983038  0.68886134  0.19665425  1
  In  In11  1  0.13945328  0.49984360  0.02777202  1
  In  In12  1  0.65665001  0.51264021  0.84344114  1
  In  In13  1  0.20115199  0.86543279  0.34490364  1
  In  In14  1  0.17106975  0.31137629  0.86294901  1
  In  In15  1  0.00602951  0.33607300  0.65345668  1
  In  In16  1  0.32152650  0.51550901  0.15852634  1
  In  In17  1  0.48284894  0.50235148  0.01459410  1
  In  In18  1  0.00024616  0.66919705  -0.00849385  1
  In  In19  1  0.66241945  0.35528992  0.66931090  1
  In  In20  1  0.82123048  0.82274144  0.32980562  1
  In  In21  1  0.35811946  0.14987997  0.48939671  1
  In  In22  1  0.66083006  0.83694853  0.84206133  1
  In  In23  1  0.50245440  0.29598049  0.13048762  1
  In  In24  1  0.85676866  0.15606909  0.64824558  1
  In  In25  1  0.68257845  0.66574951  0.66811990  1
  In  In26  1  0.34947551  0.85066490  0.17801507  1
  In  In27  1  0.68178144  0.84889772  0.48564064  1
  In  In28  1  0.80830237  0.32792976  0.84101645  1
  In  In29  1  0.20249427  0.83152854  0.66127981  1
  In  In30  1  0.80388898  0.66531626  0.17301355  1
  In  In31  1  0.16518599  0.67122107  0.84609745  1
  In  In32  1  -0.01525247  0.18519460  0.17636114  1
  In  In33  1  0.49390117  0.84515199  0.64519898  1
  In  In34  1  0.66033328  0.14805347  0.83659556  1
  In  In35  1  0.85915960  -0.01566268  0.84174441  1
  In  In36  1  0.01525390  0.15836047  0.84114709  1
  In  In37  1  0.81426652  0.82719587  0.01525232  1
  In  In38  1  0.65375231  0.16127851  0.47549906  1
  In  In39  1  0.15872007  0.66721162  0.50457242  1
  In  In40  1  0.67449594  0.49501730  0.16219300  1
  In  In41  1  0.34693948  0.35614173  0.30438889  1
  In  In42  1  0.52922796  0.50438287  0.64257280  1
  In  In43  1  0.15301483  0.33025307  0.16550264  1
  In  In44  1  0.53096684  0.16141452  0.65694124  1
  In  In45  1  0.33369942  0.47190329  0.84761154  1
  In  In46  1  0.01767648  0.00447952  0.66131376  1
  In  In47  1  0.16857919  0.19079041  0.68461598  1
  In  In48  1  0.64857933  0.00314332  0.32046126  1
  In  In49  1  -0.04603924  0.48196273  0.46478086  1
  In  In50  1  0.32593467  0.49774889  0.47695524  1
  In  In51  1  0.82421387  0.48764491  -0.00950301  1
  In  In52  1  0.83699140  0.65640975  0.47481714  1
  In  In53  1  -0.02277603  0.33608069  0.32019441  1
  In  In54  1  0.34069934  0.68002380  0.68141805  1
  In  In55  1  -0.01449241  -0.01474268  0.00825554  1
  In  In56  1  0.69402758  0.03269787  0.05134428  1
  In  In57  1  0.49488191  0.30897256  0.88775827  1
  In  In58  1  -0.03452338  0.66218466  0.66373396  1
  In  In59  1  0.64839003  0.33345116  0.33084020  1
  In  In60  1  0.18022286  0.00582619  0.17542848  1
  In  In61  1  0.35770617  0.33295573  0.66221638  1
  In  In62  1  0.66919753  0.01705820  0.64188331  1
  In  In63  1  0.34640981  0.00103770  0.67948779  1
  In  In64  1  0.01928399  0.01205302  0.34751345  1
  In  In65  1  0.82429342  0.16400725  0.32257487  1
  In  In66  1  0.49436930  0.66761985  0.47536547  1
  In  In67  1  0.04302009  0.83076545  0.83166911  1
  In  In68  1  0.01144467  0.82947545  0.49936376  1
  In  In69  1  0.19429427  0.14208967  0.35043747  1
  In  In70  1  0.67066202  0.51083831  0.47694104  1
  In  In71  1  0.18346328  0.15472016  0.00759721  1
  Te  Te72  1  0.07313496  0.08213644  0.09688880  1
  Te  Te73  1  0.11398373  0.06585234  0.44503475  1
  Te  Te74  1  0.11010482  0.07368700  0.76211428  1
  Te  Te75  1  0.04574749  0.40672930  0.09584307  1
  Te  Te76  1  0.07660582  0.40500745  0.41959075  1
  Te  Te77  1  0.09017316  0.39814765  0.76187028  1
  Te  Te78  1  0.06467871  0.76208552  0.09108550  1
  Te  Te79  1  0.09979633  0.75903006  0.39996886  1
  Te  Te80  1  0.08965161  0.73226744  0.71887245  1
  Te  Te81  1  0.38808495  0.11196594  0.06410053  1
  Te  Te82  1  0.38879253  0.04776059  0.38776544  1
  Te  Te83  1  0.43187276  0.10462059  0.75342535  1
  Te  Te84  1  0.39701769  0.40458641  0.09016951  1
  Te  Te85  1  0.42914769  0.42597153  0.40515331  1
  Te  Te86  1  0.44096528  0.42698048  0.74635958  1
  Te  Te87  1  0.42335538  0.74795741  0.09615613  1
  Te  Te88  1  0.43430958  0.76856270  0.38834040  1
  Te  Te89  1  0.43671325  0.76280740  0.75182236  1
  Te  Te90  1  0.77823848  0.13207809  0.12021001  1
  Te  Te91  1  0.75411538  0.06862305  0.41641259  1
  Te  Te92  1  0.76795208  0.07505038  0.75596658  1
  Te  Te93  1  0.74812682  0.39820943  0.07914205  1
  Te  Te94  1  0.76130562  0.42160884  0.39301191  1
  Te  Te95  1  0.75388788  0.44017496  0.75303110  1
  Te  Te96  1  0.70971653  0.75620158  0.09437495  1
  Te  Te97  1  0.72586713  0.72949239  0.40414623  1
  Te  Te98  1  0.76018801  0.76363906  0.75285436  1
  Te  Te99  1  0.09177452  0.23566268  0.27704700  1
  Te  Te100  1  0.06306019  0.21837387  0.57810304  1
  Te  Te101  1  0.06923226  0.24529571  0.95148276  1
  Te  Te102  1  0.03450040  0.56240866  0.24598841  1
  Te  Te103  1  0.05394897  0.57189877  0.56450191  1
  Te  Te104  1  0.07364730  0.56852912  0.90658180  1
  Te  Te105  1  0.08947976  0.91458431  0.25399495  1
  Te  Te106  1  0.10900957  0.91573685  0.57679261  1
  Te  Te107  1  0.10012967  0.93431852  0.92374686  1
  Te  Te108  1  0.43128392  0.24706478  0.25178397  1
  Te  Te109  1  0.44490534  0.25183405  0.57057782  1
  Te  Te110  1  0.39668003  0.21655400  0.94822981  1
  Te  Te111  1  0.41406421  0.58903502  0.25112851  1
  Te  Te112  1  0.40757109  0.57487625  0.58206863  1
  Te  Te113  1  0.40250217  0.57796193  0.91814975  1
  Te  Te114  1  0.45374690  0.92158139  0.25220190  1
  Te  Te115  1  0.39303950  0.91834537  0.56434829  1
  Te  Te116  1  0.41494450  0.91937636  0.91701010  1
  Te  Te117  1  0.75274991  0.26816179  0.24431085  1
  Te  Te118  1  0.73496294  0.23547548  0.60020046  1
  Te  Te119  1  0.72948697  0.24007395  0.93126195  1
  Te  Te120  1  0.74362324  0.57018830  0.26766002  1
  Te  Te121  1  0.76206646  0.57291311  0.58036395  1
  Te  Te122  1  0.73211429  0.60390248  0.93641284  1
  Te  Te123  1  0.73214220  0.90719664  0.24119697  1
  Te  Te124  1  0.76055396  0.91738914  0.58851594  1
  Te  Te125  1  0.73897810  0.94145166  0.93154526  1
  Te  Te126  1  0.25007942  0.23476698  0.11085338  1
  Te  Te127  1  0.27534487  0.26339023  0.41648525  1
  Te  Te128  1  0.27687454  0.25765888  0.76724808  1
  Te  Te129  1  0.23282600  0.60783735  0.07744499  1
  Te  Te130  1  0.22547429  0.57915917  0.40088044  1
  Te  Te131  1  0.24712119  0.57247823  0.74898406  1
  Te  Te132  1  0.26125667  0.92325195  0.07866614  1
  Te  Te133  1  0.28791876  0.94101203  0.43604801  1
  Te  Te134  1  0.25964846  0.91700865  0.76357375  1
  Te  Te135  1  0.60030299  0.23211811  0.03831109  1
  Te  Te136  1  0.56143056  0.22019624  0.37642583  1
  Te  Te137  1  0.58228638  0.26701368  0.76681047  1
  Te  Te138  1  0.57607690  0.58948751  0.09458452  1
  Te  Te139  1  0.56361947  0.56750496  0.39437342  1
  Te  Te140  1  0.57430158  0.60050954  0.75191137  1
  Te  Te141  1  0.58006979  0.94261615  0.09197256  1
  Te  Te142  1  0.57487081  0.92296685  0.42100487  1
  Te  Te143  1  0.58710415  0.93262650  0.74370368  1
  Te  Te144  1  0.87044153  0.25716797  0.11730496  1
  Te  Te145  1  0.91913374  0.23535989  0.41915246  1
  Te  Te146  1  0.92152948  0.24538115  0.75359742  1
  Te  Te147  1  0.89779756  0.59519243  0.07031718  1
  Te  Te148  1  0.93692046  0.60137124  0.37928715  1
  Te  Te149  1  0.91927847  0.56976081  0.76611571  1
  Te  Te150  1  0.89776357  0.91261227  0.09966156  1
  Te  Te151  1  0.92294109  0.90984120  0.40729771  1
  Te  Te152  1  0.94028005  0.90245205  0.74480376  1
  Te  Te153  1  0.28510450  0.07404235  0.25620642  1
  Te  Te154  1  0.26646555  0.10786044  0.60183017  1
  Te  Te155  1  0.29781585  0.09587459  0.93253566  1
  Te  Te156  1  0.22933806  0.43397417  0.24710228  1
  Te  Te157  1  0.23987078  0.40789308  0.58864159  1
  Te  Te158  1  0.24065134  0.41171424  0.95099255  1
  Te  Te159  1  0.24198022  0.75137003  0.23754739  1
  Te  Te160  1  0.27532074  0.74531377  0.55997477  1
  Te  Te161  1  0.26247244  0.75433148  0.91311536  1
  Te  Te162  1  0.58175174  0.10854090  0.24052166  1
  Te  Te163  1  0.56020742  0.06174634  0.54707001  1
  Te  Te164  1  0.57558026  0.10072363  0.95765673  1
  Te  Te165  1  0.56925548  0.40165899  0.22202672  1
  Te  Te166  1  0.58822341  0.40148203  0.54767816  1
  Te  Te167  1  0.58542579  0.41895779  0.93863905  1
  Te  Te168  1  0.62731561  0.78878692  0.22191736  1
  Te  Te169  1  0.58600659  0.74195215  0.57825384  1
  Te  Te170  1  0.58011991  0.74615812  0.92099592  1
  Te  Te171  1  0.91790130  0.06930034  0.24959673  1
  Te  Te172  1  0.91016786  0.04671678  0.56959965  1
  Te  Te173  1  0.91069656  0.09439810  0.93160591  1
  Te  Te174  1  0.94180711  0.43955297  0.22255176  1
  Te  Te175  1  0.89314598  0.40183502  0.57925368  1
  Te  Te176  1  0.91183219  0.39559731  0.91734768  1
  Te  Te177  1  0.90434108  0.75764973  0.22853238  1
  Te  Te178  1  0.89706608  0.75818392  0.57059841  1
  Te  Te179  1  0.92183716  0.77272925  0.91060777  1
