# generated using pymatgen
data_In2Te3
_symmetry_space_group_name_H-M   'P 1'
_cell_length_a   18.76338121
_cell_length_b   18.76765412
_cell_length_c   18.77236346
_cell_angle_alpha   90.04145525
_cell_angle_beta   90.02570353
_cell_angle_gamma   90.03901591
_symmetry_Int_Tables_number   1
_chemical_formula_structural   In2Te3
_chemical_formula_sum   'In72 Te108'
_cell_volume   6610.58340796
_cell_formula_units_Z   36
loop_
 _symmetry_equiv_pos_site_id
 _symmetry_equiv_pos_as_xyz
  1  'x, y, z'
loop_
 _atom_site_type_symbol
 _atom_site_label
 _atom_site_symmetry_multiplicity
 _atom_site_fract_x
 _atom_site_fract_y
 _atom_site_fract_z
 _atom_site_occupancy
  In  In0  1  0.62584447  0.33249389  0.32409906  1
  In  In1  1  -0.01270997  0.15051532  0.82678679  1
  In  In2  1  0.18170045  -0.02146370  0.48002992  1
  In  In3  1  0.81002380  0.30757548  0.50503996  1
  In  In4  1  0.02020641  0.51263955  0.52618644  1
  In  In5  1  0.49767763  0.15096953  0.35514341  1
  In  In6  1  0.34944735  0.82490945  0.18287296  1
  In  In7  1  0.84577798  0.33700342  0.82663837  1
  In  In8  1  0.00597924  0.31210648  0.33642250  1
  In  In9  1  0.01035916  0.50642411  0.82332324  1
  In  In10  1  -0.02992941  0.67918406  -0.02336349  1
  In  In11  1  -0.00306148  0.33753526  -0.00010901  1
  In  In12  1  0.81117978  0.81961866  0.68926846  1
  In  In13  1  0.16486851  0.16075635  0.67185762  1
  In  In14  1  0.32600717  0.68003535  0.66513595  1
  In  In15  1  0.49072654  -0.00350931  0.80998897  1
  In  In16  1  0.51357965  0.65718859  0.85471598  1
  In  In17  1  0.52786032  0.84364559  0.66191520  1
  In  In18  1  0.33397279  0.51395323  0.49035725  1
  In  In19  1  0.52516028  0.81371328  0.01007067  1
  In  In20  1  0.83788140  0.33202827  0.14827654  1
  In  In21  1  0.51539613  0.34457416  0.18394884  1
  In  In22  1  0.49386058  0.32175661  0.83315251  1
  In  In23  1  0.68902958  0.53027558  0.84840604  1
  In  In24  1  0.35380937  0.30486914  0.65062192  1
  In  In25  1  0.66711469  0.16705726  0.81570228  1
  In  In26  1  0.49084981  0.52216466  0.01635795  1
  In  In27  1  0.48291126  0.71409267  0.49545186  1
  In  In28  1  0.66464264  0.81562238  0.15318360  1
  In  In29  1  0.01524516  0.85422503  0.20495048  1
  In  In30  1  -0.00213009  0.15788782  0.17565963  1
  In  In31  1  0.49901887  -0.01967655  0.48603482  1
  In  In32  1  0.14370188  0.51759145  0.67184625  1
  In  In33  1  0.01538573  0.34245192  0.67809360  1
  In  In34  1  -0.00418663  0.64106461  0.65126044  1
  In  In35  1  0.65947116  0.68000257  0.32996268  1
  In  In36  1  0.82868774  0.49917572  0.68195285  1
  In  In37  1  0.34867652  0.52618007  0.18752934  1
  In  In38  1  0.34282978  0.35085062  0.33996259  1
  In  In39  1  0.16017023  0.82989325  -0.00005713  1
  In  In40  1  -0.00188198  0.69689279  0.33400527  1
  In  In41  1  0.30939412  0.35305028  -0.02815220  1
  In  In42  1  0.33566657  0.01390375  0.66514596  1
  In  In43  1  0.51077718  0.17143471  -0.01237121  1
  In  In44  1  0.65767136  0.51075882  0.51490695  1
  In  In45  1  0.16876983  0.67359147  0.85113466  1
  In  In46  1  0.16769034  0.15509740  -0.00327305  1
  In  In47  1  -0.01540263  0.86577159  0.47606563  1
  In  In48  1  0.70692877  0.13260716  0.15208377  1
  In  In49  1  0.31998098  0.00153212  -0.00248162  1
  In  In50  1  0.80878815  0.13949816  0.32555634  1
  In  In51  1  0.66394981  0.14530717  0.49786977  1
  In  In52  1  -0.00602872  0.85138994  0.82883020  1
  In  In53  1  0.18980631  0.51110237  0.33173434  1
  In  In54  1  0.66893720  0.34026653  -0.01003052  1
  In  In55  1  0.67938175  -0.00530707  0.64900380  1
  In  In56  1  0.16404170  0.16214951  0.33456867  1
  In  In57  1  0.49145360  -0.03114923  0.17510862  1
  In  In58  1  0.32478149  0.83135861  0.83484399  1
  In  In59  1  0.18570245  0.32332916  0.49851347  1
  In  In60  1  0.65586809  0.50862049  0.15824934  1
  In  In61  1  -0.00708239  0.00183349  -0.00182554  1
  In  In62  1  0.31076923  0.14426668  0.18040037  1
  In  In63  1  -0.02583646  0.12050801  0.53500493  1
  In  In64  1  0.50521921  0.48658889  0.68507016  1
  In  In65  1  0.00593441  0.50812937  0.13711212  1
  In  In66  1  0.81491727  0.51067110  0.32219971  1
  In  In67  1  0.66270072  -0.00408240  0.34290577  1
  In  In68  1  0.82780757  0.68214569  0.48451016  1
  In  In69  1  0.83310686  -0.00895728  0.14406061  1
  In  In70  1  0.16994567  0.83502067  0.65759948  1
  In  In71  1  0.18113345  0.66435575  0.15933413  1
  Te  Te72  1  0.09128803  0.06667423  0.09571352  1
  Te  Te73  1  0.07617235  0.07812538  0.42547128  1
  Te  Te74  1  0.07430813  0.06710757  0.74006600  1
  Te  Te75  1  0.09666599  0.40569095  0.08476253  1
  Te  Te76  1  0.08812064  0.41674191  0.41568953  1
  Te  Te77  1  0.11744872  0.40050803  0.77895054  1
  Te  Te78  1  0.07007365  0.74175925  0.08586822  1
  Te  Te79  1  0.08833558  0.77384695  0.42068817  1
  Te  Te80  1  0.07705306  0.74346167  0.74988627  1
  Te  Te81  1  0.42403532  0.08315496  0.08703026  1
  Te  Te82  1  0.39639548  0.05959336  0.41035502  1
  Te  Te83  1  0.41605818  0.10718739  0.74761664  1
  Te  Te84  1  0.42088340  0.39891645  0.07633043  1
  Te  Te85  1  0.43275095  0.41743415  0.43620829  1
  Te  Te86  1  0.39526977  0.41295691  0.75884399  1
  Te  Te87  1  0.42548002  0.73729205  0.08869644  1
  Te  Te88  1  0.40433140  0.79234389  0.39540484  1
  Te  Te89  1  0.43055893  0.75693765  0.75289010  1
  Te  Te90  1  0.76901447  0.06918553  0.03140143  1
  Te  Te91  1  0.77439806  0.04583295  0.44695363  1
  Te  Te92  1  0.76418572  0.07391291  0.74576524  1
  Te  Te93  1  0.75874280  0.43552842  0.06908913  1
  Te  Te94  1  0.73863433  0.41360392  0.41421173  1
  Te  Te95  1  0.73153760  0.40942484  0.75609101  1
  Te  Te96  1  0.74923417  0.74680133  0.04909025  1
  Te  Te97  1  0.75083415  0.77571008  0.40069828  1
  Te  Te98  1  0.74870902  0.74558055  0.80282649  1
  Te  Te99  1  0.10145527  0.25713450  0.23094615  1
  Te  Te100  1  0.06922957  0.24971595  0.56627680  1
  Te  Te101  1  0.07755606  0.24326349  0.90996538  1
  Te  Te102  1  0.07322208  0.58122234  0.25740344  1
  Te  Te103  1  0.12045306  0.62079388  0.55946668  1
  Te  Te104  1  0.08423447  0.57989365  0.93625347  1
  Te  Te105  1  0.10916534  0.94414200  0.27035899  1
  Te  Te106  1  0.07829940  0.93051193  0.58361222  1
  Te  Te107  1  0.09697578  0.93226725  0.90742227  1
  Te  Te108  1  0.41873930  0.24090151  0.24796844  1
  Te  Te109  1  0.43633313  0.25244292  0.54334090  1
  Te  Te110  1  0.39582863  0.23568770  0.91302912  1
  Te  Te111  1  0.45802303  0.59456470  0.25595673  1
  Te  Te112  1  0.42767246  0.59196977  0.59103607  1
  Te  Te113  1  0.40389017  0.57485082  0.90834019  1
  Te  Te114  1  0.40900806  0.92099102  0.28845929  1
  Te  Te115  1  0.40969494  0.90542771  0.58859617  1
  Te  Te116  1  0.42472562  0.90913387  0.92682759  1
  Te  Te117  1  0.74502196  0.26246511  0.25173219  1
  Te  Te118  1  0.73221311  0.22943979  0.60079631  1
  Te  Te119  1  0.75953619  0.24558429  0.91412781  1
  Te  Te120  1  0.75376828  0.60951823  0.22831415  1
  Te  Te121  1  0.75523874  0.59945648  0.59324156  1
  Te  Te122  1  0.74194502  0.62195597  0.95010726  1
  Te  Te123  1  0.74367634  0.91415421  0.24049453  1
  Te  Te124  1  0.73257225  0.87553854  0.57459471  1
  Te  Te125  1  0.73797921  0.89202879  1.01044734  1
  Te  Te126  1  0.26076987  0.24527830  0.07737459  1
  Te  Te127  1  0.27408757  0.23399927  0.41478191  1
  Te  Te128  1  0.25159224  0.25543550  0.74468911  1
  Te  Te129  1  0.26254435  0.57279131  0.07786996  1
  Te  Te130  1  0.27284443  0.61325417  0.39838930  1
  Te  Te131  1  0.25288844  0.58556962  0.75879895  1
  Te  Te132  1  0.25016080  0.90855868  0.09498244  1
  Te  Te133  1  0.27336416  0.87498844  0.42386845  1
  Te  Te134  1  0.24212975  0.92938369  0.75479723  1
  Te  Te135  1  0.59966799  0.24624973  0.09028164  1
  Te  Te136  1  0.56216203  0.25867178  0.44608689  1
  Te  Te137  1  0.57268433  0.24610885  0.73405429  1
  Te  Te138  1  0.58500064  0.61576853  0.08185258  1
  Te  Te139  1  0.57225130  0.60312918  0.43033065  1
  Te  Te140  1  0.59786924  0.59472940  0.74250242  1
  Te  Te141  1  0.59927945  0.94045205  0.07121816  1
  Te  Te142  1  0.59179265  0.88822254  0.41510432  1
  Te  Te143  1  0.61262912  0.91549932  0.76576237  1
  Te  Te144  1  0.91223018  0.22637002  0.06895748  1
  Te  Te145  1  0.90832207  0.22617306  0.41703723  1
  Te  Te146  1  0.91143356  0.24234745  0.72781729  1
  Te  Te147  1  0.90327871  0.59658754  0.08086463  1
  Te  Te148  1  0.91755473  0.57317543  0.41988457  1
  Te  Te149  1  0.90362442  0.60099718  0.76720017  1
  Te  Te150  1  0.92845375  0.89052649  0.07932513  1
  Te  Te151  1  0.89643736  0.95565847  0.39985570  1
  Te  Te152  1  0.91089441  0.92843486  0.72745444  1
  Te  Te153  1  0.23038459  0.04463045  0.26096444  1
  Te  Te154  1  0.24872649  0.08924235  0.56567013  1
  Te  Te155  1  0.24813769  0.08011871  0.89679046  1
  Te  Te156  1  0.25188593  0.41160535  0.23484453  1
  Te  Te157  1  0.24565891  0.42982285  0.58922468  1
  Te  Te158  1  0.20812872  0.43525276  0.90510626  1
  Te  Te159  1  0.24830532  0.74622421  0.26149447  1
  Te  Te160  1  0.26701745  0.77173331  0.56277234  1
  Te  Te161  1  0.27121829  0.73944730  0.94398285  1
  Te  Te162  1  0.58725622  0.08993318  0.24481389  1
  Te  Te163  1  0.56328222  0.07399317  0.58882559  1
  Te  Te164  1  0.58880175  0.07040911  0.90688626  1
  Te  Te165  1  0.55728267  0.46695575  0.27201184  1
  Te  Te166  1  0.59391607  0.40680256  0.59766968  1
  Te  Te167  1  0.57530204  0.43104274  0.91166205  1
  Te  Te168  1  0.55993756  0.73958324  0.23339358  1
  Te  Te169  1  0.60394242  0.74917033  0.57701615  1
  Te  Te170  1  0.60862597  0.76886838  0.89228019  1
  Te  Te171  1  0.92230536  0.05679824  0.26226059  1
  Te  Te172  1  0.88329622  0.04913447  0.62800070  1
  Te  Te173  1  0.89509661  0.05873909  0.90177773  1
  Te  Te174  1  0.91824432  0.41000589  0.25428421  1
  Te  Te175  1  0.90846035  0.41330171  0.58195987  1
  Te  Te176  1  0.91144070  0.43701781  0.91989216  1
  Te  Te177  1  0.90237985  0.76861363  0.24908273  1
  Te  Te178  1  0.92312933  0.75674698  0.58246983  1
  Te  Te179  1  0.88298360  0.77367502  0.89497776  1
