# generated using pymatgen
data_In2Te3
_symmetry_space_group_name_H-M   'P 1'
_cell_length_a   19.05392877
_cell_length_b   19.02036257
_cell_length_c   19.02043827
_cell_angle_alpha   90.04034024
_cell_angle_beta   89.95555915
_cell_angle_gamma   90.11232693
_symmetry_Int_Tables_number   1
_chemical_formula_structural   In2Te3
_chemical_formula_sum   'In72 Te108'
_cell_volume   6893.23010072
_cell_formula_units_Z   36
loop_
 _symmetry_equiv_pos_site_id
 _symmetry_equiv_pos_as_xyz
  1  'x, y, z'
loop_
 _atom_site_type_symbol
 _atom_site_label
 _atom_site_symmetry_multiplicity
 _atom_site_fract_x
 _atom_site_fract_y
 _atom_site_fract_z
 _atom_site_occupancy
  In  In0  1  0.33627496  0.34850187  -0.01537973  1
  In  In1  1  0.85802655  0.51160250  0.00338482  1
  In  In2  1  0.81200672  0.51579776  0.32242720  1
  In  In3  1  0.85326107  0.47010649  0.69342556  1
  In  In4  1  0.17839114  0.16508098  0.67961823  1
  In  In5  1  0.67991838  0.49889790  0.16200501  1
  In  In6  1  0.00334544  0.50406647  0.83595856  1
  In  In7  1  0.64389551  0.70450705  0.33776346  1
  In  In8  1  0.66475632  0.47198479  0.51228089  1
  In  In9  1  0.49783221  0.69789293  0.14588675  1
  In  In10  1  -0.01635143  0.69250796  0.01350772  1
  In  In11  1  0.84525030  0.66699430  0.85450355  1
  In  In12  1  -0.00036190  0.50773398  0.50313982  1
  In  In13  1  0.64938691  -0.00957943  0.32034996  1
  In  In14  1  0.84579274  0.32415468  0.17664590  1
  In  In15  1  0.52804573  0.00852621  0.83292678  1
  In  In16  1  0.33495199  0.15780413  0.50349281  1
  In  In17  1  0.17835164  0.52964514  0.35737978  1
  In  In18  1  0.47153661  0.65623064  0.80470569  1
  In  In19  1  -0.01897434  0.86090529  0.18169952  1
  In  In20  1  0.16714331  0.02778878  0.17377893  1
  In  In21  1  0.33392993  0.31516877  0.65404485  1
  In  In22  1  0.66438818  0.64298389  0.68053476  1
  In  In23  1  0.66113057  0.14489422  0.50660827  1
  In  In24  1  0.80836909  0.00012241  0.14529923  1
  In  In25  1  0.51483881  0.30169795  0.83254957  1
  In  In26  1  0.16635283  0.16390733  0.00179516  1
  In  In27  1  0.51593249  0.30704030  0.16310174  1
  In  In28  1  0.69205206  0.30385833  0.66007860  1
  In  In29  1  0.32381917  0.50277148  0.49119649  1
  In  In30  1  -0.01583391  0.84952337  0.51031879  1
  In  In31  1  0.67722999  0.67628783  0.00680358  1
  In  In32  1  0.16546823  -0.01459628  0.51024289  1
  In  In33  1  0.01124537  0.50621464  0.18454197  1
  In  In34  1  0.66987561  0.86643988  0.51497260  1
  In  In35  1  0.34799479  0.14738237  0.17138029  1
  In  In36  1  0.19661110  0.81572753  -0.02189111  1
  In  In37  1  0.49108949  0.81355364  0.66381168  1
  In  In38  1  -0.02685486  0.02159263  0.67714475  1
  In  In39  1  -0.04134395  0.10656615  0.48822936  1
  In  In40  1  0.67267650  0.30870438  0.33812727  1
  In  In41  1  0.34978573  0.16359511  0.82415262  1
  In  In42  1  -0.03472772  0.18018818  0.84720673  1
  In  In43  1  0.67057472  0.22560885  -0.07076393  1
  In  In44  1  0.17104036  0.82882402  0.32550484  1
  In  In45  1  0.50234779  0.47826238  0.65950997  1
  In  In46  1  0.49092689  0.68508670  0.47990015  1
  In  In47  1  0.65137205  0.83923183  0.85714618  1
  In  In48  1  0.18051729  0.36435102  0.15941353  1
  In  In49  1  0.82516286  0.83341639  0.66525772  1
  In  In50  1  0.33967133  0.83905588  0.15247363  1
  In  In51  1  0.82516545  0.72802263  0.15215772  1
  In  In52  1  0.83909153  0.16930677  0.32947509  1
  In  In53  1  0.35699675  0.81956596  0.49211962  1
  In  In54  1  0.49175074  0.14380827  0.33169884  1
  In  In55  1  0.33264059  0.52735339  0.16529842  1
  In  In56  1  0.15706367  0.19399624  0.34387224  1
  In  In57  1  0.00073265  0.16399954  0.16240314  1
  In  In58  1  0.31773682  0.50088993  0.82762767  1
  In  In59  1  0.16313617  0.34738061  0.52638756  1
  In  In60  1  0.80202374  0.01419629  0.80389475  1
  In  In61  1  0.00643543  0.32739215  0.67840744  1
  In  In62  1  0.50573054  0.47560093  -0.02343468  1
  In  In63  1  0.34422108  -0.02438362  -0.03314583  1
  In  In64  1  0.50870834  -0.02064770  0.14228967  1
  In  In65  1  0.16729120  0.66758698  0.15694738  1
  In  In66  1  0.13694261  0.68126982  0.52568977  1
  In  In67  1  0.48824206  0.49526018  0.34569710  1
  In  In68  1  0.80714377  0.66891168  0.48845249  1
  In  In69  1  -0.01576162  0.32318617  0.01626599  1
  In  In70  1  0.17219732  -0.03732844  0.80868760  1
  In  In71  1  0.32862539  0.67491350  0.66773894  1
  Te  Te72  1  0.06803531  0.06895792  0.06496880  1
  Te  Te73  1  0.09141739  0.07724345  0.41614011  1
  Te  Te74  1  0.07993592  0.08782422  0.76607485  1
  Te  Te75  1  0.07753203  0.43260045  0.07208043  1
  Te  Te76  1  0.09076313  0.42141911  0.41575465  1
  Te  Te77  1  0.08987105  0.42290463  0.74920317  1
  Te  Te78  1  0.08492842  0.77606190  0.09260759  1
  Te  Te79  1  0.06879878  0.76397405  0.41823708  1
  Te  Te80  1  0.13128657  0.75541670  0.65555610  1
  Te  Te81  1  0.41599808  0.07498588  0.06144280  1
  Te  Te82  1  0.42081036  0.06390764  0.43035356  1
  Te  Te83  1  0.43533490  0.07950093  0.74195887  1
  Te  Te84  1  0.42399297  0.41563347  0.09563120  1
  Te  Te85  1  0.42002716  0.40749147  0.43860410  1
  Te  Te86  1  0.42121085  0.40214460  0.76499469  1
  Te  Te87  1  0.39811840  0.74882354  0.05362537  1
  Te  Te88  1  0.43754126  0.77421401  0.37566683  1
  Te  Te89  1  0.40727391  0.79780347  0.79562374  1
  Te  Te90  1  0.70154347  0.03027207  0.04171177  1
  Te  Te91  1  0.74495215  0.07501385  0.40207426  1
  Te  Te92  1  0.70409234  0.10071310  0.72895164  1
  Te  Te93  1  0.76855550  0.41139888  0.07971738  1
  Te  Te94  1  0.75990125  0.40604630  0.41458095  1
  Te  Te95  1  0.73502475  0.40993359  0.75151070  1
  Te  Te96  1  0.70781759  0.79499199  0.09164889  1
  Te  Te97  1  0.74864206  0.78461122  0.41294940  1
  Te  Te98  1  0.74379980  0.74484454  0.76001014  1
  Te  Te99  1  0.08595734  0.26849572  0.23267145  1
  Te  Te100  1  0.08380428  0.23272320  0.58430972  1
  Te  Te101  1  0.07986609  0.25565725  0.92073103  1
  Te  Te102  1  0.08386978  0.60745942  0.26892294  1
  Te  Te103  1  0.08964841  0.56515847  0.60213739  1
  Te  Te104  1  0.06032963  0.60890925  0.92275972  1
  Te  Te105  1  0.08545559  0.93611848  0.26293168  1
  Te  Te106  1  0.07257438  0.92256466  0.61180871  1
  Te  Te107  1  0.09204043  0.88090180  0.89846788  1
  Te  Te108  1  0.41085292  0.25499538  0.25705764  1
  Te  Te109  1  0.42554963  0.21399278  0.60619857  1
  Te  Te110  1  0.42289510  0.23702846  0.93539899  1
  Te  Te111  1  0.43670191  0.59694277  0.24988362  1
  Te  Te112  1  0.42928450  0.59049435  0.58846239  1
  Te  Te113  1  0.41031476  0.57845533  0.92069919  1
  Te  Te114  1  0.40382754  0.94036249  0.23525309  1
  Te  Te115  1  0.44691112  0.91252494  0.56449253  1
  Te  Te116  1  0.47731964  0.91194299  0.94040472  1
  Te  Te117  1  0.74036471  0.22948490  0.23047877  1
  Te  Te118  1  0.77039332  0.23265238  0.55608154  1
  Te  Te119  1  0.81056088  0.21780570  0.87827276  1
  Te  Te120  1  0.72851317  0.62054181  0.24100906  1
  Te  Te121  1  0.75869624  0.56196102  0.59225672  1
  Te  Te122  1  0.74785196  0.57226316  0.92064082  1
  Te  Te123  1  0.74287353  0.90896605  0.24120443  1
  Te  Te124  1  0.77386848  0.94815520  0.58413783  1
  Te  Te125  1  0.74476928  0.93599342  0.92077754  1
  Te  Te126  1  0.25558997  0.24855287  0.09124669  1
  Te  Te127  1  0.25354546  0.26666648  0.43465895  1
  Te  Te128  1  0.24981434  0.26361945  0.76926032  1
  Te  Te129  1  0.24975847  0.59081150  0.06454340  1
  Te  Te130  1  0.25755152  0.62706238  0.44131320  1
  Te  Te131  1  0.24098435  0.61918613  0.77529085  1
  Te  Te132  1  0.23803882  0.93493860  0.07533209  1
  Te  Te133  1  0.25759592  0.91140404  0.41637669  1
  Te  Te134  1  0.29765081  0.90354929  0.76200668  1
  Te  Te135  1  0.61159824  0.25308729  0.06938158  1
  Te  Te136  1  0.57171444  0.23719614  0.42134612  1
  Te  Te137  1  0.59843043  0.21665433  0.74227570  1
  Te  Te138  1  0.57873461  0.57243054  0.07655815  1
  Te  Te139  1  0.59618485  0.57811337  0.42584997  1
  Te  Te140  1  0.58100366  0.55198498  0.76564426  1
  Te  Te141  1  0.58873541  0.89658784  0.04838423  1
  Te  Te142  1  0.56912881  0.92682765  0.42823347  1
  Te  Te143  1  0.59250413  0.90321572  0.73592416  1
  Te  Te144  1  0.89059592  0.22018028  0.07504961  1
  Te  Te145  1  0.93933682  0.23115172  0.41414330  1
  Te  Te146  1  0.89023212  0.25466514  0.74187828  1
  Te  Te147  1  0.90475151  0.59534452  0.12077813  1
  Te  Te148  1  0.90941609  0.59210913  0.40834549  1
  Te  Te149  1  0.92042578  0.59657800  0.74510006  1
  Te  Te150  1  0.90742694  0.91976280  0.07068541  1
  Te  Te151  1  0.90137024  0.96630063  0.47421631  1
  Te  Te152  1  0.91119801  0.91136615  0.76164180  1
  Te  Te153  1  0.25333966  0.09566515  0.27742149  1
  Te  Te154  1  0.25716620  0.06458681  0.60119811  1
  Te  Te155  1  0.24516316  0.07616067  0.90487392  1
  Te  Te156  1  0.26012769  0.43848271  0.26481864  1
  Te  Te157  1  0.25489635  0.43666880  0.60738621  1
  Te  Te158  1  0.23479866  0.43442379  0.92947554  1
  Te  Te159  1  0.26441149  0.74313301  0.24467130  1
  Te  Te160  1  0.26815730  0.80742949  0.61912895  1
  Te  Te161  1  0.26412044  0.76217157  0.85648232  1
  Te  Te162  1  0.58085287  0.08637135  0.22540640  1
  Te  Te163  1  0.62939769  0.04329019  0.60985983  1
  Te  Te164  1  0.59845865  0.09328180  0.93809806  1
  Te  Te165  1  0.59358111  0.41475820  0.25535607  1
  Te  Te166  1  0.57514169  0.37424061  0.58125463  1
  Te  Te167  1  0.60610852  0.37468968  0.92984708  1
  Te  Te168  1  0.55432444  0.78489601  0.25242393  1
  Te  Te169  1  0.60080131  0.73488882  0.57889190  1
  Te  Te170  1  0.57752934  0.71635297  0.90098391  1
  Te  Te171  1  0.91379170  0.07197130  0.24186834  1
  Te  Te172  1  0.88895551  0.13154513  0.62060997  1
  Te  Te173  1  0.89011602  0.07100270  0.91171988  1
  Te  Te174  1  0.91896606  0.42003335  0.26709839  1
  Te  Te175  1  0.91875501  0.40279260  0.57582149  1
  Te  Te176  1  0.91316621  0.40724216  0.91061052  1
  Te  Te177  1  0.90223789  0.77139669  0.26674310  1
  Te  Te178  1  0.90623191  0.73855083  0.58024415  1
  Te  Te179  1  0.88288182  0.77444936  0.94638688  1
