# generated using pymatgen
data_In2Te3
_symmetry_space_group_name_H-M   'P 1'
_cell_length_a   18.93583042
_cell_length_b   18.91851355
_cell_length_c   18.92233637
_cell_angle_alpha   90.03580102
_cell_angle_beta   90.14901616
_cell_angle_gamma   90.13567083
_symmetry_Int_Tables_number   1
_chemical_formula_structural   In2Te3
_chemical_formula_sum   'In72 Te108'
_cell_volume   6778.65219839
_cell_formula_units_Z   36
loop_
 _symmetry_equiv_pos_site_id
 _symmetry_equiv_pos_as_xyz
  1  'x, y, z'
loop_
 _atom_site_type_symbol
 _atom_site_label
 _atom_site_symmetry_multiplicity
 _atom_site_fract_x
 _atom_site_fract_y
 _atom_site_fract_z
 _atom_site_occupancy
  In  In0  1  0.15806509  0.83448744  0.00623246  1
  In  In1  1  0.00232609  0.82880663  0.51437395  1
  In  In2  1  0.66230584  0.51567872  0.83465062  1
  In  In3  1  0.64731364  0.68124028  0.33579169  1
  In  In4  1  0.80966902  0.82056830  0.32880007  1
  In  In5  1  0.66433827  0.16325683  0.17876834  1
  In  In6  1  0.82322354  0.87642330  0.63753038  1
  In  In7  1  0.50618263  0.50524009  0.02263912  1
  In  In8  1  0.48500529  0.00795542  0.49010049  1
  In  In9  1  0.18183290  0.03971085  0.20639047  1
  In  In10  1  0.66019400  0.67313673  0.67451921  1
  In  In11  1  0.14367201  0.83121578  0.32843041  1
  In  In12  1  0.37116070  0.14441804  0.81185034  1
  In  In13  1  0.68089453  0.33905750  0.65624003  1
  In  In14  1  0.34560868  0.87028806  0.19512383  1
  In  In15  1  0.65529771  0.01095847  0.00509813  1
  In  In16  1  0.00498217  0.62851444  0.64286400  1
  In  In17  1  0.49674701  0.84985773  0.66874186  1
  In  In18  1  0.01231229  -0.01707001  0.65431303  1
  In  In19  1  0.45722298  0.67923062  0.50141320  1
  In  In20  1  0.34176253  0.85821414  0.83426529  1
  In  In21  1  0.80762489  0.67752704  0.83002254  1
  In  In22  1  0.00454933  0.03311185  0.35886774  1
  In  In23  1  0.33093839  0.00247555  0.00230597  1
  In  In24  1  0.48496933  0.17455101  0.01958372  1
  In  In25  1  0.63886960  0.15691502  0.50429265  1
  In  In26  1  0.18256216  0.85006912  0.66177026  1
  In  In27  1  0.02429717  0.46686172  0.49769555  1
  In  In28  1  0.50528542  0.33052849  0.84150067  1
  In  In29  1  0.86873958  0.49132300  0.66651041  1
  In  In30  1  0.31989439  0.66028330  0.67751305  1
  In  In31  1  0.62822275  0.83037194  0.86097355  1
  In  In32  1  -0.00812987  0.82536419  0.83193115  1
  In  In33  1  0.00834441  -0.00621720  0.00235366  1
  In  In34  1  -0.00963897  0.65153675  0.01625385  1
  In  In35  1  0.51248797  0.47229101  0.67008223  1
  In  In36  1  0.67808668  0.48933814  0.18306278  1
  In  In37  1  0.82783469  0.66073942  0.48952670  1
  In  In38  1  0.83508269  0.17518425  0.00065093  1
  In  In39  1  0.82037876  0.86405154  0.02294564  1
  In  In40  1  0.81626852  0.15313131  0.65835952  1
  In  In41  1  0.17133433  0.48612452  0.33736953  1
  In  In42  1  0.82982317  0.66872634  0.15474018  1
  In  In43  1  -0.01503709  0.15715521  0.82193037  1
  In  In44  1  0.84762981  0.46956704  0.30880874  1
  In  In45  1  0.33523504  0.16478967  0.48643590  1
  In  In46  1  0.01187348  0.17067041  0.19403948  1
  In  In47  1  0.16032461  0.32288269  0.16813210  1
  In  In48  1  0.64932201  0.86808806  0.15972261  1
  In  In49  1  0.64722489  0.30853525  0.34084769  1
  In  In50  1  0.32696616  0.52504416  0.89396450  1
  In  In51  1  0.66738940  0.51058356  0.47594769  1
  In  In52  1  0.17046699  0.16517653  0.63760864  1
  In  In53  1  0.18379967  0.34494636  0.82585270  1
  In  In54  1  0.18292126  0.69416996  0.82515318  1
  In  In55  1  0.49952949  0.32880766  0.17762160  1
  In  In56  1  0.68143548  0.16641929  0.83169257  1
  In  In57  1  0.82046603  0.00950302  0.49744909  1
  In  In58  1  0.64392546  0.01238637  0.33842328  1
  In  In59  1  -0.00095773  0.64900095  0.31866162  1
  In  In60  1  0.33816453  0.65749521  0.31582013  1
  In  In61  1  0.33447582  0.32540131  0.33283394  1
  In  In62  1  -0.00162241  0.29296505  0.65033366  1
  In  In63  1  0.19601979  0.17844769  -0.00365193  1
  In  In64  1  0.19957183  0.64378138  0.13470648  1
  In  In65  1  0.31442831  0.83813936  0.47281349  1
  In  In66  1  0.01027445  0.33130554  0.00779821  1
  In  In67  1  0.34873393  0.32901775  0.64528633  1
  In  In68  1  0.02471957  0.48623311  0.84989601  1
  In  In69  1  0.33035507  0.47876151  0.47932797  1
  In  In70  1  0.48241088  0.67711984  0.16136191  1
  In  In71  1  0.82824142  0.48469221  0.01229875  1
  Te  Te72  1  0.09201994  0.09880194  0.07715235  1
  Te  Te73  1  0.11576806  0.12805004  0.40397591  1
  Te  Te74  1  0.08769242  0.08297901  0.74013970  1
  Te  Te75  1  0.09626575  0.42452988  0.08046364  1
  Te  Te76  1  0.06005099  0.38812527  0.37273927  1
  Te  Te77  1  0.07348678  0.39995710  0.73694694  1
  Te  Te78  1  0.08273304  0.74058138  0.09796158  1
  Te  Te79  1  0.07584218  0.73272555  0.42316678  1
  Te  Te80  1  0.07645296  0.75250716  0.72750158  1
  Te  Te81  1  0.40537791  0.08161451  0.10183257  1
  Te  Te82  1  0.38852313  0.05162575  0.37759750  1
  Te  Te83  1  0.46613017  0.06216196  0.73614464  1
  Te  Te84  1  0.41809732  0.40442510  0.08164863  1
  Te  Te85  1  0.43382327  0.40599457  0.40898503  1
  Te  Te86  1  0.40719909  0.41721201  0.76434739  1
  Te  Te87  1  0.39417769  0.77487211  0.09471763  1
  Te  Te88  1  0.41705615  0.76844688  0.38601405  1
  Te  Te89  1  0.41437952  0.75114301  0.75268671  1
  Te  Te90  1  0.75899840  0.07992361  0.09146612  1
  Te  Te91  1  0.74515786  0.10342075  0.40647852  1
  Te  Te92  1  0.73787983  0.06347198  0.74267810  1
  Te  Te93  1  0.76028268  0.39575079  0.10731193  1
  Te  Te94  1  0.75403139  0.40725722  0.40820003  1
  Te  Te95  1  0.75727466  0.42945756  0.75178167  1
  Te  Te96  1  0.73122063  0.75909018  0.08525425  1
  Te  Te97  1  0.72621638  0.76098865  0.44135847  1
  Te  Te98  1  0.74010812  0.78286458  0.74358283  1
  Te  Te99  1  0.12535038  0.22330186  0.27877863  1
  Te  Te100  1  0.10753590  0.26898959  0.55261761  1
  Te  Te101  1  0.08380769  0.24390882  0.90135887  1
  Te  Te102  1  0.10214309  0.57774657  0.23645324  1
  Te  Te103  1  0.11219314  0.55214851  0.58022034  1
  Te  Te104  1  0.09154264  0.60519850  0.91458896  1
  Te  Te105  1  0.07320410  0.94272819  0.25341748  1
  Te  Te106  1  0.10903940  0.93028195  0.55083338  1
  Te  Te107  1  0.09214482  0.91869697  0.89807054  1
  Te  Te108  1  0.41075511  0.22806914  0.24685297  1
  Te  Te109  1  0.43465607  0.23613821  0.57287389  1
  Te  Te110  1  0.40080936  0.25092166  0.91686535  1
  Te  Te111  1  0.41108807  0.56706340  0.22823220  1
  Te  Te112  1  0.41239361  0.56728653  0.59534665  1
  Te  Te113  1  0.44872501  0.61059264  0.92982196  1
  Te  Te114  1  0.44408790  0.95834923  0.26286023  1
  Te  Te115  1  0.39630344  0.91588501  0.57577780  1
  Te  Te116  1  0.43436773  0.92072495  0.93347198  1
  Te  Te117  1  0.75266179  0.25349698  0.25547916  1
  Te  Te118  1  0.75105352  0.24702761  0.55867568  1
  Te  Te119  1  0.75493891  0.26220482  0.91509159  1
  Te  Te120  1  0.75877783  0.59771844  0.27528695  1
  Te  Te121  1  0.74905020  0.57383958  0.59641438  1
  Te  Te122  1  0.74608385  0.59095014  0.93780575  1
  Te  Te123  1  0.75003984  0.93410559  0.25188211  1
  Te  Te124  1  0.71107987  0.94601133  0.57552810  1
  Te  Te125  1  0.74097348  0.92501208  0.91221589  1
  Te  Te126  1  0.26980497  0.25352842  0.09663404  1
  Te  Te127  1  0.24190220  0.26983306  0.43682619  1
  Te  Te128  1  0.26111280  0.24095637  0.74675514  1
  Te  Te129  1  0.27220528  0.57011618  0.03144230  1
  Te  Te130  1  0.24850973  0.59124790  0.41778667  1
  Te  Te131  1  0.24208745  0.56760940  0.76808731  1
  Te  Te132  1  0.22855553  0.93070558  0.10274664  1
  Te  Te133  1  0.23692798  0.93001615  0.38799580  1
  Te  Te134  1  0.26000338  0.94155005  0.74493238  1
  Te  Te135  1  0.59518415  0.25818949  0.08175759  1
  Te  Te136  1  0.55060504  0.21734842  0.40355503  1
  Te  Te137  1  0.58839424  0.25464513  0.74091195  1
  Te  Te138  1  0.60097641  0.59165102  0.10538425  1
  Te  Te139  1  0.55500951  0.59298316  0.41713268  1
  Te  Te140  1  0.55945685  0.59184487  0.75306812  1
  Te  Te141  1  0.55516544  0.91099597  0.05314979  1
  Te  Te142  1  0.58386450  0.91614771  0.43149936  1
  Te  Te143  1  0.56397474  0.93331631  0.77342510  1
  Te  Te144  1  0.92076092  0.25266585  0.10006638  1
  Te  Te145  1  0.97080223  0.16577848  0.42605476  1
  Te  Te146  1  0.89123043  0.25114931  0.75020861  1
  Te  Te147  1  0.92140879  0.55570883  0.11087945  1
  Te  Te148  1  0.92519712  0.56524728  0.42463436  1
  Te  Te149  1  0.92036205  0.58999851  0.77481037  1
  Te  Te150  1  0.93331444  0.91437794  0.09974385  1
  Te  Te151  1  0.90547966  0.90034011  0.42302952  1
  Te  Te152  1  0.91070816  0.92676055  0.75204494  1
  Te  Te153  1  0.29906093  0.11245595  0.26320287  1
  Te  Te154  1  0.27620634  0.07668129  0.58898264  1
  Te  Te155  1  0.25603545  0.08146015  0.89689387  1
  Te  Te156  1  0.26230223  0.42092719  0.23816965  1
  Te  Te157  1  0.24887407  0.41959026  0.58689226  1
  Te  Te158  1  0.23459392  0.41703697  0.94457798  1
  Te  Te159  1  0.24256408  0.75269547  0.24014522  1
  Te  Te160  1  0.24548247  0.74323651  0.57497527  1
  Te  Te161  1  0.26720077  0.76246490  0.92987524  1
  Te  Te162  1  0.56013400  0.06404599  0.22476829  1
  Te  Te163  1  0.54876638  0.08681270  0.60438457  1
  Te  Te164  1  0.57237077  0.10202407  0.91843163  1
  Te  Te165  1  0.57506962  0.42458031  0.27109121  1
  Te  Te166  1  0.58717500  0.40702284  0.55664105  1
  Te  Te167  1  0.59317001  0.41886001  0.92759537  1
  Te  Te168  1  0.56875474  0.77358777  0.24752808  1
  Te  Te169  1  0.56900260  0.74860094  0.57971990  1
  Te  Te170  1  0.56840056  0.71013357  0.91323587  1
  Te  Te171  1  0.90644515  0.09792847  0.26602293  1
  Te  Te172  1  0.92997695  0.08672400  0.57840746  1
  Te  Te173  1  0.90738815  0.06916079  0.91677936  1
  Te  Te174  1  0.95583745  0.38626773  0.26175957  1
  Te  Te175  1  0.91180947  0.38949920  0.56461349  1
  Te  Te176  1  0.91425378  0.40593928  0.91405625  1
  Te  Te177  1  0.91838950  0.75497263  0.24466167  1
  Te  Te178  1  0.90085259  0.74184979  0.59845562  1
  Te  Te179  1  0.90626222  0.75112192  0.93371531  1
