# generated using pymatgen
data_In2Te3
_symmetry_space_group_name_H-M   'P 1'
_cell_length_a   18.76468442
_cell_length_b   18.75911798
_cell_length_c   18.76267307
_cell_angle_alpha   90.02688864
_cell_angle_beta   89.97786028
_cell_angle_gamma   89.97857410
_symmetry_Int_Tables_number   1
_chemical_formula_structural   In2Te3
_chemical_formula_sum   'In72 Te108'
_cell_volume   6604.62677085
_cell_formula_units_Z   36
loop_
 _symmetry_equiv_pos_site_id
 _symmetry_equiv_pos_as_xyz
  1  'x, y, z'
loop_
 _atom_site_type_symbol
 _atom_site_label
 _atom_site_symmetry_multiplicity
 _atom_site_fract_x
 _atom_site_fract_y
 _atom_site_fract_z
 _atom_site_occupancy
  In  In0  1  0.83136647  0.32025911  0.50069562  1
  In  In1  1  0.65847769  0.82790411  0.49924030  1
  In  In2  1  0.34186860  0.16396369  0.16854183  1
  In  In3  1  0.67299603  0.32064004  0.01023344  1
  In  In4  1  0.65357210  0.47227270  0.51220756  1
  In  In5  1  0.31737660  0.66487273  0.00392351  1
  In  In6  1  0.48223710  0.67093635  0.50190199  1
  In  In7  1  0.52914014  0.64370721  0.14514014  1
  In  In8  1  0.16370075  0.20485740  0.32418869  1
  In  In9  1  0.34190800  0.68152054  0.68199671  1
  In  In10  1  0.33954710  0.32595675  0.35271031  1
  In  In11  1  0.82092092  0.17228660  0.68084270  1
  In  In12  1  0.34431013  0.33904952  0.00047835  1
  In  In13  1  -0.00186900  0.18122390  0.50679874  1
  In  In14  1  0.01056245  0.48269608  0.17219027  1
  In  In15  1  0.35136906  0.83494859  0.51306380  1
  In  In16  1  0.16704264  0.82155888  -0.00104785  1
  In  In17  1  0.00088411  0.50960455  0.85197690  1
  In  In18  1  0.50091584  0.17233711  0.00391778  1
  In  In19  1  0.84621133  0.50340772  0.30358068  1
  In  In20  1  0.50850717  0.15881954  0.33641882  1
  In  In21  1  0.83515577  0.64710604  0.48443013  1
  In  In22  1  0.17803432  0.02118702  0.52421394  1
  In  In23  1  0.49740498  0.01263344  0.50922146  1
  In  In24  1  0.66670319  0.32227988  0.31373828  1
  In  In25  1  0.16339803  0.17013111  0.67819030  1
  In  In26  1  0.82281703  0.82887742  0.65506520  1
  In  In27  1  0.50297588  0.48273408  0.32914217  1
  In  In28  1  0.83348020  0.32675299  0.83608728  1
  In  In29  1  0.68087209  0.49619854  0.84047366  1
  In  In30  1  0.82534422  0.00449788  0.15213894  1
  In  In31  1  0.83180508  0.16341061  0.32956380  1
  In  In32  1  0.50955004  0.85220794  0.00171217  1
  In  In33  1  -0.00192523  0.02226706  -0.01175231  1
  In  In34  1  0.65892471  0.67441273  0.66569982  1
  In  In35  1  0.16053222  0.32686152  0.14283848  1
  In  In36  1  0.49353386  0.00330420  0.82761258  1
  In  In37  1  0.67042529  0.01160419  0.32031167  1
  In  In38  1  0.64650942  0.84252422  0.83429107  1
  In  In39  1  0.82967362  0.82332055  0.01470412  1
  In  In40  1  0.84584964  0.47373179  0.68628454  1
  In  In41  1  0.01230336  0.86683733  0.50846760  1
  In  In42  1  -0.01059404  0.31674236  0.65538953  1
  In  In43  1  0.32960397  0.50565172  0.14901355  1
  In  In44  1  0.84898908  0.02044254  0.83291001  1
  In  In45  1  0.01985355  0.02305756  0.68434196  1
  In  In46  1  0.81351591  -0.00046609  0.48460351  1
  In  In47  1  0.01362733  0.66679362  0.00071913  1
  In  In48  1  0.51005819  0.49770901  0.64995130  1
  In  In49  1  0.14093967  0.46295180  0.34460170  1
  In  In50  1  0.34615442  0.84036313  0.18945604  1
  In  In51  1  0.18578153  0.48924164  0.66665208  1
  In  In52  1  0.33176628  0.50628130  0.84186157  1
  In  In53  1  -0.01068166  0.66751524  0.30565872  1
  In  In54  1  0.66461590  0.01331508  0.00974899  1
  In  In55  1  0.32266839  0.67631967  0.34309462  1
  In  In56  1  0.17538343  0.82527601  0.32312748  1
  In  In57  1  0.01181070  0.66811656  0.68691321  1
  In  In58  1  0.51260257  0.32613932  0.84714379  1
  In  In59  1  0.81352371  0.49039192  -0.00183382  1
  In  In60  1  0.16823419  0.64817972  0.49464960  1
  In  In61  1  0.14925304  0.31552030  0.85193065  1
  In  In62  1  0.15334257  0.00413008  0.15095359  1
  In  In63  1  -0.01392876  0.00579874  0.32668055  1
  In  In64  1  0.82151017  0.67228108  0.16447267  1
  In  In65  1  0.32075492  0.03425364  -0.02113917  1
  In  In66  1  0.33422521  0.32829785  0.64492095  1
  In  In67  1  0.66686625  0.66781192  0.31633961  1
  In  In68  1  0.46934453  0.68533847  0.84325762  1
  In  In69  1  0.01363522  0.84174840  0.85387365  1
  In  In70  1  0.49459733  0.16320802  0.68258526  1
  In  In71  1  0.35423489  -0.00613778  0.33221896  1
  Te  Te72  1  0.08533933  0.11332908  0.07290849  1
  Te  Te73  1  0.08329011  0.08265950  0.41745854  1
  Te  Te74  1  0.09161686  0.09897743  0.79307242  1
  Te  Te75  1  0.08580633  0.42388099  0.05831998  1
  Te  Te76  1  0.06031434  0.36964799  0.42285769  1
  Te  Te77  1  0.07418924  0.41306724  0.74975670  1
  Te  Te78  1  0.07341498  0.76256841  0.09677319  1
  Te  Te79  1  0.07923647  0.75072409  0.41917903  1
  Te  Te80  1  0.09983686  0.76707556  0.75510990  1
  Te  Te81  1  0.42549938  0.06591464  0.08622810  1
  Te  Te82  1  0.39770499  0.10094666  0.42875481  1
  Te  Te83  1  0.38880191  0.07859083  0.75061346  1
  Te  Te84  1  0.42949891  0.40939718  0.09829126  1
  Te  Te85  1  0.42680908  0.41461781  0.43442843  1
  Te  Te86  1  0.41908244  0.41824543  0.75353213  1
  Te  Te87  1  0.41829632  0.74857587  0.08404595  1
  Te  Te88  1  0.42949622  0.77070116  0.39790967  1
  Te  Te89  1  0.41430201  0.79489974  0.75322007  1
  Te  Te90  1  0.74729960  0.11206641  0.08480124  1
  Te  Te91  1  0.72748093  0.10944647  0.42663152  1
  Te  Te92  1  0.73855661  0.07077542  0.74914038  1
  Te  Te93  1  0.77246229  0.38966015  0.09946198  1
  Te  Te94  1  0.75771829  0.42601238  0.40963202  1
  Te  Te95  1  0.72983270  0.39283243  0.73856447  1
  Te  Te96  1  0.72232237  0.75087507  0.08598635  1
  Te  Te97  1  0.75681028  0.75330693  0.40814450  1
  Te  Te98  1  0.74999611  0.74891249  0.76232814  1
  Te  Te99  1  0.06313645  0.25615152  0.23130474  1
  Te  Te100  1  0.10768912  0.26652504  0.57134242  1
  Te  Te101  1  0.06088148  0.25264921  0.95719943  1
  Te  Te102  1  0.10037864  0.57903190  0.25069741  1
  Te  Te103  1  0.07708373  0.56991179  0.58889038  1
  Te  Te104  1  0.10536115  0.59867934  0.90585933  1
  Te  Te105  1  0.07551637  0.91079106  0.24462852  1
  Te  Te106  1  0.10833980  0.91753486  0.61543971  1
  Te  Te107  1  0.11247553  0.94013118  0.91682570  1
  Te  Te108  1  0.42739666  0.26104446  0.24597327  1
  Te  Te109  1  0.43866706  0.25196328  0.57311463  1
  Te  Te110  1  0.40348299  0.23547345  0.90421357  1
  Te  Te111  1  0.41957070  0.59017482  0.25469121  1
  Te  Te112  1  0.39632843  0.57469125  0.58226206  1
  Te  Te113  1  0.42515936  0.57382745  0.94179238  1
  Te  Te114  1  0.45090281  0.93167256  0.24042225  1
  Te  Te115  1  0.40208865  0.94085191  0.60091272  1
  Te  Te116  1  0.40174725  0.91831197  0.91711323  1
  Te  Te117  1  0.75921556  0.24255455  0.22729949  1
  Te  Te118  1  0.73672968  0.24266941  0.58179334  1
  Te  Te119  1  0.74433289  0.23541703  0.91150927  1
  Te  Te120  1  0.73027007  0.56365710  0.22439704  1
  Te  Te121  1  0.75117884  0.57503150  0.59281157  1
  Te  Te122  1  0.74916814  0.59873452  0.92146547  1
  Te  Te123  1  0.75893448  0.91537139  0.25029208  1
  Te  Te124  1  0.72863562  0.92995219  0.59103286  1
  Te  Te125  1  0.75921592  0.92040754  0.91583253  1
  Te  Te126  1  0.25382706  0.23187823  0.06456788  1
  Te  Te127  1  0.25703642  0.23146686  0.43384477  1
  Te  Te128  1  0.25798352  0.26053889  0.75963504  1
  Te  Te129  1  0.22282747  0.57422613  0.07295405  1
  Te  Te130  1  0.25271320  0.55779938  0.40708057  1
  Te  Te131  1  0.23995476  0.59692557  0.76058657  1
  Te  Te132  1  0.26255723  0.91945326  0.08467384  1
  Te  Te133  1  0.24465843  0.91798042  0.42262439  1
  Te  Te134  1  0.26289887  0.83986082  0.76470652  1
  Te  Te135  1  0.57630983  0.25295667  0.10133776  1
  Te  Te136  1  0.57913044  0.26231697  0.41611215  1
  Te  Te137  1  0.59666302  0.24144410  0.76202987  1
  Te  Te138  1  0.58176839  0.55192078  0.04407029  1
  Te  Te139  1  0.59224444  0.59056635  0.43150106  1
  Te  Te140  1  0.57040269  0.58900567  0.75987579  1
  Te  Te141  1  0.59990751  0.91524997  0.10019569  1
  Te  Te142  1  0.57971088  0.92448177  0.41263801  1
  Te  Te143  1  0.57932231  0.92487549  0.73357583  1
  Te  Te144  1  0.94940382  0.21806327  0.04938057  1
  Te  Te145  1  0.93512584  0.26880849  0.39751688  1
  Te  Te146  1  0.93390700  0.22977268  0.76584430  1
  Te  Te147  1  0.91783900  0.57945707  0.08576595  1
  Te  Te148  1  0.93999979  0.56583613  0.40872573  1
  Te  Te149  1  0.90297996  0.59052931  0.76437020  1
  Te  Te150  1  0.93105577  0.91851125  0.07862140  1
  Te  Te151  1  0.90371930  0.90443945  0.40645274  1
  Te  Te152  1  0.92116600  0.91153622  0.74143413  1
  Te  Te153  1  0.24255016  0.07791757  0.25623012  1
  Te  Te154  1  0.27142006  0.07877595  0.62546525  1
  Te  Te155  1  0.22160724  0.08413057  0.88292027  1
  Te  Te156  1  0.25162619  0.40581651  0.24678275  1
  Te  Te157  1  0.25301755  0.41666450  0.55770423  1
  Te  Te158  1  0.23780989  0.41919258  0.92449325  1
  Te  Te159  1  0.24301955  0.73121136  0.22449178  1
  Te  Te160  1  0.24475029  0.74822657  0.57998885  1
  Te  Te161  1  0.26185324  0.76044807  0.89475243  1
  Te  Te162  1  0.58813024  0.09514255  0.22917949  1
  Te  Te163  1  0.59082361  0.09378152  0.59037183  1
  Te  Te164  1  0.58865731  0.09460349  0.90533628  1
  Te  Te165  1  0.59556433  0.42478619  0.23126692  1
  Te  Te166  1  0.56839473  0.37529361  0.58698933  1
  Te  Te167  1  0.57863648  0.43303629  0.93861193  1
  Te  Te168  1  0.57525747  0.75116344  0.23666124  1
  Te  Te169  1  0.55784486  0.76531571  0.59680197  1
  Te  Te170  1  0.58447393  0.73982853  0.92871103  1
  Te  Te171  1  0.92675440  0.10063021  0.22664381  1
  Te  Te172  1  0.91702386  0.07219271  0.57888017  1
  Te  Te173  1  0.88744817  0.11888716  0.94319599  1
  Te  Te174  1  0.90576470  0.39110448  0.22539298  1
  Te  Te175  1  0.92463539  0.42428559  0.56756962  1
  Te  Te176  1  0.92332779  0.40514941  0.93128146  1
  Te  Te177  1  0.90290755  0.76812688  0.24403953  1
  Te  Te178  1  0.92352867  0.74445808  0.57468716  1
  Te  Te179  1  0.91305556  0.74369978  0.91296225  1
