# generated using pymatgen
data_In2Te3
_symmetry_space_group_name_H-M   'P 1'
_cell_length_a   18.97708512
_cell_length_b   18.96796545
_cell_length_c   18.97646553
_cell_angle_alpha   90.15648442
_cell_angle_beta   89.96154814
_cell_angle_gamma   89.86236800
_symmetry_Int_Tables_number   1
_chemical_formula_structural   In2Te3
_chemical_formula_sum   'In72 Te108'
_cell_volume   6830.65905984
_cell_formula_units_Z   36
loop_
 _symmetry_equiv_pos_site_id
 _symmetry_equiv_pos_as_xyz
  1  'x, y, z'
loop_
 _atom_site_type_symbol
 _atom_site_label
 _atom_site_symmetry_multiplicity
 _atom_site_fract_x
 _atom_site_fract_y
 _atom_site_fract_z
 _atom_site_occupancy
  In  In0  1  0.82577391  0.49942298  0.64722211  1
  In  In1  1  0.84376611  0.15116698  0.64902535  1
  In  In2  1  0.83695181  0.18365885  0.36302771  1
  In  In3  1  0.01064707  0.82300292  0.83659630  1
  In  In4  1  0.32011130  0.34687294  0.02054147  1
  In  In5  1  0.16312809  0.83462138  0.31792098  1
  In  In6  1  0.68769952  0.69450202  0.01190931  1
  In  In7  1  0.15344350  0.34707595  0.82130183  1
  In  In8  1  0.13770535  -0.01152580  0.48944030  1
  In  In9  1  0.66961101  0.33238779  0.33385435  1
  In  In10  1  0.48345248  0.67689919  0.84178030  1
  In  In11  1  0.83710035  0.52455064  -0.00593480  1
  In  In12  1  0.01475476  0.16338791  0.51827875  1
  In  In13  1  0.85073270  -0.01247762  0.17317381  1
  In  In14  1  0.32253432  -0.00389258  -0.00208075  1
  In  In15  1  -0.00454086  0.19177105  0.82129162  1
  In  In16  1  0.32529480  0.31977002  0.65007537  1
  In  In17  1  0.83823729  0.02207821  0.84048776  1
  In  In18  1  0.01512340  -0.02868466  0.03125205  1
  In  In19  1  0.18119353  0.82768408  0.70835288  1
  In  In20  1  0.33518998  0.50910342  0.48655354  1
  In  In21  1  -0.00054356  0.66956090  0.00207226  1
  In  In22  1  0.17799348  0.52457714  0.69062682  1
  In  In23  1  0.70397370  0.15028431  0.79925913  1
  In  In24  1  0.82915707  0.66101703  0.80756464  1
  In  In25  1  0.50347179  0.85910515  0.66034158  1
  In  In26  1  0.65065161  -0.01129338  -0.01895537  1
  In  In27  1  0.15592884  0.31313415  0.16068144  1
  In  In28  1  0.85552242  0.14814598  0.02333659  1
  In  In29  1  0.82015073  0.36469496  0.19816092  1
  In  In30  1  0.49621321  0.17655545  -0.00401921  1
  In  In31  1  0.33776502  0.15374529  0.18938952  1
  In  In32  1  0.66150158  0.32421864  -0.03132685  1
  In  In33  1  0.80301462  0.82993929  0.57366665  1
  In  In34  1  0.50959426  0.64698985  0.49988733  1
  In  In35  1  0.15582588  0.32676062  0.49192884  1
  In  In36  1  0.33618524  0.82857858  0.85212309  1
  In  In37  1  -0.00232001  0.64304200  0.36647277  1
  In  In38  1  0.82816077  0.35974655  0.83823100  1
  In  In39  1  0.49297702  0.32342439  0.16269402  1
  In  In40  1  0.48866778  0.33263143  0.50240567  1
  In  In41  1  -0.01273155  0.81766883  0.18992672  1
  In  In42  1  0.50698128  0.82728409  -0.00082538  1
  In  In43  1  -0.02054099  0.33952375  -0.00654383  1
  In  In44  1  0.49447076  -0.03646457  0.17976566  1
  In  In45  1  0.18340504  0.17725996  0.64339849  1
  In  In46  1  0.18861663  -0.01353301  0.16485567  1
  In  In47  1  0.16693336  0.52056611  -0.01651318  1
  In  In48  1  0.33924330  0.83469018  0.51509882  1
  In  In49  1  0.52278708  0.02232464  0.77166972  1
  In  In50  1  0.67326572  0.67237461  0.35085881  1
  In  In51  1  0.34106770  0.13600271  0.48458958  1
  In  In52  1  0.66474369  0.51225228  0.14618628  1
  In  In53  1  0.85337933  0.85148930  0.36759480  1
  In  In54  1  0.69251833  0.33464727  0.64491673  1
  In  In55  1  0.01106869  0.15520942  0.18893950  1
  In  In56  1  0.16240054  0.66390449  0.50653785  1
  In  In57  1  0.62176564  0.12141329  0.50241725  1
  In  In58  1  0.17756511  0.00232743  0.83442052  1
  In  In59  1  0.49018244  0.50012599  0.66327697  1
  In  In60  1  0.34051779  0.49890435  0.16855669  1
  In  In61  1  0.17673305  0.67696148  0.17427291  1
  In  In62  1  -0.02801476  0.49244853  0.16945955  1
  In  In63  1  -0.00220238  0.00418759  0.64946454  1
  In  In64  1  0.67419186  0.66208518  0.66409124  1
  In  In65  1  0.16132510  0.48571360  0.33761875  1
  In  In66  1  0.50077229  0.33493418  0.82047749  1
  In  In67  1  0.83189357  0.51256583  0.36549545  1
  In  In68  1  0.64818293  -0.01966952  0.32826019  1
  In  In69  1  0.50061883  0.83200954  0.34162812  1
  In  In70  1  0.64048414  0.12417053  0.19622709  1
  In  In71  1  0.48257121  0.68281292  0.16886831  1
  Te  Te72  1  0.09731889  0.08446869  0.08683290  1
  Te  Te73  1  0.09728437  0.10610201  0.41273053  1
  Te  Te74  1  0.08192543  0.09442110  0.74167341  1
  Te  Te75  1  0.07955465  0.42800300  0.07980560  1
  Te  Te76  1  0.07161118  0.44049671  0.44481609  1
  Te  Te77  1  0.07032636  0.43681939  0.74259644  1
  Te  Te78  1  0.08486868  0.76131522  0.08815862  1
  Te  Te79  1  0.07971066  0.75836410  0.41928778  1
  Te  Te80  1  0.06591966  0.74010605  0.72872068  1
  Te  Te81  1  0.43523373  0.07442193  0.08791214  1
  Te  Te82  1  0.44378779  0.04252451  0.43303182  1
  Te  Te83  1  0.42419570  0.11630434  0.72078407  1
  Te  Te84  1  0.43616116  0.42925975  0.07078966  1
  Te  Te85  1  0.41036498  0.41172832  0.40753254  1
  Te  Te86  1  0.39637510  0.41582127  0.74515921  1
  Te  Te87  1  0.40243361  0.75164778  0.06646900  1
  Te  Te88  1  0.41380843  0.73871389  0.42431115  1
  Te  Te89  1  0.41469369  0.76361651  0.73801631  1
  Te  Te90  1  0.74529088  0.06548709  0.08610830  1
  Te  Te91  1  0.73485213  0.07941198  0.40669492  1
  Te  Te92  1  0.75187682  0.03425190  0.70582903  1
  Te  Te93  1  0.75986663  0.41203276  0.06372557  1
  Te  Te94  1  0.75868542  0.40070456  0.43458410  1
  Te  Te95  1  0.73008829  0.43324321  0.75413889  1
  Te  Te96  1  0.78205629  0.77437914  0.08682625  1
  Te  Te97  1  0.74485378  0.77264237  0.43877235  1
  Te  Te98  1  0.77315435  0.76507628  0.71356599  1
  Te  Te99  1  0.08122497  0.25420578  0.27098868  1
  Te  Te100  1  0.07304255  0.27279410  0.60711531  1
  Te  Te101  1  0.08446915  0.25448356  0.92654650  1
  Te  Te102  1  0.07626643  0.58511181  0.24237281  1
  Te  Te103  1  0.08544928  0.55861176  0.57544568  1
  Te  Te104  1  0.09642572  0.62046680  0.89958357  1
  Te  Te105  1  0.06818516  0.92898014  0.24810870  1
  Te  Te106  1  0.09250372  0.89798190  0.60107655  1
  Te  Te107  1  0.10285613  0.90607210  0.92476687  1
  Te  Te108  1  0.41076423  0.25744993  0.26230362  1
  Te  Te109  1  0.42661656  0.22541598  0.59048470  1
  Te  Te110  1  0.40618887  0.26571747  0.91888572  1
  Te  Te111  1  0.42426336  0.58010871  0.25498571  1
  Te  Te112  1  0.39874378  0.59653185  0.59294027  1
  Te  Te113  1  0.36772113  0.60967667  0.90338704  1
  Te  Te114  1  0.39357068  0.88948260  0.25484079  1
  Te  Te115  1  0.43802234  0.94373811  0.55242839  1
  Te  Te116  1  0.43240159  0.93065505  0.91507529  1
  Te  Te117  1  0.75060858  0.23259973  0.24191522  1
  Te  Te118  1  0.73155027  0.21105850  0.56710465  1
  Te  Te119  1  0.78031570  0.23243337  0.91878425  1
  Te  Te120  1  0.75013051  0.57684311  0.25281442  1
  Te  Te121  1  0.74156955  0.58381107  0.55812949  1
  Te  Te122  1  0.73739526  0.59002278  0.90577483  1
  Te  Te123  1  0.75955275  0.90304071  0.25726256  1
  Te  Te124  1  0.72645661  0.95510023  0.57732140  1
  Te  Te125  1  0.75643091  0.92100721  0.90687110  1
  Te  Te126  1  0.25445639  0.22715233  0.08431305  1
  Te  Te127  1  0.27302683  0.25807898  0.43482539  1
  Te  Te128  1  0.25045047  0.24618129  0.75956778  1
  Te  Te129  1  0.25930547  0.59267322  0.07925456  1
  Te  Te130  1  0.24561659  0.59534759  0.39838898  1
  Te  Te131  1  0.27220970  0.60096943  0.78589035  1
  Te  Te132  1  0.24859915  0.89266688  0.06863428  1
  Te  Te133  1  0.24823885  0.91066211  0.41980380  1
  Te  Te134  1  0.28317385  0.93267861  0.75115198  1
  Te  Te135  1  0.60410392  0.24132723  0.08333892  1
  Te  Te136  1  0.57954849  0.24402133  0.41635643  1
  Te  Te137  1  0.60845163  0.25716715  0.74564780  1
  Te  Te138  1  0.57834304  0.60669890  0.06986826  1
  Te  Te139  1  0.59013529  0.56669847  0.40812362  1
  Te  Te140  1  0.57296787  0.58933806  0.75177906  1
  Te  Te141  1  0.60180617  0.90008784  0.09474167  1
  Te  Te142  1  0.59307487  0.89804378  0.43671649  1
  Te  Te143  1  0.60015319  0.90022658  0.76355609  1
  Te  Te144  1  0.92060208  0.25834562  0.10699195  1
  Te  Te145  1  0.91940530  0.26230526  0.45771818  1
  Te  Te146  1  0.89696461  0.26732891  0.73680280  1
  Te  Te147  1  0.90087331  0.60788885  0.10206876  1
  Te  Te148  1  0.89071049  0.61092364  0.46993004  1
  Te  Te149  1  0.91957758  0.57800466  0.72842687  1
  Te  Te150  1  0.89517195  0.88159829  0.06980298  1
  Te  Te151  1  0.94375771  0.93132461  0.44976416  1
  Te  Te152  1  0.92935714  0.92855943  0.75952283  1
  Te  Te153  1  0.24822059  0.07144534  0.26842717  1
  Te  Te154  1  0.24746159  0.06045759  0.57705878  1
  Te  Te155  1  0.25938161  0.09537739  0.91152112  1
  Te  Te156  1  0.24702643  0.40415501  0.24280190  1
  Te  Te157  1  0.24514501  0.42820130  0.58197247  1
  Te  Te158  1  0.25404643  0.42333763  0.90783493  1
  Te  Te159  1  0.27170759  0.76324879  0.24711092  1
  Te  Te160  1  0.25151314  0.74432095  0.59923506  1
  Te  Te161  1  0.23008871  0.72406562  0.87172012  1
  Te  Te162  1  0.52948098  0.07084762  0.28727295  1
  Te  Te163  1  0.55208210  0.08825428  0.63305684  1
  Te  Te164  1  0.59225479  0.10590452  0.90058564  1
  Te  Te165  1  0.58897215  0.41713338  0.23722786  1
  Te  Te166  1  0.58629952  0.42131257  0.57713513  1
  Te  Te167  1  0.57218729  0.42423253  0.91397089  1
  Te  Te168  1  0.59228430  0.75145042  0.24923011  1
  Te  Te169  1  0.58025334  0.74997244  0.58402516  1
  Te  Te170  1  0.59924028  0.75665482  0.90230707  1
  Te  Te171  1  0.91265039  0.08017645  0.27541231  1
  Te  Te172  1  0.89841177  0.04775303  0.54187679  1
  Te  Te173  1  0.95512435  0.07853232  0.93071426  1
  Te  Te174  1  0.92844006  0.41253658  0.28946851  1
  Te  Te175  1  0.86518479  0.39359103  0.54978546  1
  Te  Te176  1  0.93347078  0.45060679  0.90260889  1
  Te  Te177  1  0.90700288  0.73266596  0.28323640  1
  Te  Te178  1  0.91947531  0.74878214  0.53439367  1
  Te  Te179  1  0.90415651  0.74482794  0.91056593  1
