# generated using pymatgen
data_In2Te3
_symmetry_space_group_name_H-M   'P 1'
_cell_length_a   18.97241156
_cell_length_b   18.99865922
_cell_length_c   18.98701303
_cell_angle_alpha   89.92580791
_cell_angle_beta   90.02763782
_cell_angle_gamma   90.02650048
_symmetry_Int_Tables_number   1
_chemical_formula_structural   In2Te3
_chemical_formula_sum   'In72 Te108'
_cell_volume   6843.86883211
_cell_formula_units_Z   36
loop_
 _symmetry_equiv_pos_site_id
 _symmetry_equiv_pos_as_xyz
  1  'x, y, z'
loop_
 _atom_site_type_symbol
 _atom_site_label
 _atom_site_symmetry_multiplicity
 _atom_site_fract_x
 _atom_site_fract_y
 _atom_site_fract_z
 _atom_site_occupancy
  In  In0  1  -0.01713149  -0.01022873  0.01914579  1
  In  In1  1  0.34016529  0.15976660  0.81307183  1
  In  In2  1  0.81807602  0.34469212  0.79805035  1
  In  In3  1  0.62944477  0.61304740  0.64654999  1
  In  In4  1  0.35345900  0.49148313  0.83909812  1
  In  In5  1  0.17820220  0.81628635  0.03512164  1
  In  In6  1  0.82941537  0.64583293  0.19073509  1
  In  In7  1  0.35490884  0.01350821  0.00602775  1
  In  In8  1  0.32966270  0.51433408  0.19089477  1
  In  In9  1  0.50913543  0.50041563  -0.02457690  1
  In  In10  1  0.15642269  0.18360015  -0.00989727  1
  In  In11  1  0.51985894  0.84291066  0.37313275  1
  In  In12  1  0.81341931  0.17551161  0.33096035  1
  In  In13  1  0.80200817  0.49052871  0.03450493  1
  In  In14  1  0.35935720  0.15099057  0.47609311  1
  In  In15  1  0.38093694  0.65195939  0.66082470  1
  In  In16  1  0.19291057  0.32570526  0.50669297  1
  In  In17  1  -0.00867304  0.51145100  0.48364794  1
  In  In18  1  0.51648943  0.47148892  0.34779378  1
  In  In19  1  -0.00726129  0.33865807  -0.00718431  1
  In  In20  1  0.64332974  0.87183323  0.14800517  1
  In  In21  1  0.18926027  0.13906925  0.35026845  1
  In  In22  1  0.49089603  0.67765607  0.17267297  1
  In  In23  1  0.17266013  0.64110064  0.83219280  1
  In  In24  1  -0.01492969  0.47660794  0.80486978  1
  In  In25  1  0.17273772  0.32892743  0.15017992  1
  In  In26  1  0.67837981  0.83949335  0.85282708  1
  In  In27  1  0.34867969  0.65871195  0.02543350  1
  In  In28  1  0.80572844  0.83350304  0.31650340  1
  In  In29  1  0.34252986  0.35492876  0.66852589  1
  In  In30  1  0.80928444  0.85865440  0.01379564  1
  In  In31  1  0.48352572  0.32630476  0.83097523  1
  In  In32  1  -0.00029639  0.14883075  0.47120440  1
  In  In33  1  0.19256059  0.14375195  0.65106436  1
  In  In34  1  0.00232784  0.84207323  0.48492238  1
  In  In35  1  0.79608564  0.32782495  0.17738985  1
  In  In36  1  0.15765255  0.51369999  0.32984426  1
  In  In37  1  0.35832587  0.32509619  0.00941309  1
  In  In38  1  0.51007282  0.00255375  0.84462671  1
  In  In39  1  0.79888514  0.03913391  0.19457896  1
  In  In40  1  0.16272503  0.84395393  0.63411262  1
  In  In41  1  0.17272694  0.66888160  0.50027959  1
  In  In42  1  -0.01914562  0.84411051  0.83601363  1
  In  In43  1  0.44003283  0.15553495  0.22607779  1
  In  In44  1  0.66231612  0.17828461  0.51032296  1
  In  In45  1  0.83894607  0.14942961  -0.01028742  1
  In  In46  1  0.02336102  0.68315812  0.02997343  1
  In  In47  1  0.00529206  0.15841732  0.16084138  1
  In  In48  1  0.83191562  -0.00438110  0.80753209  1
  In  In49  1  0.67803163  0.01204939  0.64916100  1
  In  In50  1  0.34083124  -0.00796578  0.33601374  1
  In  In51  1  0.33795765  0.84142483  0.18552028  1
  In  In52  1  0.00901608  0.34001354  0.65940995  1
  In  In53  1  0.65069076  0.67521279  0.01143463  1
  In  In54  1  0.02054356  0.68543756  0.65605883  1
  In  In55  1  0.83883114  0.64600843  0.85713453  1
  In  In56  1  0.14435499  -0.00312866  0.82568560  1
  In  In57  1  0.48301946  0.85040938  0.59636062  1
  In  In58  1  0.80722185  0.48720525  0.65078792  1
  In  In59  1  0.15545620  0.68038290  0.18087938  1
  In  In60  1  0.79707560  0.46689995  0.35136245  1
  In  In61  1  0.66652150  0.16662342  0.83452421  1
  In  In62  1  0.32582040  0.82069129  0.80850030  1
  In  In63  1  -0.01478558  0.32271463  0.32870631  1
  In  In64  1  0.51005792  0.67066798  0.49249107  1
  In  In65  1  0.16352982  0.47456634  -0.01376640  1
  In  In66  1  0.84422893  -0.00044076  0.48785416  1
  In  In67  1  0.51102928  0.33202180  0.49883652  1
  In  In68  1  0.51097029  0.15983828  0.67876105  1
  In  In69  1  0.17140639  0.83776256  0.32942657  1
  In  In70  1  0.67746862  0.66410917  0.33464714  1
  In  In71  1  0.84411898  0.81273787  0.67220228  1
  Te  Te72  1  0.09634483  0.07368318  0.07812985  1
  Te  Te73  1  0.09828020  0.04970413  0.42157705  1
  Te  Te74  1  0.08315952  0.08976843  0.73279247  1
  Te  Te75  1  0.06844159  0.42284333  0.09377983  1
  Te  Te76  1  0.08215443  0.39956855  0.41725175  1
  Te  Te77  1  0.10146727  0.42000827  0.74135215  1
  Te  Te78  1  0.05875452  0.79903490  0.13276225  1
  Te  Te79  1  0.08076201  0.74073256  0.40448595  1
  Te  Te80  1  0.09076809  0.75690657  0.77001538  1
  Te  Te81  1  0.45499267  0.04972716  0.11060105  1
  Te  Te82  1  0.45346198  0.09697135  0.37110043  1
  Te  Te83  1  0.41625635  0.05572785  0.73594080  1
  Te  Te84  1  0.41030133  0.44536820  0.08276850  1
  Te  Te85  1  0.41227980  0.42814212  0.44422460  1
  Te  Te86  1  0.45853320  0.44243018  0.73191983  1
  Te  Te87  1  0.42572357  0.77656574  0.07781860  1
  Te  Te88  1  0.41346100  0.75616857  0.42283363  1
  Te  Te89  1  0.44317131  0.77127352  0.72962044  1
  Te  Te90  1  0.73045868  0.11788125  0.08792202  1
  Te  Te91  1  0.73424298  0.08017412  0.41861916  1
  Te  Te92  1  0.76142865  0.10698727  0.73137623  1
  Te  Te93  1  0.70722161  0.38690151  0.07635689  1
  Te  Te94  1  0.72170924  0.38632768  0.45186594  1
  Te  Te95  1  0.71774105  0.44873701  0.76305122  1
  Te  Te96  1  0.74541590  0.75295238  0.10237125  1
  Te  Te97  1  0.73869175  0.76148613  0.42393115  1
  Te  Te98  1  0.75446017  0.73773317  0.76907407  1
  Te  Te99  1  0.09406592  0.24019128  0.25452461  1
  Te  Te100  1  0.09077338  0.23312172  0.56918500  1
  Te  Te101  1  0.07071636  0.25862521  0.89978468  1
  Te  Te102  1  0.06464184  0.58508950  0.24350704  1
  Te  Te103  1  0.08825330  0.57245062  0.58464262  1
  Te  Te104  1  0.06711589  0.57923123  0.92143563  1
  Te  Te105  1  0.10193054  0.91204478  0.22719311  1
  Te  Te106  1  0.08303340  0.94119610  0.55955097  1
  Te  Te107  1  0.08661933  0.90080702  0.93705131  1
  Te  Te108  1  0.43802143  0.30670575  0.24227859  1
  Te  Te109  1  0.41333972  0.24239849  0.59275064  1
  Te  Te110  1  0.42535800  0.21787810  0.92310396  1
  Te  Te111  1  0.43312007  0.58298413  0.27486827  1
  Te  Te112  1  0.43095433  0.56113359  0.55645610  1
  Te  Te113  1  0.42569255  0.60790505  0.90591124  1
  Te  Te114  1  0.44734312  0.91512297  0.26019480  1
  Te  Te115  1  0.36932831  0.92727113  0.54316299  1
  Te  Te116  1  0.40321848  0.91138739  0.90553916  1
  Te  Te117  1  0.70226678  0.26632427  0.27956014  1
  Te  Te118  1  0.72549700  0.29311377  0.57999784  1
  Te  Te119  1  0.76399431  0.25390883  0.91161459  1
  Te  Te120  1  0.72445820  0.55205996  0.24281742  1
  Te  Te121  1  0.75303315  0.59638531  0.57102775  1
  Te  Te122  1  0.72798281  0.57359957  0.92949511  1
  Te  Te123  1  0.70482624  0.94301187  0.26437115  1
  Te  Te124  1  0.76564552  0.90842360  0.58314161  1
  Te  Te125  1  0.74128762  0.95814891  0.92367408  1
  Te  Te126  1  0.26655853  0.23041060  0.08474580  1
  Te  Te127  1  0.27462322  0.25273278  0.40232098  1
  Te  Te128  1  0.25092863  0.25495418  0.73896704  1
  Te  Te129  1  0.23143876  0.57909064  0.07996262  1
  Te  Te130  1  0.25277786  0.58050966  0.41639387  1
  Te  Te131  1  0.27141621  0.57545973  0.74211072  1
  Te  Te132  1  0.25811902  0.93047622  0.09256271  1
  Te  Te133  1  0.26568301  0.90009951  0.42845401  1
  Te  Te134  1  0.24282124  0.92347842  0.73538214  1
  Te  Te135  1  0.52638972  0.23842621  0.13048924  1
  Te  Te136  1  0.56131602  0.22412496  0.41131086  1
  Te  Te137  1  0.59398820  0.26489523  0.74362858  1
  Te  Te138  1  0.57194269  0.57712832  0.09490898  1
  Te  Te139  1  0.60236034  0.56970593  0.42496805  1
  Te  Te140  1  0.57657885  0.54372376  0.76208542  1
  Te  Te141  1  0.56908839  0.95901288  0.05909733  1
  Te  Te142  1  0.56599666  0.92213088  0.48822286  1
  Te  Te143  1  0.60488046  0.92755740  0.75099611  1
  Te  Te144  1  0.90851569  0.25146873  0.09203420  1
  Te  Te145  1  0.89562761  0.25627035  0.42928453  1
  Te  Te146  1  0.92060043  0.25794013  0.74389027  1
  Te  Te147  1  0.91110187  0.58749327  0.07797023  1
  Te  Te148  1  0.88536532  0.57249139  0.40409675  1
  Te  Te149  1  0.92119652  0.59648549  0.73823354  1
  Te  Te150  1  0.88616383  0.93365162  0.11942516  1
  Te  Te151  1  0.91733602  0.91700099  0.38513596  1
  Te  Te152  1  0.93509827  0.92579112  0.71891726  1
  Te  Te153  1  0.27873442  0.09052792  0.24298518  1
  Te  Te154  1  0.28050565  0.05996912  0.56413177  1
  Te  Te155  1  0.24768043  0.07986279  0.90892179  1
  Te  Te156  1  0.24671478  0.40725713  0.25560244  1
  Te  Te157  1  0.25781478  0.43399563  0.57946603  1
  Te  Te158  1  0.26255845  0.39138081  0.90916630  1
  Te  Te159  1  0.26864968  0.73301371  0.26288374  1
  Te  Te160  1  0.26100770  0.73537936  0.60388884  1
  Te  Te161  1  0.25064616  0.73928924  0.92275580  1
  Te  Te162  1  0.62543914  0.15140108  0.20729430  1
  Te  Te163  1  0.56070270  0.06963090  0.56879693  1
  Te  Te164  1  0.57506215  0.10280587  0.93090198  1
  Te  Te165  1  0.57405263  0.37710008  0.25010945  1
  Te  Te166  1  0.61995808  0.40743624  0.56775227  1
  Te  Te167  1  0.57499715  0.37665732  0.93529663  1
  Te  Te168  1  0.58939563  0.76020167  0.25190149  1
  Te  Te169  1  0.59882888  0.74935845  0.58922632  1
  Te  Te170  1  0.57597039  0.76248620  0.92207514  1
  Te  Te171  1  0.92444263  0.08952375  0.26637917  1
  Te  Te172  1  0.90393262  0.10298765  0.57156329  1
  Te  Te173  1  0.93122854  0.06929807  0.90094349  1
  Te  Te174  1  0.90032396  0.41456951  0.24634171  1
  Te  Te175  1  0.91198420  0.41437202  0.56973116  1
  Te  Te176  1  0.89658789  0.42999637  0.91900470  1
  Te  Te177  1  0.90889446  0.74126196  0.26600419  1
  Te  Te178  1  0.91804323  0.74039385  0.56078652  1
  Te  Te179  1  0.90565891  0.76201163  0.93993848  1
