# generated using pymatgen
data_In2Te3
_symmetry_space_group_name_H-M   'P 1'
_cell_length_a   18.99111680
_cell_length_b   18.95263819
_cell_length_c   18.98578944
_cell_angle_alpha   90.09813400
_cell_angle_beta   89.89770319
_cell_angle_gamma   90.19231175
_symmetry_Int_Tables_number   1
_chemical_formula_structural   In2Te3
_chemical_formula_sum   'In72 Te108'
_cell_volume   6833.52937426
_cell_formula_units_Z   36
loop_
 _symmetry_equiv_pos_site_id
 _symmetry_equiv_pos_as_xyz
  1  'x, y, z'
loop_
 _atom_site_type_symbol
 _atom_site_label
 _atom_site_symmetry_multiplicity
 _atom_site_fract_x
 _atom_site_fract_y
 _atom_site_fract_z
 _atom_site_occupancy
  In  In0  1  0.36726300  0.84242658  0.83364149  1
  In  In1  1  -0.00200911  0.49317189  0.82805635  1
  In  In2  1  0.32667626  -0.01973434  0.01500231  1
  In  In3  1  0.69650361  0.00714125  0.36906901  1
  In  In4  1  0.80376360  0.64267004  0.14945189  1
  In  In5  1  0.14828782  0.17497006  0.65538248  1
  In  In6  1  0.50799584  0.15972402  0.00988611  1
  In  In7  1  0.51732829  0.34321367  0.51073900  1
  In  In8  1  0.85179385  0.81705580  -0.01417495  1
  In  In9  1  0.65903852  -0.00374641  -0.00853951  1
  In  In10  1  -0.01952925  0.17779125  0.81588911  1
  In  In11  1  -0.00293239  0.01229549  0.00425010  1
  In  In12  1  0.18417566  0.68895619  0.14016899  1
  In  In13  1  0.17252655  0.65795401  0.81556877  1
  In  In14  1  0.81908966  0.16491260  -0.00334224  1
  In  In15  1  0.68239260  0.83037803  0.52563913  1
  In  In16  1  0.67179268  0.21144130  0.79066213  1
  In  In17  1  -0.00047796  0.15405844  0.17140074  1
  In  In18  1  -0.00232143  0.65311857  0.31150059  1
  In  In19  1  0.83266032  0.48831028  -0.02165788  1
  In  In20  1  0.65879520  0.35396187  0.33249932  1
  In  In21  1  0.50239405  0.50872615  0.30977279  1
  In  In22  1  0.16380369  0.67776718  0.51560600  1
  In  In23  1  0.85060508  0.14755408  0.66162490  1
  In  In24  1  -0.01152647  0.48964439  0.14591219  1
  In  In25  1  0.00445679  0.42377187  0.57609134  1
  In  In26  1  0.00671994  0.66016293  0.66252484  1
  In  In27  1  0.84161567  0.65343349  0.50565072  1
  In  In28  1  -0.00369731  0.02704959  0.34171052  1
  In  In29  1  0.31577634  0.00366949  0.33282435  1
  In  In30  1  0.35425595  0.65922546  -0.00262234  1
  In  In31  1  0.34798483  0.17345422  0.85997171  1
  In  In32  1  0.32265929  0.32831085  0.63802617  1
  In  In33  1  0.81026136  0.51119809  0.32149994  1
  In  In34  1  0.70140717  0.79535179  0.81977174  1
  In  In35  1  0.49705673  0.67372371  0.16778803  1
  In  In36  1  0.67201440  0.00589692  0.65722554  1
  In  In37  1  0.64724790  0.16618948  0.17005126  1
  In  In38  1  0.83571616  0.31087697  0.52580376  1
  In  In39  1  0.48707639  0.18150677  0.33933588  1
  In  In40  1  0.50888962  0.47838342  0.66361214  1
  In  In41  1  0.67228888  0.49928926  0.53915851  1
  In  In42  1  -0.01546377  0.83527041  0.81302237  1
  In  In43  1  0.14720557  0.32856697  0.82411981  1
  In  In44  1  0.33797860  0.85328123  0.50864830  1
  In  In45  1  0.65918515  0.63706234  -0.01423761  1
  In  In46  1  0.00411002  -0.00503330  0.67765935  1
  In  In47  1  0.65367468  0.37717080  -0.03587403  1
  In  In48  1  0.52863492  0.02612165  0.50622751  1
  In  In49  1  0.50705712  0.66811440  0.49429297  1
  In  In50  1  0.17397962  0.83424453  0.33071898  1
  In  In51  1  0.49099710  -0.00139913  0.16521086  1
  In  In52  1  0.17584830  0.50246362  -0.00685133  1
  In  In53  1  0.33193947  0.51029055  0.80532353  1
  In  In54  1  0.32206895  0.31043707  0.32644741  1
  In  In55  1  0.50666796  0.82598849  0.31914810  1
  In  In56  1  0.50709493  0.00984048  0.80954416  1
  In  In57  1  0.33586623  0.50272228  0.49052664  1
  In  In58  1  0.49841616  0.81501765  0.66636147  1
  In  In59  1  0.82551127  0.82963133  0.35471631  1
  In  In60  1  0.15513595  0.48985442  0.34437134  1
  In  In61  1  0.18535941  0.17165216  -0.00383135  1
  In  In62  1  0.36946187  0.37564530  0.01312752  1
  In  In63  1  0.52946272  0.81543868  0.00244657  1
  In  In64  1  0.31719378  0.02357576  0.67252549  1
  In  In65  1  0.02158779  0.85804380  0.51675382  1
  In  In66  1  -0.01627884  0.31235169  0.34956168  1
  In  In67  1  0.17306348  0.34967753  0.16062950  1
  In  In68  1  0.16981992  0.16107964  0.35905180  1
  In  In69  1  0.00355426  0.83708961  0.17763403  1
  In  In70  1  0.15883225  0.83810293  -0.01288623  1
  In  In71  1  0.81317209  0.32387993  0.14997866  1
  Te  Te72  1  0.10327883  0.08075512  0.08775666  1
  Te  Te73  1  0.06428266  0.10594442  0.44787423  1
  Te  Te74  1  0.08993762  0.08837400  0.76462874  1
  Te  Te75  1  0.07743896  0.40529471  0.05754728  1
  Te  Te76  1  0.07325704  0.39961895  0.43269856  1
  Te  Te77  1  0.07006732  0.40783449  0.72331511  1
  Te  Te78  1  0.06523761  0.74921203  0.07044301  1
  Te  Te79  1  0.06659750  0.74879357  0.40624287  1
  Te  Te80  1  0.09447859  0.75983879  0.73682343  1
  Te  Te81  1  0.39909923  0.09245787  0.09106513  1
  Te  Te82  1  0.41346120  0.07923597  0.42365120  1
  Te  Te83  1  0.42407328  0.11444622  0.74281010  1
  Te  Te84  1  0.46420320  0.44793887  0.09771886  1
  Te  Te85  1  0.42476302  0.41060654  0.40900035  1
  Te  Te86  1  0.41024027  0.39424907  0.74413372  1
  Te  Te87  1  0.41107234  0.77033106  0.08295897  1
  Te  Te88  1  0.41228744  0.75561127  0.41716556  1
  Te  Te89  1  0.41346021  0.73144219  0.75135560  1
  Te  Te90  1  0.74173068  0.07578935  0.09124362  1
  Te  Te91  1  0.76703601  0.10051223  0.45463220  1
  Te  Te92  1  0.75096613  0.08549635  0.76114954  1
  Te  Te93  1  0.73788983  0.43443487  0.08427951  1
  Te  Te94  1  0.76028186  0.41838483  0.43438693  1
  Te  Te95  1  0.69600440  0.44895855  0.82826057  1
  Te  Te96  1  0.73971757  0.74652492  0.06170326  1
  Te  Te97  1  0.73765497  0.72858100  0.42566304  1
  Te  Te98  1  0.74357441  0.72310462  0.70052486  1
  Te  Te99  1  0.08799103  0.25955624  0.24882981  1
  Te  Te100  1  0.05827810  0.28263957  0.61114141  1
  Te  Te101  1  0.07364206  0.24077885  0.92252634  1
  Te  Te102  1  0.09102682  0.57373661  0.22257502  1
  Te  Te103  1  0.06840494  0.56831249  0.56125069  1
  Te  Te104  1  0.08294078  0.59024005  0.91657979  1
  Te  Te105  1  0.08625766  0.93332634  0.25767346  1
  Te  Te106  1  0.11247073  0.91933979  0.61140614  1
  Te  Te107  1  0.07048730  0.92593129  0.90373009  1
  Te  Te108  1  0.41994082  0.25412078  0.23317547  1
  Te  Te109  1  0.41523706  0.24887479  0.55761764  1
  Te  Te110  1  0.44159484  0.27062193  0.92806953  1
  Te  Te111  1  0.40625761  0.60637290  0.26237718  1
  Te  Te112  1  0.42482581  0.57977500  0.58695998  1
  Te  Te113  1  0.42672760  0.57108221  0.90289319  1
  Te  Te114  1  0.40117142  0.90990992  0.24856723  1
  Te  Te115  1  0.43472534  0.93520435  0.59873339  1
  Te  Te116  1  0.45154198  0.93552723  0.93095193  1
  Te  Te117  1  0.74136520  0.24733055  0.25785239  1
  Te  Te118  1  0.73958416  0.20066795  0.57118000  1
  Te  Te119  1  0.74753454  0.26560560  0.91102793  1
  Te  Te120  1  0.70932136  0.58484212  0.24659351  1
  Te  Te121  1  0.76405576  0.58785610  0.61798187  1
  Te  Te122  1  0.76191701  0.58694952  0.89029368  1
  Te  Te123  1  0.74915864  0.91806416  0.26725514  1
  Te  Te124  1  0.77349320  0.93038027  0.58275213  1
  Te  Te125  1  0.75214388  0.90896383  0.91193918  1
  Te  Te126  1  0.26886681  0.27155266  0.07383240  1
  Te  Te127  1  0.24982519  0.25452547  0.44022506  1
  Te  Te128  1  0.25331458  0.24193979  0.75930926  1
  Te  Te129  1  0.26909358  0.57269378  0.08856536  1
  Te  Te130  1  0.24138750  0.59384736  0.41340910  1
  Te  Te131  1  0.22848485  0.56386733  0.71592194  1
  Te  Te132  1  0.23004810  0.90649412  0.09538429  1
  Te  Te133  1  0.23013702  0.92950866  0.43441204  1
  Te  Te134  1  0.26694890  0.91970660  0.76262516  1
  Te  Te135  1  0.59991137  0.26421529  0.06726728  1
  Te  Te136  1  0.59604508  0.24761568  0.42038322  1
  Te  Te137  1  0.56763185  0.30065617  0.74207189  1
  Te  Te138  1  0.55904285  0.57062319  0.07594001  1
  Te  Te139  1  0.58892625  0.55930514  0.42932024  1
  Te  Te140  1  0.59420943  0.55125249  0.76000165  1
  Te  Te141  1  0.59617131  0.91072723  0.10084292  1
  Te  Te142  1  0.58158503  0.90203792  0.43466135  1
  Te  Te143  1  0.59738206  0.90201593  0.75274414  1
  Te  Te144  1  0.91951042  0.24520624  0.07792714  1
  Te  Te145  1  0.88392708  0.22443549  0.41354016  1
  Te  Te146  1  0.88959755  0.26813160  0.74189437  1
  Te  Te147  1  0.91487732  0.58951613  0.06259002  1
  Te  Te148  1  0.92192017  0.56571103  0.40871812  1
  Te  Te149  1  0.91685358  0.59722376  0.76155026  1
  Te  Te150  1  0.91249633  0.91693812  0.08692864  1
  Te  Te151  1  0.91976125  0.92376800  0.42578626  1
  Te  Te152  1  0.89255701  0.91264027  0.72913599  1
  Te  Te153  1  0.24490095  0.09975791  0.25016105  1
  Te  Te154  1  0.24515238  0.10136587  0.57318992  1
  Te  Te155  1  0.25480071  0.06540349  0.91219548  1
  Te  Te156  1  0.26122773  0.42983587  0.25369425  1
  Te  Te157  1  0.24317138  0.44147395  0.58862182  1
  Te  Te158  1  0.25392540  0.40817090  0.90332370  1
  Te  Te159  1  0.25533906  0.73708857  0.25757531  1
  Te  Te160  1  0.26949022  0.74922996  0.58669726  1
  Te  Te161  1  0.25589558  0.74344153  0.91482914  1
  Te  Te162  1  0.57760919  0.07033980  0.26824657  1
  Te  Te163  1  0.58545523  0.11547876  0.60840632  1
  Te  Te164  1  0.59583121  0.10275539  0.89805638  1
  Te  Te165  1  0.56563432  0.40154794  0.22750332  1
  Te  Te166  1  0.62759873  0.37597079  0.62088970  1
  Te  Te167  1  0.55476098  0.46419777  0.88602356  1
  Te  Te168  1  0.60114585  0.73654593  0.25239608  1
  Te  Te169  1  0.60068859  0.72120734  0.60350769  1
  Te  Te170  1  0.58163985  0.73096237  0.89022404  1
  Te  Te171  1  0.89852444  0.08537889  0.24996267  1
  Te  Te172  1  0.95506764  0.08948197  0.57354718  1
  Te  Te173  1  0.90399481  0.07909712  0.90574640  1
  Te  Te174  1  0.90823575  0.41020448  0.24757707  1
  Te  Te175  1  0.86966155  0.40070203  0.63912348  1
  Te  Te176  1  0.91945905  0.39634952  0.90578225  1
  Te  Te177  1  0.89541823  0.73832595  0.23984854  1
  Te  Te178  1  0.92456995  0.75678028  0.57871460  1
  Te  Te179  1  0.91181089  0.72819502  0.88473370  1
