# generated using pymatgen
data_In2Te3
_symmetry_space_group_name_H-M   'P 1'
_cell_length_a   18.77601608
_cell_length_b   18.78268251
_cell_length_c   18.77842960
_cell_angle_alpha   90.03548475
_cell_angle_beta   90.05412373
_cell_angle_gamma   90.01497928
_symmetry_Int_Tables_number   1
_chemical_formula_structural   In2Te3
_chemical_formula_sum   'In72 Te108'
_cell_volume   6622.47068327
_cell_formula_units_Z   36
loop_
 _symmetry_equiv_pos_site_id
 _symmetry_equiv_pos_as_xyz
  1  'x, y, z'
loop_
 _atom_site_type_symbol
 _atom_site_label
 _atom_site_symmetry_multiplicity
 _atom_site_fract_x
 _atom_site_fract_y
 _atom_site_fract_z
 _atom_site_occupancy
  In  In0  1  0.82631855  0.52280703  0.68820107  1
  In  In1  1  0.85368618  0.50921873  0.32520995  1
  In  In2  1  0.16730402  0.32564619  0.13753479  1
  In  In3  1  0.31409556  0.15509936  0.49743256  1
  In  In4  1  0.51157292  0.68732546  0.84345403  1
  In  In5  1  0.16530905  0.83956871  -0.00635267  1
  In  In6  1  0.49299267  0.33269156  0.18294450  1
  In  In7  1  -0.00334680  0.18583279  0.49870412  1
  In  In8  1  -0.00084997  0.81224236  0.51078935  1
  In  In9  1  0.32770149  -0.01152402  -0.02813443  1
  In  In10  1  0.83628065  0.84006139  0.64663504  1
  In  In11  1  0.30785519  0.49670550  0.83161200  1
  In  In12  1  0.16813750  0.83148248  0.33132799  1
  In  In13  1  0.00000326  0.34627459  -0.01078590  1
  In  In14  1  0.83257904  0.80961394  0.31884572  1
  In  In15  1  0.85410759  0.32142397  0.49109583  1
  In  In16  1  0.18089324  -0.02763520  0.49302528  1
  In  In17  1  0.84597908  0.18616050  0.68928740  1
  In  In18  1  0.83860195  0.65039869  0.85347004  1
  In  In19  1  0.69287433  0.17605492  0.83585361  1
  In  In20  1  0.03858970  0.81486589  0.80884810  1
  In  In21  1  0.16853743  0.50543391  0.66192036  1
  In  In22  1  0.64910486  0.16860598  0.17243047  1
  In  In23  1  0.48350057  0.82757515  0.66853773  1
  In  In24  1  -0.00540119  0.00386873  0.32193025  1
  In  In25  1  0.49362915  0.18131882  0.00240821  1
  In  In26  1  0.31146232  0.66508542  -0.00695359  1
  In  In27  1  0.84806465  0.02230990  0.85053609  1
  In  In28  1  0.00940494  0.00832446  0.67425866  1
  In  In29  1  0.49448334  0.17126639  0.29295099  1
  In  In30  1  -0.00254315  0.50622723  0.47967145  1
  In  In31  1  0.51363705  0.49105554  0.00372612  1
  In  In32  1  0.80803521  -0.00966795  0.49606567  1
  In  In33  1  0.18392078  -0.00644722  0.81203812  1
  In  In34  1  0.15299234  0.32223220  0.84149063  1
  In  In35  1  0.65606260  -0.00577271  -0.00830616  1
  In  In36  1  0.68457525  0.51869598  0.84882708  1
  In  In37  1  0.15954445  0.50746936  -0.00662245  1
  In  In38  1  0.47785437  -0.02211281  0.82359408  1
  In  In39  1  0.33131792  0.32667687  0.33072166  1
  In  In40  1  0.83921856  0.17059524  0.00352636  1
  In  In41  1  0.67601789  0.15044647  0.48424215  1
  In  In42  1  0.32456483  0.82329723  0.17195429  1
  In  In43  1  0.50791443  0.33906681  0.50891422  1
  In  In44  1  0.34915065  0.49916025  0.16460875  1
  In  In45  1  0.66075908  0.51363862  0.50043675  1
  In  In46  1  0.85316401  -0.00467248  0.18204830  1
  In  In47  1  0.67024617  0.34010445  0.30825017  1
  In  In48  1  0.48712754  0.15075105  0.68775615  1
  In  In49  1  0.47372641  0.33652119  0.83045876  1
  In  In50  1  0.48189497  0.81029291  0.37236462  1
  In  In51  1  0.33656913  0.55040655  0.53074915  1
  In  In52  1  0.16315620  0.16172399  0.65530389  1
  In  In53  1  -0.00775525  0.33615971  0.69253532  1
  In  In54  1  0.30960014  0.00337810  0.32777433  1
  In  In55  1  0.83871419  0.82060339  0.02326289  1
  In  In56  1  0.18212774  0.68721920  0.51049334  1
  In  In57  1  0.68560149  0.66033985  0.33262990  1
  In  In58  1  0.50519919  0.50928618  0.32284758  1
  In  In59  1  0.65962806  0.67605524  0.66541543  1
  In  In60  1  0.83211296  0.36681025  0.14804053  1
  In  In61  1  0.49736436  0.65833303  0.16071611  1
  In  In62  1  0.50278444  -0.02085263  0.50431130  1
  In  In63  1  0.17210404  0.16674363  0.31832875  1
  In  In64  1  0.63925695  0.82106519  0.83875176  1
  In  In65  1  0.13291922  0.51906237  0.31997586  1
  In  In66  1  0.67139152  0.83180497  0.15748089  1
  In  In67  1  0.31435332  0.34909072  0.66694889  1
  In  In68  1  -0.00030974  0.83546934  0.17010704  1
  In  In69  1  -0.00540552  0.64654166  0.01632553  1
  In  In70  1  0.51773022  -0.00395374  0.16828361  1
  In  In71  1  0.67715166  0.36536311  0.67339396  1
  Te  Te72  1  0.04764260  0.04002190  0.04285683  1
  Te  Te73  1  0.08837936  0.07651303  0.43026415  1
  Te  Te74  1  0.07695222  0.10604416  0.76630437  1
  Te  Te75  1  0.06947231  0.43546533  0.09226391  1
  Te  Te76  1  0.07197740  0.40874407  0.39884048  1
  Te  Te77  1  0.08148906  0.43518233  0.76731868  1
  Te  Te78  1  0.09050717  0.74536147  0.08703252  1
  Te  Te79  1  0.07673634  0.73453327  0.40574053  1
  Te  Te80  1  0.13747497  0.73640946  0.72866070  1
  Te  Te81  1  0.42319574  0.06634058  0.07304636  1
  Te  Te82  1  0.41732958  0.09105612  0.40589994  1
  Te  Te83  1  0.38591627  0.07714643  0.76429994  1
  Te  Te84  1  0.41075283  0.39848502  0.06943121  1
  Te  Te85  1  0.41793921  0.42283101  0.41637070  1
  Te  Te86  1  0.41475713  0.44090422  0.73469340  1
  Te  Te87  1  0.41315759  0.74929229  0.07104203  1
  Te  Te88  1  0.39507284  0.72654410  0.45961489  1
  Te  Te89  1  0.40231893  0.74854297  0.76555556  1
  Te  Te90  1  0.74426907  0.07225163  0.08852628  1
  Te  Te91  1  0.77889739  0.09447211  0.39599563  1
  Te  Te92  1  0.75396823  0.07318632  0.73954148  1
  Te  Te93  1  0.74186941  0.44344065  0.06148577  1
  Te  Te94  1  0.74434376  0.41249919  0.42323897  1
  Te  Te95  1  0.77942680  0.40598075  0.77959489  1
  Te  Te96  1  0.75443852  0.72550994  0.09661210  1
  Te  Te97  1  0.75810841  0.74632239  0.42977029  1
  Te  Te98  1  0.75710385  0.74980720  0.76223424  1
  Te  Te99  1  0.08388956  0.24684130  0.23186268  1
  Te  Te100  1  0.08457005  0.27400050  0.58749213  1
  Te  Te101  1  0.10488738  0.24393046  0.95789511  1
  Te  Te102  1  0.03853853  0.59154155  0.22830130  1
  Te  Te103  1  0.07812233  0.59304353  0.57671839  1
  Te  Te104  1  0.07172720  0.58714392  0.90485657  1
  Te  Te105  1  0.09901145  0.93059702  0.23839023  1
  Te  Te106  1  0.08761164  0.90596401  0.59405876  1
  Te  Te107  1  0.07816004  0.92937891  0.90559692  1
  Te  Te108  1  0.37287311  0.22918676  0.21229123  1
  Te  Te109  1  0.40949460  0.24802824  0.58333175  1
  Te  Te110  1  0.39459314  0.24199678  0.91053108  1
  Te  Te111  1  0.40007263  0.60380742  0.26542828  1
  Te  Te112  1  0.43323317  0.64609126  0.58700004  1
  Te  Te113  1  0.41436536  0.57484749  0.91866427  1
  Te  Te114  1  0.42015027  0.91642262  0.25799511  1
  Te  Te115  1  0.39900348  0.92445764  0.59212448  1
  Te  Te116  1  0.41392456  0.88152841  0.91429794  1
  Te  Te117  1  0.76172818  0.24710551  0.23636210  1
  Te  Te118  1  0.74376566  0.25351971  0.58691161  1
  Te  Te119  1  0.74431603  0.26549276  0.94055722  1
  Te  Te120  1  0.75450055  0.57318480  0.23436393  1
  Te  Te121  1  0.75962226  0.60166867  0.57524041  1
  Te  Te122  1  0.78732745  0.55114058  0.95739644  1
  Te  Te123  1  0.74556725  0.91914617  0.25974548  1
  Te  Te124  1  0.72263419  0.90420311  0.57833543  1
  Te  Te125  1  0.76059831  0.91223322  0.91660681  1
  Te  Te126  1  0.27938879  0.24221928  0.09317940  1
  Te  Te127  1  0.23088623  0.25992979  0.42620481  1
  Te  Te128  1  0.25138117  0.24291504  0.75307378  1
  Te  Te129  1  0.23926412  0.58556252  0.09997722  1
  Te  Te130  1  0.24106622  0.57978077  0.41646925  1
  Te  Te131  1  0.25572748  0.59986779  0.73801053  1
  Te  Te132  1  0.24773262  0.92551475  0.08918371  1
  Te  Te133  1  0.28134379  0.88409901  0.42227315  1
  Te  Te134  1  0.23789389  0.87253401  0.74160410  1
  Te  Te135  1  0.59091450  0.27126450  0.07813651  1
  Te  Te136  1  0.57785685  0.25293295  0.40315714  1
  Te  Te137  1  0.58532302  0.25672803  0.74261895  1
  Te  Te138  1  0.59801607  0.58913037  0.07593740  1
  Te  Te139  1  0.56954097  0.60521307  0.42145485  1
  Te  Te140  1  0.58139353  0.58173255  0.75584203  1
  Te  Te141  1  0.56721212  0.89473514  0.06368625  1
  Te  Te142  1  0.58871603  0.90639821  0.41014515  1
  Te  Te143  1  0.59080660  0.92311264  0.73943175  1
  Te  Te144  1  0.92684872  0.25728210  0.09162016  1
  Te  Te145  1  0.92797418  0.25079145  0.38533330  1
  Te  Te146  1  0.92416391  0.25283571  0.79934904  1
  Te  Te147  1  0.92176793  0.58227664  0.12786991  1
  Te  Te148  1  0.90342250  0.60619632  0.42506538  1
  Te  Te149  1  0.93629592  0.59354436  0.75781809  1
  Te  Te150  1  0.93777399  0.93848136  0.06327583  1
  Te  Te151  1  0.92076572  0.90785589  0.41617151  1
  Te  Te152  1  0.91859693  0.91493571  0.75715501  1
  Te  Te153  1  0.23736802  0.07526623  0.22093224  1
  Te  Te154  1  0.25832619  0.05586145  0.59815917  1
  Te  Te155  1  0.23026469  0.08660430  0.91864977  1
  Te  Te156  1  0.24497685  0.42399655  0.25011059  1
  Te  Te157  1  0.24539044  0.42542862  0.55677768  1
  Te  Te158  1  0.25087957  0.40088196  0.93303760  1
  Te  Te159  1  0.24603908  0.73073596  0.25529960  1
  Te  Te160  1  0.24489631  0.77234489  0.61935170  1
  Te  Te161  1  0.24397302  0.75628723  0.89796996  1
  Te  Te162  1  0.60280869  0.06520900  0.27499766  1
  Te  Te163  1  0.58136155  0.08503638  0.58482530  1
  Te  Te164  1  0.58036798  0.09045763  0.90150443  1
  Te  Te165  1  0.59550607  0.44081245  0.22176882  1
  Te  Te166  1  0.56744245  0.44556176  0.60046790  1
  Te  Te167  1  0.58909315  0.40748332  0.90124718  1
  Te  Te168  1  0.57540373  0.75515845  0.25439513  1
  Te  Te169  1  0.57178990  0.75197519  0.57280436  1
  Te  Te170  1  0.61492252  0.72121972  0.94525640  1
  Te  Te171  1  0.94327293  0.10403943  0.22556110  1
  Te  Te172  1  0.91036946  0.08498646  0.58367738  1
  Te  Te173  1  0.95243952  0.09711619  0.93192589  1
  Te  Te174  1  0.92804812  0.40233005  0.25567334  1
  Te  Te175  1  0.90774990  0.42110533  0.59420784  1
  Te  Te176  1  0.90867580  0.39216859  0.88174911  1
  Te  Te177  1  0.92756554  0.72274427  0.23904354  1
  Te  Te178  1  0.92779439  0.73024674  0.61093754  1
  Te  Te179  1  0.93313463  0.76136965  0.91723931  1
