# generated using pymatgen
data_In2Te3
_symmetry_space_group_name_H-M   'P 1'
_cell_length_a   18.81493892
_cell_length_b   18.79099229
_cell_length_c   18.80844565
_cell_angle_alpha   89.97147427
_cell_angle_beta   90.09216768
_cell_angle_gamma   90.00123539
_symmetry_Int_Tables_number   1
_chemical_formula_structural   In2Te3
_chemical_formula_sum   'In72 Te108'
_cell_volume   6649.74233643
_cell_formula_units_Z   36
loop_
 _symmetry_equiv_pos_site_id
 _symmetry_equiv_pos_as_xyz
  1  'x, y, z'
loop_
 _atom_site_type_symbol
 _atom_site_label
 _atom_site_symmetry_multiplicity
 _atom_site_fract_x
 _atom_site_fract_y
 _atom_site_fract_z
 _atom_site_occupancy
  In  In0  1  0.01212303  0.69792279  0.65453450  1
  In  In1  1  0.16755951  0.34308660  0.17816172  1
  In  In2  1  0.17741959  0.49972387  0.34228305  1
  In  In3  1  0.00868131  0.52345007  0.49547025  1
  In  In4  1  0.65975227  0.30807642  -0.00991758  1
  In  In5  1  0.67549070  -0.00396339  0.31557828  1
  In  In6  1  0.32314229  0.35951171  0.00474463  1
  In  In7  1  -0.03077312  0.66408373  0.31813895  1
  In  In8  1  0.01031978  0.49020263  0.15502353  1
  In  In9  1  0.67449664  0.67758857  0.00720393  1
  In  In10  1  0.17420612  0.32899974  0.52327103  1
  In  In11  1  0.49726923  0.00377763  0.51489519  1
  In  In12  1  -0.00976024  0.33934959  0.00121878  1
  In  In13  1  0.49028120  0.17367307  0.00837580  1
  In  In14  1  0.83361220  0.13297060  0.32608103  1
  In  In15  1  0.66491617  -0.03177676  -0.00612416  1
  In  In16  1  0.03779442  0.53932669  0.85224318  1
  In  In17  1  0.83609798  0.49644443  0.66324306  1
  In  In18  1  0.17130216  0.67853465  0.48591363  1
  In  In19  1  0.32367462  0.16427169  0.17437911  1
  In  In20  1  0.12832903  0.83549984  0.32486260  1
  In  In21  1  0.81780101  0.32713863  0.17742752  1
  In  In22  1  0.34118978  -0.01302068  0.67617366  1
  In  In23  1  0.66848515  0.14437676  0.49151941  1
  In  In24  1  -0.00015237  0.82962282  0.82656291  1
  In  In25  1  0.84818019  0.13965520  0.67522941  1
  In  In26  1  0.17943953  -0.01280293  0.84744341  1
  In  In27  1  0.68522232  0.85110650  0.53116871  1
  In  In28  1  0.66345975  0.33716243  0.65907843  1
  In  In29  1  0.31396838  0.80552353  0.82896201  1
  In  In30  1  -0.01870794  0.15276286  0.83705969  1
  In  In31  1  0.50069270  0.35542481  0.82039699  1
  In  In32  1  0.65778586  0.49929282  0.18358559  1
  In  In33  1  0.00175438  -0.02872778  0.64765161  1
  In  In34  1  0.15863763  0.69181079  0.13726129  1
  In  In35  1  -0.01567219  0.32217113  0.31879575  1
  In  In36  1  0.32923241  0.65405183  0.68219649  1
  In  In37  1  0.68258127  0.68271283  0.34126168  1
  In  In38  1  0.16069338  0.34428318  0.84960844  1
  In  In39  1  0.32156545  0.68196750  -0.01653913  1
  In  In40  1  0.50927694  0.17284366  0.35199736  1
  In  In41  1  0.63193265  0.54228003  0.79811024  1
  In  In42  1  0.48643470  0.82682479  0.00977701  1
  In  In43  1  0.31873077  0.19364028  0.51502615  1
  In  In44  1  0.32550912  0.34676585  0.33742288  1
  In  In45  1  0.47714948  0.51314831  -0.00275207  1
  In  In46  1  0.84610085  0.68702340  0.83874738  1
  In  In47  1  0.49707332  0.35079847  0.50155677  1
  In  In48  1  0.48192954  0.53160261  0.30442193  1
  In  In49  1  0.17519585  0.15705083  0.65989345  1
  In  In50  1  0.02724786  0.31899394  0.67563186  1
  In  In51  1  0.83814010  0.68128249  0.50715618  1
  In  In52  1  0.32863165  -0.01264889  0.32300222  1
  In  In53  1  0.31008046  -0.00976342  0.01392694  1
  In  In54  1  0.64936477  0.17511325  0.16928073  1
  In  In55  1  0.83451789  0.33014358  0.48050917  1
  In  In56  1  0.31022615  0.82530058  0.16058401  1
  In  In57  1  0.83793712  0.14729286  -0.01650784  1
  In  In58  1  0.34541112  0.36189170  0.66732264  1
  In  In59  1  0.49519398  0.68055307  0.51044996  1
  In  In60  1  0.33327379  0.14781726  0.82454392  1
  In  In61  1  0.84275110  0.70243603  0.15694192  1
  In  In62  1  0.84823428  -0.01892718  0.14828326  1
  In  In63  1  0.34125190  0.82702861  0.49970199  1
  In  In64  1  0.85027249  0.50445591  -0.00643807  1
  In  In65  1  0.66825828  0.48929058  0.50440823  1
  In  In66  1  0.00029582  0.10839144  0.14023763  1
  In  In67  1  0.12564837  0.12904242  0.34409005  1
  In  In68  1  0.51818512  -0.01355340  0.83791923  1
  In  In69  1  0.69974663  0.16007300  0.82361709  1
  In  In70  1  0.68230541  0.83113796  0.83102431  1
  In  In71  1  0.51263034  0.81706027  0.32203093  1
  Te  Te72  1  0.10558922  0.03672431  0.06835332  1
  Te  Te73  1  0.08555868  0.02578108  0.44365903  1
  Te  Te74  1  0.08400970  0.07490487  0.74927042  1
  Te  Te75  1  0.10518830  0.42148749  0.05947068  1
  Te  Te76  1  0.07665131  0.40407722  0.41144573  1
  Te  Te77  1  0.09324313  0.43560272  0.74664133  1
  Te  Te78  1  0.03696267  0.75775213  0.08560125  1
  Te  Te79  1  0.05032153  0.74490856  0.42200075  1
  Te  Te80  1  0.10316747  0.74226469  0.76237568  1
  Te  Te81  1  0.41423814  0.07181240  0.09233519  1
  Te  Te82  1  0.39980679  0.08696789  0.41811055  1
  Te  Te83  1  0.44027179  0.08357323  0.74150331  1
  Te  Te84  1  0.41542071  0.42479464  0.09821579  1
  Te  Te85  1  0.41226577  0.44200339  0.41663702  1
  Te  Te86  1  0.40775936  0.45946489  0.76497232  1
  Te  Te87  1  0.42023000  0.72385915  0.10436156  1
  Te  Te88  1  0.40775671  0.73592606  0.39662047  1
  Te  Te89  1  0.42900788  0.74453014  0.75481900  1
  Te  Te90  1  0.74585769  0.08672611  0.09123624  1
  Te  Te91  1  0.76529879  0.04372202  0.43075410  1
  Te  Te92  1  0.75400296  0.04434776  0.74412596  1
  Te  Te93  1  0.75040084  0.41576963  0.07214571  1
  Te  Te94  1  0.75111828  0.42235731  0.40227637  1
  Te  Te95  1  0.73669441  0.42891628  0.75646950  1
  Te  Te96  1  0.76715173  0.78332569  0.05663531  1
  Te  Te97  1  0.76682667  0.78553312  0.41948103  1
  Te  Te98  1  0.75285863  0.73872700  0.73819128  1
  Te  Te99  1  0.07251889  0.23358106  0.23089034  1
  Te  Te100  1  0.07337955  0.22241685  0.56633814  1
  Te  Te101  1  0.07534523  0.23874279  0.92307033  1
  Te  Te102  1  0.08443477  0.58449516  0.25254009  1
  Te  Te103  1  0.10169630  0.58761632  0.59348357  1
  Te  Te104  1  0.12782190  0.61118350  0.94681860  1
  Te  Te105  1  0.05246730  0.92178626  0.23049381  1
  Te  Te106  1  0.08914120  0.89262380  0.55829408  1
  Te  Te107  1  0.06174286  0.93318436  0.91952483  1
  Te  Te108  1  0.41611504  0.25255664  0.25826919  1
  Te  Te109  1  0.43047846  0.25292050  0.59922296  1
  Te  Te110  1  0.41096719  0.25984576  0.90942069  1
  Te  Te111  1  0.40235315  0.62959863  0.22988243  1
  Te  Te112  1  0.41439399  0.58139453  0.58392059  1
  Te  Te113  1  0.41967138  0.60739379  0.89865399  1
  Te  Te114  1  0.41858900  0.90521941  0.23475749  1
  Te  Te115  1  0.43504133  0.89310007  0.60002669  1
  Te  Te116  1  0.39793703  0.91849718  0.90941077  1
  Te  Te117  1  0.73825018  0.24146973  0.27447521  1
  Te  Te118  1  0.75966434  0.24285681  0.58508856  1
  Te  Te119  1  0.77756882  0.26432554  0.90519977  1
  Te  Te120  1  0.75951118  0.59742954  0.23752663  1
  Te  Te121  1  0.74376862  0.59233920  0.58946347  1
  Te  Te122  1  0.74765028  0.58113626  0.90922978  1
  Te  Te123  1  0.76248122  0.90128342  0.24192952  1
  Te  Te124  1  0.75999109  0.93172495  0.63029573  1
  Te  Te125  1  0.77664073  0.90392528  0.92374258  1
  Te  Te126  1  0.24279848  0.25208545  0.07851694  1
  Te  Te127  1  0.22845612  0.24071301  0.39455262  1
  Te  Te128  1  0.24949489  0.25938906  0.74726875  1
  Te  Te129  1  0.23979173  0.58654458  0.06801682  1
  Te  Te130  1  0.26530957  0.58122166  0.42705974  1
  Te  Te131  1  0.27331234  0.55995928  0.78387184  1
  Te  Te132  1  0.20755491  0.90971088  0.08744643  1
  Te  Te133  1  0.24130791  0.90096124  0.41141525  1
  Te  Te134  1  0.23238787  0.89969537  0.73594683  1
  Te  Te135  1  0.55949132  0.27702688  0.10005640  1
  Te  Te136  1  0.60095976  0.26804904  0.42687618  1
  Te  Te137  1  0.59004962  0.24666017  0.75891567  1
  Te  Te138  1  0.58072254  0.58765001  0.08674293  1
  Te  Te139  1  0.58675498  0.58828531  0.41427468  1
  Te  Te140  1  0.55363771  0.64112311  0.72122214  1
  Te  Te141  1  0.57581808  0.90969205  0.09345697  1
  Te  Te142  1  0.58140039  0.91849459  0.41923561  1
  Te  Te143  1  0.59239290  0.90853755  0.73919913  1
  Te  Te144  1  0.91121523  0.24222432  0.09204472  1
  Te  Te145  1  0.92191100  0.22236843  0.41531645  1
  Te  Te146  1  0.91046296  0.25845555  0.75133503  1
  Te  Te147  1  0.93280259  0.59732606  0.07900644  1
  Te  Te148  1  0.89061701  0.57174594  0.41413797  1
  Te  Te149  1  0.92961354  0.58806138  0.74276164  1
  Te  Te150  1  0.96322532  0.89579802  0.10159299  1
  Te  Te151  1  0.96778630  0.92976203  0.47641639  1
  Te  Te152  1  0.90039032  0.89094147  0.72685331  1
  Te  Te153  1  0.22675585  0.06898082  0.24443933  1
  Te  Te154  1  0.25659407  0.06319929  0.57251321  1
  Te  Te155  1  0.23897573  0.10113147  0.93187406  1
  Te  Te156  1  0.26830877  0.44354333  0.23240595  1
  Te  Te157  1  0.25645364  0.43716608  0.57615266  1
  Te  Te158  1  0.26501045  0.44494999  0.89440528  1
  Te  Te159  1  0.23287155  0.74175548  0.26131875  1
  Te  Te160  1  0.24894176  0.75276556  0.59508985  1
  Te  Te161  1  0.20327761  0.75360916  0.91782264  1
  Te  Te162  1  0.56398898  0.07580823  0.24734475  1
  Te  Te163  1  0.58476805  0.08809553  0.59785232  1
  Te  Te164  1  0.59524866  0.09769019  0.92640573  1
  Te  Te165  1  0.56874499  0.41819987  0.26670774  1
  Te  Te166  1  0.56449709  0.44043816  0.60582394  1
  Te  Te167  1  0.59072019  0.42632269  0.92079493  1
  Te  Te168  1  0.60526349  0.74699146  0.23252822  1
  Te  Te169  1  0.60081782  0.74428017  0.59735139  1
  Te  Te170  1  0.57686585  0.75091364  0.91620337  1
  Te  Te171  1  0.93748767  0.03958441  0.26807668  1
  Te  Te172  1  0.92677397  0.07456239  0.56714133  1
  Te  Te173  1  0.91593325  0.04267283  0.91401810  1
  Te  Te174  1  0.90425591  0.43146007  0.24864303  1
  Te  Te175  1  0.93229822  0.40899857  0.57891551  1
  Te  Te176  1  0.93361178  0.42936237  0.89114699  1
  Te  Te177  1  0.89918339  0.78559268  0.26834980  1
  Te  Te178  1  0.90129818  0.78265132  0.59886839  1
  Te  Te179  1  0.94641146  0.73862792  0.93491226  1
