# generated using pymatgen
data_In2Te3
_symmetry_space_group_name_H-M   'P 1'
_cell_length_a   18.96051858
_cell_length_b   18.97014572
_cell_length_c   18.97357726
_cell_angle_alpha   89.94942678
_cell_angle_beta   89.98083036
_cell_angle_gamma   90.16447280
_symmetry_Int_Tables_number   1
_chemical_formula_structural   In2Te3
_chemical_formula_sum   'In72 Te108'
_cell_volume   6824.45721063
_cell_formula_units_Z   36
loop_
 _symmetry_equiv_pos_site_id
 _symmetry_equiv_pos_as_xyz
  1  'x, y, z'
loop_
 _atom_site_type_symbol
 _atom_site_label
 _atom_site_symmetry_multiplicity
 _atom_site_fract_x
 _atom_site_fract_y
 _atom_site_fract_z
 _atom_site_occupancy
  In  In0  1  -0.00059840  0.17867618  0.16967026  1
  In  In1  1  0.82086678  0.34868331  0.16655813  1
  In  In2  1  0.86101276  0.82101904  -0.02683721  1
  In  In3  1  0.68016352  0.33091227  0.33528747  1
  In  In4  1  0.67801248  0.83949949  0.82553218  1
  In  In5  1  0.15196096  0.17451279  0.67503115  1
  In  In6  1  0.85203293  0.19927082  0.67664197  1
  In  In7  1  0.00535689  0.65971889  -0.00355640  1
  In  In8  1  0.65409737  0.80457236  0.49198586  1
  In  In9  1  0.83148081  0.50848692  -0.01441203  1
  In  In10  1  0.31673482  0.32461077  0.68277692  1
  In  In11  1  0.00749583  -0.02163967  -0.02190258  1
  In  In12  1  0.84652306  0.65242820  0.52417835  1
  In  In13  1  0.32341787  0.03342053  0.32676723  1
  In  In14  1  0.87697516  0.85069491  0.31868436  1
  In  In15  1  0.50174510  0.49166059  0.66570344  1
  In  In16  1  0.52009997  0.02020728  0.16482387  1
  In  In17  1  0.33666207  0.50055092  0.83537690  1
  In  In18  1  0.64734441  0.02066018  0.65762448  1
  In  In19  1  0.79538124  0.17455617  -0.01411556  1
  In  In20  1  0.34594467  0.33281399  -0.02950968  1
  In  In21  1  0.00893018  0.49311223  0.53566362  1
  In  In22  1  -0.00431610  0.35606231  -0.01019672  1
  In  In23  1  0.16778204  0.66856565  0.16092116  1
  In  In24  1  0.48680435  0.62633565  0.47332684  1
  In  In25  1  0.17224136  0.81247097  0.68233730  1
  In  In26  1  0.47859497  0.01561844  0.48099394  1
  In  In27  1  0.83303891  0.68990690  0.18025959  1
  In  In28  1  0.15606638  0.33408210  0.15635983  1
  In  In29  1  0.18453909  0.48900498  0.00785850  1
  In  In30  1  0.64458446  0.18391983  0.83151048  1
  In  In31  1  0.50754489  0.82593959  0.67926274  1
  In  In32  1  0.51169710  0.49634711  -0.02513602  1
  In  In33  1  0.81260188  -0.01305800  0.49024961  1
  In  In34  1  0.00754836  0.01214631  0.66202786  1
  In  In35  1  0.15871413  0.49755911  0.33044948  1
  In  In36  1  -0.01301273  0.81160850  0.50266603  1
  In  In37  1  0.66093542  0.82965893  0.16918723  1
  In  In38  1  0.17025803  0.01391002  0.51124039  1
  In  In39  1  0.30934889  0.67537306  0.66802399  1
  In  In40  1  0.16631881  0.17397213  -0.00479456  1
  In  In41  1  0.30118715  0.81765074  0.54509109  1
  In  In42  1  0.35879541  0.50370116  0.17506078  1
  In  In43  1  0.83183922  0.49286615  0.35722578  1
  In  In44  1  0.65622745  0.02623615  0.30134524  1
  In  In45  1  0.34010272  0.30330757  0.33925198  1
  In  In46  1  0.48953416  0.83349403  0.34565120  1
  In  In47  1  0.85896693  0.82467644  0.64160665  1
  In  In48  1  0.84704741  0.00332960  0.82476322  1
  In  In49  1  0.00175759  0.16433184  0.49376818  1
  In  In50  1  0.66243525  0.48395278  0.15837378  1
  In  In51  1  0.15247032  0.85696709  0.35273513  1
  In  In52  1  0.33122096  0.85521062  0.14423112  1
  In  In53  1  0.85948801  0.02177933  0.14892379  1
  In  In54  1  0.49084984  0.33904580  0.51714581  1
  In  In55  1  0.51432809  0.15855741  -0.00144825  1
  In  In56  1  0.67817313  0.47543191  0.80351129  1
  In  In57  1  0.68175243  0.64013706  0.66683098  1
  In  In58  1  0.66039443  0.65071210  -0.01794978  1
  In  In59  1  0.67571149  0.66111695  0.36149512  1
  In  In60  1  -0.01639116  0.48034505  0.75553945  1
  In  In61  1  0.18703190  0.66088945  0.85567607  1
  In  In62  1  0.31116283  0.46400295  0.49498170  1
  In  In63  1  0.48109406  0.82768625  -0.00467002  1
  In  In64  1  0.65355005  0.18088984  0.16688313  1
  In  In65  1  0.33178718  0.66447374  0.31107902  1
  In  In66  1  0.32592382  0.02265177  -0.02028757  1
  In  In67  1  0.36213158  0.01868172  0.70415735  1
  In  In68  1  0.31736778  0.84417602  0.83969035  1
  In  In69  1  0.18474866  0.00154755  0.17356398  1
  In  In70  1  0.68013655  0.18562358  0.52151931  1
  In  In71  1  -0.01702990  0.33188995  0.35249801  1
  Te  Te72  1  0.07604988  0.08262206  0.07917159  1
  Te  Te73  1  0.10459399  0.09907162  0.41330496  1
  Te  Te74  1  0.05480734  0.10420489  0.76624059  1
  Te  Te75  1  0.06817295  0.43870389  0.09378906  1
  Te  Te76  1  0.08630628  0.41063231  0.43132866  1
  Te  Te77  1  0.05511164  0.35531806  0.71764622  1
  Te  Te78  1  0.09817699  0.75187921  0.06317652  1
  Te  Te79  1  0.07849212  0.74368259  0.41112212  1
  Te  Te80  1  0.09193799  0.76497961  0.80000099  1
  Te  Te81  1  0.40945354  0.08868965  0.08690053  1
  Te  Te82  1  0.37941974  0.11803542  0.43753355  1
  Te  Te83  1  0.44766415  0.12625670  0.77283277  1
  Te  Te84  1  0.42453391  0.41339025  0.07224912  1
  Te  Te85  1  0.42075442  0.41503624  0.40476475  1
  Te  Te86  1  0.42321049  0.40249059  0.75955897  1
  Te  Te87  1  0.42833566  0.75279474  0.10881531  1
  Te  Te88  1  0.40634593  0.75205823  0.44402910  1
  Te  Te89  1  0.40606305  0.74696636  0.75965833  1
  Te  Te90  1  0.73548622  0.07732739  0.08736931  1
  Te  Te91  1  0.73885228  0.09293413  0.41335080  1
  Te  Te92  1  0.75438697  0.08912795  0.74085130  1
  Te  Te93  1  0.73979622  0.40838474  0.05288535  1
  Te  Te94  1  0.77783452  0.38065789  0.43614734  1
  Te  Te95  1  0.78191406  0.40834724  0.72058734  1
  Te  Te96  1  0.74474164  0.75034180  0.06843687  1
  Te  Te97  1  0.77928842  0.75728745  0.41932161  1
  Te  Te98  1  0.75949193  0.75095076  0.73461358  1
  Te  Te99  1  0.08687683  0.25724111  0.26630057  1
  Te  Te100  1  0.06922507  0.26111921  0.58491725  1
  Te  Te101  1  0.07279397  0.25644583  0.91590392  1
  Te  Te102  1  0.08065153  0.58495618  0.24362862  1
  Te  Te103  1  0.11783075  0.56752518  0.60161632  1
  Te  Te104  1  0.08829353  0.56085549  0.91454456  1
  Te  Te105  1  0.08196104  0.92873572  0.24707702  1
  Te  Te106  1  0.08657052  0.90398753  0.58506768  1
  Te  Te107  1  0.06759985  0.90013573  0.87350163  1
  Te  Te108  1  0.41863237  0.22105371  0.24828142  1
  Te  Te109  1  0.38124010  0.24838981  0.56879877  1
  Te  Te110  1  0.42385084  0.22793398  0.89941330  1
  Te  Te111  1  0.44254465  0.58058559  0.26875578  1
  Te  Te112  1  0.39533676  0.57293199  0.58554024  1
  Te  Te113  1  0.41361814  0.58991334  0.92076724  1
  Te  Te114  1  0.42254974  0.93441839  0.25380484  1
  Te  Te115  1  0.42234982  0.91988586  0.59516226  1
  Te  Te116  1  0.42275527  0.93417286  0.90410007  1
  Te  Te117  1  0.76605623  0.23595496  0.25081442  1
  Te  Te118  1  0.73196938  0.27701659  0.62905646  1
  Te  Te119  1  0.75937914  0.26456453  0.87796627  1
  Te  Te120  1  0.75020118  0.58033522  0.25001547  1
  Te  Te121  1  0.74121179  0.55786553  0.56172258  1
  Te  Te122  1  0.75271878  0.58699403  0.88374636  1
  Te  Te123  1  0.75414104  0.91515657  0.25493347  1
  Te  Te124  1  0.73081806  0.90181345  0.59198609  1
  Te  Te125  1  0.76077354  0.92215882  0.92152987  1
  Te  Te126  1  0.26040695  0.26083601  0.07634551  1
  Te  Te127  1  0.27446018  0.24391278  0.45655053  1
  Te  Te128  1  0.25041658  0.22721360  0.77425138  1
  Te  Te129  1  0.26980366  0.58712541  0.08375852  1
  Te  Te130  1  0.25498330  0.58290275  0.41134417  1
  Te  Te131  1  0.23356440  0.56649272  0.74431697  1
  Te  Te132  1  0.23397239  0.92475339  0.05209159  1
  Te  Te133  1  0.26965997  0.92186915  0.42921828  1
  Te  Te134  1  0.23998894  0.93388720  0.74593631  1
  Te  Te135  1  0.58569776  0.26574419  0.07160756  1
  Te  Te136  1  0.58394349  0.25548511  0.42818521  1
  Te  Te137  1  0.54684085  0.22719738  0.73182354  1
  Te  Te138  1  0.57721624  0.58673086  0.08827840  1
  Te  Te139  1  0.60647411  0.55260060  0.43356315  1
  Te  Te140  1  0.57535824  0.58608893  0.75810044  1
  Te  Te141  1  0.58208928  0.91585973  0.07456234  1
  Te  Te142  1  0.59047538  0.92709669  0.41573017  1
  Te  Te143  1  0.57720820  0.93361364  0.76058418  1
  Te  Te144  1  0.90530913  0.25670257  0.07652152  1
  Te  Te145  1  0.89516131  0.25697011  0.44562537  1
  Te  Te146  1  0.95908878  0.24518642  0.76966299  1
  Te  Te147  1  0.90445344  0.58940417  0.08821884  1
  Te  Te148  1  0.93473283  0.57821464  0.42767051  1
  Te  Te149  1  0.91400154  0.60443025  0.72632694  1
  Te  Te150  1  0.92657813  0.90258088  0.08441312  1
  Te  Te151  1  0.93947899  0.93616808  0.42579190  1
  Te  Te152  1  0.93297795  0.90452602  0.74992244  1
  Te  Te153  1  0.25324136  0.11911398  0.23073087  1
  Te  Te154  1  0.25773364  0.08358189  0.61071553  1
  Te  Te155  1  0.24048005  0.10088724  0.88813053  1
  Te  Te156  1  0.25525771  0.41376897  0.24431412  1
  Te  Te157  1  0.22843517  0.41675880  0.60635667  1
  Te  Te158  1  0.23422314  0.40246463  0.89514710  1
  Te  Te159  1  0.25288401  0.78043841  0.25323639  1
  Te  Te160  1  0.18906241  0.70346675  0.57204604  1
  Te  Te161  1  0.26367434  0.75244026  0.94081282  1
  Te  Te162  1  0.53987292  0.12624723  0.27523543  1
  Te  Te163  1  0.55596345  0.10653984  0.57559628  1
  Te  Te164  1  0.60884195  0.07513057  0.92282668  1
  Te  Te165  1  0.58522485  0.39661227  0.24518224  1
  Te  Te166  1  0.59681609  0.40230246  0.59878860  1
  Te  Te167  1  0.58526587  0.40273165  0.88988541  1
  Te  Te168  1  0.58546522  0.74427251  0.26899444  1
  Te  Te169  1  0.56625764  0.72242590  0.58385109  1
  Te  Te170  1  0.58088510  0.75345014  0.90403879  1
  Te  Te171  1  0.91943459  0.09319823  0.25937920  1
  Te  Te172  1  0.89226646  0.07644535  0.58552019  1
  Te  Te173  1  0.91010366  0.08802731  0.93219080  1
  Te  Te174  1  0.91849915  0.42611280  0.25152089  1
  Te  Te175  1  0.90240526  0.43461756  0.62661516  1
  Te  Te176  1  0.91367261  0.42953694  0.88712503  1
  Te  Te177  1  0.94864489  0.74389273  0.25118068  1
  Te  Te178  1  0.95991064  0.70801465  0.62168863  1
  Te  Te179  1  0.91790412  0.71639428  0.89041840  1
