# generated using pymatgen
data_In2Te3
_symmetry_space_group_name_H-M   'P 1'
_cell_length_a   19.03044483
_cell_length_b   19.01558092
_cell_length_c   19.00814552
_cell_angle_alpha   90.13918842
_cell_angle_beta   89.98134458
_cell_angle_gamma   90.11029437
_symmetry_Int_Tables_number   1
_chemical_formula_structural   In2Te3
_chemical_formula_sum   'In72 Te108'
_cell_volume   6878.53857330
_cell_formula_units_Z   36
loop_
 _symmetry_equiv_pos_site_id
 _symmetry_equiv_pos_as_xyz
  1  'x, y, z'
loop_
 _atom_site_type_symbol
 _atom_site_label
 _atom_site_symmetry_multiplicity
 _atom_site_fract_x
 _atom_site_fract_y
 _atom_site_fract_z
 _atom_site_occupancy
  In  In0  1  0.49604393  0.13963265  0.32777903  1
  In  In1  1  0.51762358  -0.01818815  0.13819816  1
  In  In2  1  0.80403156  0.67994409  0.81996087  1
  In  In3  1  0.49835083  0.14727960  0.65518116  1
  In  In4  1  0.68051225  0.51927197  0.49407681  1
  In  In5  1  0.84928864  0.67576728  0.50081885  1
  In  In6  1  0.66250121  0.15020981  0.48613500  1
  In  In7  1  0.33675724  0.49205173  0.14199133  1
  In  In8  1  0.33353364  0.15313717  0.17226867  1
  In  In9  1  0.16627173  0.00995225  0.82117308  1
  In  In10  1  0.47745903  0.69334697  0.53108991  1
  In  In11  1  0.87075029  0.20411644  0.69417002  1
  In  In12  1  0.84251623  0.83053938  0.34026457  1
  In  In13  1  0.20401383  0.50195770  -0.01031375  1
  In  In14  1  0.15216793  0.34514664  0.50960787  1
  In  In15  1  0.15006931  0.47729266  0.35667026  1
  In  In16  1  0.18277223  0.84126104  0.01107782  1
  In  In17  1  -0.00482285  0.83732864  0.50805645  1
  In  In18  1  0.70081377  0.31833839  0.31821010  1
  In  In19  1  0.51501080  0.47910482  0.33826032  1
  In  In20  1  0.33255785  0.84196994  0.48840017  1
  In  In21  1  -0.00686536  0.66763759  0.02959426  1
  In  In22  1  0.49519893  0.32599469  0.81974345  1
  In  In23  1  -0.01772155  0.83708054  0.18118855  1
  In  In24  1  0.50523306  0.50146934  -0.02249367  1
  In  In25  1  0.82388921  0.67389747  0.18301624  1
  In  In26  1  -0.04735769  -0.01403880  0.68040835  1
  In  In27  1  0.32049187  0.65156155  0.66911936  1
  In  In28  1  0.16271229  0.19294933  -0.01247887  1
  In  In29  1  0.50315978  0.67808986  0.16261301  1
  In  In30  1  0.68776468  0.67239608  0.30540740  1
  In  In31  1  0.14888103  0.15782921  0.67903637  1
  In  In32  1  0.35538398  0.34895564  -0.02122879  1
  In  In33  1  0.00272631  0.17745802  0.14901573  1
  In  In34  1  -0.00229373  0.50613372  0.18138995  1
  In  In35  1  0.32263810  0.30957169  0.33931044  1
  In  In36  1  0.66817527  -0.01513606  0.32268171  1
  In  In37  1  0.48154592  0.31667520  0.50225300  1
  In  In38  1  0.13558374  0.65473656  0.50936657  1
  In  In39  1  -0.00585367  0.34053020  0.00534202  1
  In  In40  1  0.64740276  0.34486343  0.66478943  1
  In  In41  1  0.00179274  0.00914004  0.33833855  1
  In  In42  1  0.32032278  0.00766176  0.32863198  1
  In  In43  1  0.18933007  0.63769237  0.16820193  1
  In  In44  1  0.66835425  0.19547236  0.12075438  1
  In  In45  1  0.16461952  0.68949780  0.83775881  1
  In  In46  1  0.16748460  0.84591157  0.67822435  1
  In  In47  1  0.85735040  0.00671566  0.10658555  1
  In  In48  1  0.68244871  0.51350386  0.81651125  1
  In  In49  1  0.15933474  0.32484981  0.17380845  1
  In  In50  1  0.71590823  0.01507002  0.69425724  1
  In  In51  1  -0.00129104  0.15712078  0.49955521  1
  In  In52  1  -0.00936933  0.83122365  0.81960465  1
  In  In53  1  0.15280745  0.00718297  0.16676922  1
  In  In54  1  0.46414416  0.51841798  0.73086925  1
  In  In55  1  0.81386076  0.84287198  -0.00966136  1
  In  In56  1  0.36115438  -0.02534365  -0.02089102  1
  In  In57  1  0.67340050  0.50273537  0.16381173  1
  In  In58  1  0.66309163  0.85484246  0.14534519  1
  In  In59  1  0.83308708  0.34881525  0.15315073  1
  In  In60  1  0.49401055  -0.01375555  0.47904359  1
  In  In61  1  0.52211678  0.67916855  0.82584162  1
  In  In62  1  0.33296687  0.16628218  0.81845885  1
  In  In63  1  0.12968662  0.50794290  0.66238557  1
  In  In64  1  0.83605319  0.49009862  0.66815014  1
  In  In65  1  0.53472848  0.84099577  0.70264049  1
  In  In66  1  0.33566641  0.00983878  0.67337634  1
  In  In67  1  0.84569156  0.31878839  0.51450962  1
  In  In68  1  0.32662336  0.64707947  0.34312129  1
  In  In69  1  0.67876418  0.18794813  0.88441221  1
  In  In70  1  0.00031038  0.50154867  0.83644451  1
  In  In71  1  0.36767115  0.82560000  0.17201905  1
  Te  Te72  1  0.08072253  0.08346342  0.05902003  1
  Te  Te73  1  0.09784679  0.07873740  0.42473019  1
  Te  Te74  1  0.04837130  0.07937859  0.76159898  1
  Te  Te75  1  0.09953331  0.43192388  0.08396998  1
  Te  Te76  1  0.04390438  0.41448745  0.43459589  1
  Te  Te77  1  0.06231166  0.40042392  0.74591197  1
  Te  Te78  1  0.09747506  0.74763859  0.10506931  1
  Te  Te79  1  0.07569947  0.75197182  0.42041709  1
  Te  Te80  1  0.07243050  0.73986159  0.73013824  1
  Te  Te81  1  0.42043464  0.07905272  0.07312951  1
  Te  Te82  1  0.39873194  0.09283573  0.43138778  1
  Te  Te83  1  0.43610984  0.06685417  0.77087240  1
  Te  Te84  1  0.44766610  0.40868950  0.08420727  1
  Te  Te85  1  0.40300492  0.41427174  0.41553768  1
  Te  Te86  1  0.40063834  0.38750140  0.72780812  1
  Te  Te87  1  0.43951941  0.76235964  0.05990793  1
  Te  Te88  1  0.41993124  0.75087226  0.40393563  1
  Te  Te89  1  0.41593648  0.74701934  0.73620363  1
  Te  Te90  1  0.72164987  0.06329593  0.05466589  1
  Te  Te91  1  0.75335361  0.07533521  0.40041123  1
  Te  Te92  1  0.77856715  0.12315385  0.78095271  1
  Te  Te93  1  0.72916368  0.40588143  0.06438518  1
  Te  Te94  1  0.75708893  0.40722306  0.42481291  1
  Te  Te95  1  0.75804060  0.39458669  0.75569051  1
  Te  Te96  1  0.74061910  0.74216759  0.07686818  1
  Te  Te97  1  0.74168240  0.75506375  0.42103145  1
  Te  Te98  1  0.73935272  0.79371912  0.75076824  1
  Te  Te99  1  0.05834296  0.26072243  0.25775407  1
  Te  Te100  1  0.06666296  0.25170607  0.59458331  1
  Te  Te101  1  0.05029114  0.24408800  0.90643914  1
  Te  Te102  1  0.08991782  0.58706161  0.27025620  1
  Te  Te103  1  0.03115387  0.57722989  0.57640675  1
  Te  Te104  1  0.09128482  0.59413141  0.93840255  1
  Te  Te105  1  0.08791469  0.90836103  0.26038441  1
  Te  Te106  1  0.07185244  0.93159737  0.60069090  1
  Te  Te107  1  0.09476973  0.90649505  0.90712060  1
  Te  Te108  1  0.42591124  0.24721783  0.24622941  1
  Te  Te109  1  0.40162375  0.24107598  0.59767127  1
  Te  Te110  1  0.42832835  0.23058057  0.91993396  1
  Te  Te111  1  0.42495646  0.57297841  0.24578981  1
  Te  Te112  1  0.41739114  0.57047254  0.58667226  1
  Te  Te113  1  0.42146735  0.56773008  0.87199715  1
  Te  Te114  1  0.43121305  0.93319194  0.25697023  1
  Te  Te115  1  0.42145825  0.91184605  0.59124122  1
  Te  Te116  1  0.45469642  0.87560089  0.92209551  1
  Te  Te117  1  0.77293484  0.22618060  0.22418011  1
  Te  Te118  1  0.73037833  0.24602997  0.58518916  1
  Te  Te119  1  0.76637223  0.27668587  0.96472927  1
  Te  Te120  1  0.77572748  0.54835349  0.26996949  1
  Te  Te121  1  0.75562413  0.59752117  0.59750083  1
  Te  Te122  1  0.73454521  0.60081546  0.92128954  1
  Te  Te123  1  0.77485433  0.91223735  0.23093851  1
  Te  Te124  1  0.78756206  0.89482324  0.64167001  1
  Te  Te125  1  0.74922847  0.89542506  0.86777850  1
  Te  Te126  1  0.26547973  0.26263155  0.08344605  1
  Te  Te127  1  0.22066239  0.24803809  0.42071263  1
  Te  Te128  1  0.22147918  0.24632508  0.77355592  1
  Te  Te129  1  0.29055570  0.60737991  0.05744671  1
  Te  Te130  1  0.24104433  0.56945444  0.43831258  1
  Te  Te131  1  0.22999427  0.57635769  0.76216051  1
  Te  Te132  1  0.26956442  0.92866689  0.10709841  1
  Te  Te133  1  0.23807919  0.92055581  0.41157206  1
  Te  Te134  1  0.26898500  0.91133321  0.76852099  1
  Te  Te135  1  0.57459385  0.22434792  0.01046915  1
  Te  Te136  1  0.58298892  0.24964289  0.40142558  1
  Te  Te137  1  0.59078361  0.22545122  0.74940890  1
  Te  Te138  1  0.58607376  0.58752021  0.07386065  1
  Te  Te139  1  0.58966344  0.59518349  0.39890457  1
  Te  Te140  1  0.59525654  0.59324855  0.72310915  1
  Te  Te141  1  0.59072258  0.91054970  0.02602086  1
  Te  Te142  1  0.60118109  0.90444986  0.42430843  1
  Te  Te143  1  0.60484749  0.95281366  0.77001430  1
  Te  Te144  1  0.88931751  0.22662888  0.04704551  1
  Te  Te145  1  0.89444418  0.22121302  0.41799880  1
  Te  Te146  1  0.95180621  0.29482949  0.77544230  1
  Te  Te147  1  0.89548999  0.57241552  0.09130789  1
  Te  Te148  1  0.87090585  0.58749716  0.38794413  1
  Te  Te149  1  0.90907521  0.59087339  0.75500242  1
  Te  Te150  1  0.94553324  0.89575543  0.05018441  1
  Te  Te151  1  0.90668218  0.93341987  0.42938960  1
  Te  Te152  1  0.89906624  0.94782876  0.81457455  1
  Te  Te153  1  0.22205491  0.10534082  0.25889032  1
  Te  Te154  1  0.23606100  0.07607487  0.59277228  1
  Te  Te155  1  0.25472027  0.07897944  0.93040964  1
  Te  Te156  1  0.25290714  0.42609989  0.24836154  1
  Te  Te157  1  0.23404892  0.43371996  0.59311322  1
  Te  Te158  1  0.24119021  0.39308578  0.90057737  1
  Te  Te159  1  0.26159790  0.74547125  0.24892083  1
  Te  Te160  1  0.24498420  0.75496960  0.58189130  1
  Te  Te161  1  0.26279818  0.76163891  0.91815193  1
  Te  Te162  1  0.59457273  0.08681050  0.22549946  1
  Te  Te163  1  0.59486883  0.05376647  0.58155201  1
  Te  Te164  1  0.60231430  0.07855744  0.94752010  1
  Te  Te165  1  0.59590799  0.39662292  0.24148777  1
  Te  Te166  1  0.57855457  0.42282172  0.55699707  1
  Te  Te167  1  0.59320319  0.41484425  0.89256114  1
  Te  Te168  1  0.58762935  0.77046532  0.24651816  1
  Te  Te169  1  0.58697651  0.77375839  0.58276660  1
  Te  Te170  1  0.57736725  0.78039117  0.91618754  1
  Te  Te171  1  0.92181335  0.07395283  0.22497224  1
  Te  Te172  1  0.89384070  0.09477237  0.59402694  1
  Te  Te173  1  0.85671775  0.08703171  0.98169032  1
  Te  Te174  1  0.93238535  0.39387717  0.25006048  1
  Te  Te175  1  0.92941141  0.42941514  0.57049440  1
  Te  Te176  1  0.91296792  0.43964879  0.93488710  1
  Te  Te177  1  0.93284401  0.72829948  0.27352640  1
  Te  Te178  1  0.89711514  0.77574871  0.60063128  1
  Te  Te179  1  0.91624886  0.73845995  0.92120283  1
