# generated using pymatgen
data_In2Te3
_symmetry_space_group_name_H-M   'P 1'
_cell_length_a   18.79857438
_cell_length_b   18.80123673
_cell_length_c   18.79368242
_cell_angle_alpha   89.94390403
_cell_angle_beta   90.02630191
_cell_angle_gamma   89.93418416
_symmetry_Int_Tables_number   1
_chemical_formula_structural   In2Te3
_chemical_formula_sum   'In72 Te108'
_cell_volume   6642.36407094
_cell_formula_units_Z   36
loop_
 _symmetry_equiv_pos_site_id
 _symmetry_equiv_pos_as_xyz
  1  'x, y, z'
loop_
 _atom_site_type_symbol
 _atom_site_label
 _atom_site_symmetry_multiplicity
 _atom_site_fract_x
 _atom_site_fract_y
 _atom_site_fract_z
 _atom_site_occupancy
  In  In0  1  -0.01633179  0.50035337  0.52924070  1
  In  In1  1  0.50303537  0.69496356  0.51445927  1
  In  In2  1  0.35528850  0.33282655  -0.00714815  1
  In  In3  1  -0.02733740  0.32821126  0.67543980  1
  In  In4  1  0.81268459  0.64585857  0.50978075  1
  In  In5  1  -0.00960761  -0.00834855  0.00708160  1
  In  In6  1  0.65397485  0.47311299  0.14177911  1
  In  In7  1  0.15787574  0.33768006  0.81169568  1
  In  In8  1  0.48648396  0.53087277  -0.02387802  1
  In  In9  1  0.31826922  0.32886479  0.65857227  1
  In  In10  1  0.32998534  0.51808506  0.83595897  1
  In  In11  1  0.53415375  0.83552050  0.33562556  1
  In  In12  1  0.01479427  0.67297317  0.00424558  1
  In  In13  1  0.48943868  -0.00496146  0.82646122  1
  In  In14  1  -0.02112014  0.15423624  0.17281825  1
  In  In15  1  0.00676643  0.14079433  0.51707400  1
  In  In16  1  0.82301532  0.14544518  0.33132910  1
  In  In17  1  0.66793709  0.81502527  0.18766696  1
  In  In18  1  0.17238258  -0.01231072  0.81554217  1
  In  In19  1  0.65608225  0.28097282  0.35457671  1
  In  In20  1  0.66946855  0.00846317  -0.00222521  1
  In  In21  1  0.84263311  0.65599558  0.15115917  1
  In  In22  1  -0.00869854  0.34312807  0.31872570  1
  In  In23  1  0.16953693  -0.02033036  0.17220046  1
  In  In24  1  0.02092111  0.82711104  0.83878259  1
  In  In25  1  0.82570391  0.00803557  0.82072842  1
  In  In26  1  0.82266122  0.15809267  0.66556087  1
  In  In27  1  0.02581392  0.72507689  0.36754770  1
  In  In28  1  0.52075524  0.31050655  0.81870990  1
  In  In29  1  0.17824099  0.14133793  0.34579315  1
  In  In30  1  -0.01084076  0.33411913  -0.03108583  1
  In  In31  1  0.15263888  0.00280825  0.50867284  1
  In  In32  1  0.34851981  0.14266197  0.51763550  1
  In  In33  1  0.33201674  0.82976808  0.15756708  1
  In  In34  1  0.50731005  0.32531070  0.15765281  1
  In  In35  1  -0.01389635  0.50556675  0.17784320  1
  In  In36  1  0.67804988  0.49744577  0.52635318  1
  In  In37  1  0.67803860  0.32113467  -0.01567617  1
  In  In38  1  0.66341661  0.83252871  0.52452825  1
  In  In39  1  0.66028143  0.67253465  -0.01570136  1
  In  In40  1  0.15619907  0.51873845  0.00195051  1
  In  In41  1  0.34498310  0.86671076  0.53124797  1
  In  In42  1  0.19051144  0.34885701  0.51262132  1
  In  In43  1  0.50642531  0.49303994  0.66337967  1
  In  In44  1  0.83632372  0.49946176  0.33535502  1
  In  In45  1  0.49250630  0.82968362  -0.00159856  1
  In  In46  1  0.67090590  0.48918971  0.80029056  1
  In  In47  1  0.17967869  0.32904018  0.16021431  1
  In  In48  1  0.50602523  0.15067904  -0.00062163  1
  In  In49  1  0.82901680  0.84966534  0.66524539  1
  In  In50  1  0.33034735  0.49893296  0.47778090  1
  In  In51  1  0.33264418  0.69458509  0.68570158  1
  In  In52  1  0.83190646  0.30790728  0.51534581  1
  In  In53  1  0.86641286  0.86199592  0.35656419  1
  In  In54  1  0.35401529  0.33289845  0.31985440  1
  In  In55  1  0.50233141  0.02291568  0.17338456  1
  In  In56  1  0.34614866  0.00979401  0.35594598  1
  In  In57  1  0.18108177  0.65747795  0.16922949  1
  In  In58  1  0.01366125  0.68137569  0.66353092  1
  In  In59  1  0.65858897  0.86601035  0.82339808  1
  In  In60  1  0.18399630  0.49741891  0.34025841  1
  In  In61  1  0.66080818  0.00491944  0.35411823  1
  In  In62  1  0.16817769  0.14929653  0.66101767  1
  In  In63  1  0.50872905  0.15063464  0.67791210  1
  In  In64  1  0.83519925  0.67333123  0.84906435  1
  In  In65  1  0.32674909  0.67060062  0.33059727  1
  In  In66  1  0.82131529  0.15817900  -0.00795564  1
  In  In67  1  0.65533820  0.68217507  0.32610477  1
  In  In68  1  0.00187285  0.83799188  0.15672718  1
  In  In69  1  -0.00414064  0.49916006  0.84168906  1
  In  In70  1  0.48556310  0.50769986  0.33688375  1
  In  In71  1  0.18178029  0.16796027  -0.01920315  1
  Te  Te72  1  0.08964088  0.09283263  0.08596388  1
  Te  Te73  1  0.06080466  0.06179995  0.39671730  1
  Te  Te74  1  0.07376035  0.06872180  0.73940410  1
  Te  Te75  1  0.07409395  0.41098539  0.08489230  1
  Te  Te76  1  0.07755010  0.41647951  0.42291536  1
  Te  Te77  1  0.07401734  0.43096895  0.72735526  1
  Te  Te78  1  0.11135425  0.76141402  0.07900827  1
  Te  Te79  1  0.10275049  0.78742876  0.47708142  1
  Te  Te80  1  0.11545288  0.77399133  0.73070008  1
  Te  Te81  1  0.41112792  0.05477362  0.06132254  1
  Te  Te82  1  0.44017255  0.11941110  0.39804598  1
  Te  Te83  1  0.39769213  0.08835233  0.75520766  1
  Te  Te84  1  0.42684674  0.43105782  0.08232247  1
  Te  Te85  1  0.43553899  0.39763931  0.43195013  1
  Te  Te86  1  0.40865727  0.40852258  0.76245465  1
  Te  Te87  1  0.39502611  0.73475156  0.06154762  1
  Te  Te88  1  0.41345189  0.76790319  0.41498772  1
  Te  Te89  1  0.40328472  0.80100285  0.76283044  1
  Te  Te90  1  0.75422535  0.07737173  0.09608901  1
  Te  Te91  1  0.75955779  0.07175339  0.44363651  1
  Te  Te92  1  0.72396256  0.06667758  0.73240632  1
  Te  Te93  1  0.76273499  0.41261632  0.06576052  1
  Te  Te94  1  0.75167843  0.40481767  0.41830983  1
  Te  Te95  1  0.78185194  0.41382978  0.74064396  1
  Te  Te96  1  0.75270922  0.75350803  0.07584759  1
  Te  Te97  1  0.75263690  0.76062547  0.41390727  1
  Te  Te98  1  0.74767926  0.75796662  0.75714520  1
  Te  Te99  1  0.09342091  0.24564030  0.25593089  1
  Te  Te100  1  0.08455863  0.26223795  0.58398979  1
  Te  Te101  1  0.07602648  0.23599011  0.89083394  1
  Te  Te102  1  0.07947949  0.58907998  0.26349736  1
  Te  Te103  1  0.09045751  0.58991533  0.57453491  1
  Te  Te104  1  0.09608740  0.60685411  0.89323434  1
  Te  Te105  1  0.07828171  0.90780817  0.26335302  1
  Te  Te106  1  0.06002708  0.90357008  0.57256332  1
  Te  Te107  1  0.10007251  0.91486410  0.93664077  1
  Te  Te108  1  0.42044172  0.23336727  0.23421123  1
  Te  Te109  1  0.42624865  0.25368108  0.58808964  1
  Te  Te110  1  0.41915151  0.23112149  0.90047236  1
  Te  Te111  1  0.40479731  0.58408757  0.24077328  1
  Te  Te112  1  0.41454111  0.58696954  0.57683385  1
  Te  Te113  1  0.39897826  0.62892799  0.90647796  1
  Te  Te114  1  0.42385872  0.91507470  0.25819610  1
  Te  Te115  1  0.45279962  0.94504592  0.60008390  1
  Te  Te116  1  0.39979637  0.89533799  0.89941680  1
  Te  Te117  1  0.75197330  0.24670467  0.25015736  1
  Te  Te118  1  0.72266287  0.23251303  0.57994521  1
  Te  Te119  1  0.75245875  0.23835795  0.88682073  1
  Te  Te120  1  0.74220716  0.58136008  0.24391795  1
  Te  Te121  1  0.72357630  0.60300735  0.61911785  1
  Te  Te122  1  0.74576424  0.56897998  0.91445565  1
  Te  Te123  1  0.75110795  0.91387789  0.26723959  1
  Te  Te124  1  0.74974230  0.94176602  0.57774690  1
  Te  Te125  1  0.76273142  0.91254075  0.92380670  1
  Te  Te126  1  0.27448757  0.23890509  0.08362025  1
  Te  Te127  1  0.25995553  0.24847576  0.42081740  1
  Te  Te128  1  0.25389377  0.23264846  0.75676216  1
  Te  Te129  1  0.26586551  0.59279209  0.06628683  1
  Te  Te130  1  0.23147595  0.60817760  0.43265028  1
  Te  Te131  1  0.24029517  0.59550729  0.74887619  1
  Te  Te132  1  0.26629237  0.93117095  0.07109594  1
  Te  Te133  1  0.24611406  0.91755894  0.41973619  1
  Te  Te134  1  0.27292773  0.89042424  0.74679827  1
  Te  Te135  1  0.60295466  0.23229137  0.08425130  1
  Te  Te136  1  0.57053161  0.19825103  0.43975796  1
  Te  Te137  1  0.61459776  0.24893071  0.72155453  1
  Te  Te138  1  0.57715941  0.59173331  0.08456069  1
  Te  Te139  1  0.58726927  0.58751680  0.42648063  1
  Te  Te140  1  0.56439553  0.58420343  0.76386302  1
  Te  Te141  1  0.58568979  0.90998287  0.09306625  1
  Te  Te142  1  0.56024156  0.93029637  0.45080385  1
  Te  Te143  1  0.56814406  0.92388629  0.71730420  1
  Te  Te144  1  0.91509216  0.25132586  0.07473062  1
  Te  Te145  1  0.93158480  0.24300386  0.41787457  1
  Te  Te146  1  0.89567632  0.24145688  0.76674232  1
  Te  Te147  1  0.91765084  0.56528432  0.05402580  1
  Te  Te148  1  0.92756071  0.59106747  0.41517652  1
  Te  Te149  1  0.91857736  0.59493324  0.74936631  1
  Te  Te150  1  0.89654475  0.92277263  0.09683146  1
  Te  Te151  1  0.93999470  0.91818655  0.47196764  1
  Te  Te152  1  0.93276965  0.91938014  0.75343479  1
  Te  Te153  1  0.26825799  0.07852533  0.24255891  1
  Te  Te154  1  0.26581125  0.04794038  0.60304267  1
  Te  Te155  1  0.26065637  0.07244964  0.90148286  1
  Te  Te156  1  0.26849978  0.42897172  0.23417303  1
  Te  Te157  1  0.25014358  0.45328772  0.60366508  1
  Te  Te158  1  0.23652357  0.40678256  0.92492403  1
  Te  Te159  1  0.23369626  0.76845568  0.25982309  1
  Te  Te160  1  0.24999334  0.76217589  0.57831743  1
  Te  Te161  1  0.21306763  0.80056124  0.84992303  1
  Te  Te162  1  0.59632502  0.09838472  0.25792607  1
  Te  Te163  1  0.54966331  0.06322011  0.56317308  1
  Te  Te164  1  0.59576434  0.08820370  0.89272754  1
  Te  Te165  1  0.58620761  0.41226006  0.26582069  1
  Te  Te166  1  0.59241741  0.39710391  0.59109740  1
  Te  Te167  1  0.57373585  0.41528157  0.91839452  1
  Te  Te168  1  0.54732511  0.72830134  0.22848440  1
  Te  Te169  1  0.58584101  0.75104762  0.62193015  1
  Te  Te170  1  0.57541743  0.75660293  0.89098364  1
  Te  Te171  1  0.91619194  0.05372282  0.25920868  1
  Te  Te172  1  0.90126741  0.05942090  0.58033574  1
  Te  Te173  1  0.92708511  0.08512090  0.90666221  1
  Te  Te174  1  0.88500170  0.40130243  0.22756502  1
  Te  Te175  1  0.87027885  0.43190394  0.60958878  1
  Te  Te176  1  0.88931441  0.39989903  0.87759707  1
  Te  Te177  1  0.91102425  0.74483327  0.25465925  1
  Te  Te178  1  0.90412895  0.74725132  0.57817276  1
  Te  Te179  1  0.91699758  0.76780951  0.93607056  1
