# generated using pymatgen
data_In2Te3
_symmetry_space_group_name_H-M   'P 1'
_cell_length_a   18.73324496
_cell_length_b   18.73223543
_cell_length_c   18.73338817
_cell_angle_alpha   89.92817468
_cell_angle_beta   90.03550963
_cell_angle_gamma   89.98013360
_symmetry_Int_Tables_number   1
_chemical_formula_structural   In2Te3
_chemical_formula_sum   'In72 Te108'
_cell_volume   6573.83047961
_cell_formula_units_Z   36
loop_
 _symmetry_equiv_pos_site_id
 _symmetry_equiv_pos_as_xyz
  1  'x, y, z'
loop_
 _atom_site_type_symbol
 _atom_site_label
 _atom_site_symmetry_multiplicity
 _atom_site_fract_x
 _atom_site_fract_y
 _atom_site_fract_z
 _atom_site_occupancy
  In  In0  1  0.01880944  0.35261342  0.33140389  1
  In  In1  1  0.31709544  0.32404705  -0.00342062  1
  In  In2  1  0.69658453  0.49175166  0.83437387  1
  In  In3  1  -0.00400278  0.17893856  0.84572555  1
  In  In4  1  -0.00398759  0.49920392  0.83991177  1
  In  In5  1  0.49551794  0.17508122  0.33339314  1
  In  In6  1  0.16214481  -0.01858679  0.16967045  1
  In  In7  1  0.48816619  0.48812945  0.34264176  1
  In  In8  1  0.33553345  0.67084426  -0.00782729  1
  In  In9  1  0.48901556  0.85716803  0.63918612  1
  In  In10  1  0.02803890  0.16144590  0.49814040  1
  In  In11  1  0.49144905  -0.00184974  0.53073198  1
  In  In12  1  0.33498167  0.18931656  0.49721682  1
  In  In13  1  0.83811525  0.35619174  0.18744063  1
  In  In14  1  -0.00950348  -0.02892232  0.00520710  1
  In  In15  1  0.16231984  0.17920382  0.63819326  1
  In  In16  1  0.67534851  0.82964639  0.14915547  1
  In  In17  1  0.30983747  0.81257618  0.84928059  1
  In  In18  1  0.65587810  0.80577167  0.49660356  1
  In  In19  1  0.68780014  0.85718470  0.87108087  1
  In  In20  1  0.49949891  0.82825644  0.01616085  1
  In  In21  1  0.17742183  0.17757805  0.00892554  1
  In  In22  1  0.51874737  0.51682357  -0.00627381  1
  In  In23  1  0.50171858  0.68131139  0.82943589  1
  In  In24  1  0.67552063  0.01205373  0.67092696  1
  In  In25  1  0.16567339  0.67789328  0.18128669  1
  In  In26  1  0.48373921  0.49886306  0.66332711  1
  In  In27  1  0.82921405  0.18046343  0.01178304  1
  In  In28  1  0.32405358  0.65027532  0.64410242  1
  In  In29  1  0.66653007  0.33377091  0.32481408  1
  In  In30  1  0.85997401  -0.00321585  0.49949030  1
  In  In31  1  0.01202784  0.50697749  0.50104429  1
  In  In32  1  0.83771446  -0.01163552  0.13435785  1
  In  In33  1  0.64792696  0.32168682  0.69782546  1
  In  In34  1  0.33927448  0.16297991  0.85687296  1
  In  In35  1  0.50092226  0.33539803  0.18005986  1
  In  In36  1  0.31191299  0.35407123  0.34213561  1
  In  In37  1  0.82301071  0.17298002  0.69894452  1
  In  In38  1  0.12939613  0.48871498  0.01606228  1
  In  In39  1  0.83573138  0.35328288  0.50993319  1
  In  In40  1  0.46421339  0.81331123  0.35332941  1
  In  In41  1  0.86260733  0.50294740  0.00786091  1
  In  In42  1  0.65640284  -0.01278851  0.30943839  1
  In  In43  1  0.15057706  0.82959110  0.66284746  1
  In  In44  1  0.83678105  0.66217899  0.50332973  1
  In  In45  1  0.49484824  0.65487839  0.15770757  1
  In  In46  1  -0.00380663  0.18491768  0.17589198  1
  In  In47  1  0.35478749  0.00106579  0.66547890  1
  In  In48  1  -0.00456888  0.82080096  0.83579175  1
  In  In49  1  0.49931874  0.15242799  -0.00628807  1
  In  In50  1  0.83435205  0.17411343  0.32269713  1
  In  In51  1  0.49016667  -0.00293608  0.16742815  1
  In  In52  1  0.02086436  0.81509315  0.49135672  1
  In  In53  1  0.66886852  0.67805446  0.64943647  1
  In  In54  1  0.02820903  -0.01365340  0.34373053  1
  In  In55  1  0.01426588  0.66121408  0.32218503  1
  In  In56  1  0.17189338  0.51003578  0.65360497  1
  In  In57  1  0.32688104  -0.01868210  0.02358363  1
  In  In58  1  0.85289204  0.66141083  0.84431550  1
  In  In59  1  0.85252846  0.82708222  0.66670987  1
  In  In60  1  0.32508249  0.35379109  0.64905812  1
  In  In61  1  0.29716654  -0.02090637  0.34470031  1
  In  In62  1  0.67874927  0.33466739  -0.00846046  1
  In  In63  1  0.84789635  0.66472088  0.16125706  1
  In  In64  1  0.51061223  0.01569644  0.83464494  1
  In  In65  1  0.67354470  0.65909089  0.31626638  1
  In  In66  1  -0.00424420  -0.03296079  0.67230096  1
  In  In67  1  0.65507875  0.18209089  0.47068446  1
  In  In68  1  0.32636997  0.48810255  0.18427866  1
  In  In69  1  0.66817943  0.50194231  0.49404300  1
  In  In70  1  0.17119070  0.34721731  0.83073065  1
  In  In71  1  0.12546431  -0.02230684  0.83753932  1
  Te  Te72  1  0.07377976  0.08469965  0.07708853  1
  Te  Te73  1  0.11591050  0.09269510  0.39939436  1
  Te  Te74  1  0.07952747  0.09262716  0.74556654  1
  Te  Te75  1  0.06460013  0.37138386  0.07715095  1
  Te  Te76  1  0.11412825  0.42702438  0.42329600  1
  Te  Te77  1  0.07873613  0.41679532  0.73462081  1
  Te  Te78  1  0.11888734  0.77746709  0.07960352  1
  Te  Te79  1  0.11665524  0.74355456  0.39921011  1
  Te  Te80  1  0.08145585  0.73486065  0.75321267  1
  Te  Te81  1  0.39649913  0.09673235  0.09380950  1
  Te  Te82  1  0.41758443  0.07129923  0.41325686  1
  Te  Te83  1  0.43579188  0.11291819  0.73913237  1
  Te  Te84  1  0.42203618  0.42521116  0.07953714  1
  Te  Te85  1  0.39409874  0.42903311  0.44440385  1
  Te  Te86  1  0.40513314  0.41569814  0.75681835  1
  Te  Te87  1  0.39628579  0.75870924  0.10369441  1
  Te  Te88  1  0.37349096  0.71853750  0.42534281  1
  Te  Te89  1  0.40752214  0.76082846  0.73831292  1
  Te  Te90  1  0.74034258  0.08776980  0.08652020  1
  Te  Te91  1  0.74952265  0.07162390  0.41431557  1
  Te  Te92  1  0.74171937  0.08165926  0.78560079  1
  Te  Te93  1  0.74880835  0.43030694  0.08696758  1
  Te  Te94  1  0.76286721  0.42810324  0.39741337  1
  Te  Te95  1  0.76426992  0.40300684  0.73783792  1
  Te  Te96  1  0.76446332  0.74835498  0.06486703  1
  Te  Te97  1  0.76262120  0.75172634  0.40274096  1
  Te  Te98  1  0.74505994  0.75889445  0.75535251  1
  Te  Te99  1  0.09779656  0.24432898  0.26510574  1
  Te  Te100  1  0.07357111  0.27892426  0.57632523  1
  Te  Te101  1  0.08228613  0.27384848  0.93412167  1
  Te  Te102  1  0.08750620  0.56034761  0.23538688  1
  Te  Te103  1  0.09714510  0.60918412  0.56971123  1
  Te  Te104  1  0.07449997  0.59325308  0.92695451  1
  Te  Te105  1  0.08351407  0.88435904  0.25169059  1
  Te  Te106  1  0.09045869  0.93464662  0.56016094  1
  Te  Te107  1  0.10393941  0.88016237  0.95162612  1
  Te  Te108  1  0.39391952  0.25533146  0.25258580  1
  Te  Te109  1  0.42401438  0.25774831  0.59222926  1
  Te  Te110  1  0.43345462  0.26807647  0.91400765  1
  Te  Te111  1  0.40411665  0.59408982  0.26562854  1
  Te  Te112  1  0.39997610  0.55772276  0.55261005  1
  Te  Te113  1  0.41404803  0.57724174  0.89871421  1
  Te  Te114  1  0.39879417  0.90739512  0.25012717  1
  Te  Te115  1  0.36854788  0.89570419  0.54507855  1
  Te  Te116  1  0.41743477  0.91484540  0.90944586  1
  Te  Te117  1  0.73951271  0.24198333  0.22597703  1
  Te  Te118  1  0.74937448  0.24376680  0.57524745  1
  Te  Te119  1  0.76696020  0.25796908  0.89995754  1
  Te  Te120  1  0.76275713  0.57034943  0.24132111  1
  Te  Te121  1  0.76105965  0.56812230  0.59749346  1
  Te  Te122  1  0.75182135  0.59008960  0.93395146  1
  Te  Te123  1  0.76550319  0.90432104  0.24901349  1
  Te  Te124  1  0.74896764  0.90798844  0.57673006  1
  Te  Te125  1  0.78460320  0.95602412  0.91655526  1
  Te  Te126  1  0.23868561  0.26866698  0.10861044  1
  Te  Te127  1  0.23082679  0.24684821  0.40953208  1
  Te  Te128  1  0.25041804  0.23762317  0.75562224  1
  Te  Te129  1  0.25076463  0.57933092  0.08587649  1
  Te  Te130  1  0.26626569  0.61698626  0.37550129  1
  Te  Te131  1  0.25232570  0.58443757  0.75516913  1
  Te  Te132  1  0.24354880  0.87619868  0.09124918  1
  Te  Te133  1  0.25008868  0.88372177  0.44758811  1
  Te  Te134  1  0.24999653  0.92248063  0.74967305  1
  Te  Te135  1  0.58036799  0.25328690  0.07949646  1
  Te  Te136  1  0.55551264  0.28659840  0.41959099  1
  Te  Te137  1  0.55928185  0.21571467  0.74395396  1
  Te  Te138  1  0.60616798  0.59345749  0.08494690  1
  Te  Te139  1  0.57554169  0.59454427  0.41492236  1
  Te  Te140  1  0.59216128  0.58475738  0.74934697  1
  Te  Te141  1  0.59271677  0.93562254  0.07131588  1
  Te  Te142  1  0.57520781  0.91717936  0.42027208  1
  Te  Te143  1  0.58607882  0.90452411  0.75042423  1
  Te  Te144  1  0.92813145  0.28374475  0.07861964  1
  Te  Te145  1  0.92155139  0.25312947  0.41779419  1
  Te  Te146  1  0.92440125  0.26766725  0.75042254  1
  Te  Te147  1  0.95488327  0.58555717  0.08949814  1
  Te  Te148  1  0.91333577  0.57711291  0.40410834  1
  Te  Te149  1  0.91930339  0.58281413  0.74060989  1
  Te  Te150  1  0.92425589  0.87233153  0.09737806  1
  Te  Te151  1  0.91865231  0.89373094  0.40714786  1
  Te  Te152  1  0.89336260  0.92647056  0.77690103  1
  Te  Te153  1  0.24829500  0.07600184  0.24444038  1
  Te  Te154  1  0.25649927  0.07859220  0.57356351  1
  Te  Te155  1  0.24010350  0.06068856  0.91639616  1
  Te  Te156  1  0.21136399  0.44021589  0.26721598  1
  Te  Te157  1  0.23409336  0.41955494  0.54898196  1
  Te  Te158  1  0.24899153  0.43862865  0.92300111  1
  Te  Te159  1  0.24952802  0.74049823  0.29277971  1
  Te  Te160  1  0.23373951  0.74542198  0.56963762  1
  Te  Te161  1  0.21891536  0.70887467  0.90438781  1
  Te  Te162  1  0.58469144  0.09933660  0.23507198  1
  Te  Te163  1  0.58607948  0.10489080  0.58672633  1
  Te  Te164  1  0.60979519  0.08995702  0.91549494  1
  Te  Te165  1  0.59302711  0.44036311  0.24095335  1
  Te  Te166  1  0.58587295  0.41267428  0.58656298  1
  Te  Te167  1  0.58224846  0.41363738  0.89995860  1
  Te  Te168  1  0.57208204  0.76479458  0.25120848  1
  Te  Te169  1  0.54736136  0.72930256  0.57137685  1
  Te  Te170  1  0.59586714  0.74669754  0.93047780  1
  Te  Te171  1  0.92200300  0.07027867  0.25187270  1
  Te  Te172  1  0.91997846  0.09234203  0.59983040  1
  Te  Te173  1  0.91205533  0.07571560  0.92358462  1
  Te  Te174  1  0.94520336  0.44557675  0.24013622  1
  Te  Te175  1  0.92441487  0.43183240  0.59659096  1
  Te  Te176  1  0.89533377  0.40588573  0.90016034  1
  Te  Te177  1  0.93810015  0.75970758  0.23749950  1
  Te  Te178  1  0.94222339  0.72944775  0.59267509  1
  Te  Te179  1  0.91126064  0.75803906  0.94088139  1
