# generated using pymatgen
data_In2Te3
_symmetry_space_group_name_H-M   'P 1'
_cell_length_a   18.76623613
_cell_length_b   18.76790558
_cell_length_c   18.75928057
_cell_angle_alpha   90.03012087
_cell_angle_beta   89.95417198
_cell_angle_gamma   89.98609695
_symmetry_Int_Tables_number   1
_chemical_formula_structural   In2Te3
_chemical_formula_sum   'In72 Te108'
_cell_volume   6607.07069648
_cell_formula_units_Z   36
loop_
 _symmetry_equiv_pos_site_id
 _symmetry_equiv_pos_as_xyz
  1  'x, y, z'
loop_
 _atom_site_type_symbol
 _atom_site_label
 _atom_site_symmetry_multiplicity
 _atom_site_fract_x
 _atom_site_fract_y
 _atom_site_fract_z
 _atom_site_occupancy
  In  In0  1  0.16921008  0.65309823  0.51119135  1
  In  In1  1  0.14789423  0.31548677  0.16472679  1
  In  In2  1  0.84349673  0.17128399  0.67594229  1
  In  In3  1  0.16248034  0.34460747  0.84652876  1
  In  In4  1  0.66421880  0.51354120  0.15056471  1
  In  In5  1  -0.00657906  0.50612527  0.83034382  1
  In  In6  1  0.17107662  0.84864649  0.32590878  1
  In  In7  1  0.50158229  0.51294239  0.33420898  1
  In  In8  1  0.31897748  0.34792437  0.01151293  1
  In  In9  1  0.82372548  0.67018037  0.83159002  1
  In  In10  1  0.65400797  0.33639671  -0.01016220  1
  In  In11  1  0.32998288  -0.00111487  0.67081874  1
  In  In12  1  0.85192752  0.70457563  0.16492593  1
  In  In13  1  0.32383869  0.15329646  0.84040603  1
  In  In14  1  0.15585396  0.50395127  0.66808920  1
  In  In15  1  0.51278875  0.32604431  0.52095277  1
  In  In16  1  0.16676857  0.14702779  0.66112348  1
  In  In17  1  0.01217596  -0.01167959  0.65986953  1
  In  In18  1  0.82506953  0.68747526  0.51225397  1
  In  In19  1  -0.02193690  0.85805439  0.47931877  1
  In  In20  1  0.50371829  0.82777592  0.33570429  1
  In  In21  1  0.65222637  0.65989263  -0.01623991  1
  In  In22  1  -0.00273290  0.16255638  0.48641390  1
  In  In23  1  0.16526111  0.00444151  0.15901898  1
  In  In24  1  0.50729469  0.35702331  0.83027133  1
  In  In25  1  0.33111986  0.51466195  0.15096495  1
  In  In26  1  0.67099893  -0.00046393  0.32947001  1
  In  In27  1  0.67695389  0.83353318  0.84930474  1
  In  In28  1  0.49473395  0.16734976  0.66974530  1
  In  In29  1  0.68047934  0.83681634  0.50072984  1
  In  In30  1  0.66988740  -0.01178875  0.65754610  1
  In  In31  1  0.82222769  0.15569317  0.00650186  1
  In  In32  1  0.34113178  0.51360880  0.51902717  1
  In  In33  1  0.14939068  0.83053909  0.00255193  1
  In  In34  1  0.00687242  0.33081603  -0.00912873  1
  In  In35  1  0.35254976  0.64795941  -0.01948025  1
  In  In36  1  0.66538725  0.00971652  0.00908155  1
  In  In37  1  0.81907967  0.33850413  0.18355260  1
  In  In38  1  0.66750552  0.34969619  0.66730877  1
  In  In39  1  0.67517508  0.16991037  0.50935122  1
  In  In40  1  0.34782259  0.66662724  0.67221457  1
  In  In41  1  0.00116108  0.67338627  0.00066782  1
  In  In42  1  0.51271597  0.16643493  -0.00608544  1
  In  In43  1  0.83327657  0.33066348  0.82443159  1
  In  In44  1  -0.00666597  0.66610112  0.32471299  1
  In  In45  1  0.34975910  0.87268736  0.85107421  1
  In  In46  1  0.65449665  0.65010354  0.69883140  1
  In  In47  1  0.31687192  0.32183218  0.34068430  1
  In  In48  1  0.82740244  0.49718135  0.34942407  1
  In  In49  1  0.34561541  0.16558494  0.14701895  1
  In  In50  1  0.36395886  0.33717212  0.67126107  1
  In  In51  1  0.47936174  0.11879609  0.36230636  1
  In  In52  1  0.50375435  0.33469985  0.14720269  1
  In  In53  1  0.50375199  -0.01764689  0.16221639  1
  In  In54  1  0.85559610  0.48676225  0.65139810  1
  In  In55  1  0.33470809  0.83200036  0.49060791  1
  In  In56  1  0.00075625  0.15738536  0.18590403  1
  In  In57  1  0.69495322  0.32974053  0.34526170  1
  In  In58  1  0.14671021  0.13713507  0.33059706  1
  In  In59  1  0.15924855  -0.01416922  0.84523749  1
  In  In60  1  0.50836871  0.82431469  0.67378162  1
  In  In61  1  0.13541281  0.48371111  0.34534430  1
  In  In62  1  0.01361147  0.83388589  0.82129714  1
  In  In63  1  0.85437766  0.15855271  0.34303528  1
  In  In64  1  0.15599203  0.67843422  0.82005846  1
  In  In65  1  -0.00999148  0.50009523  0.15458185  1
  In  In66  1  0.34333896  0.82455919  0.14814404  1
  In  In67  1  0.33009411  0.69441097  0.33154005  1
  In  In68  1  0.83839370  0.01488616  0.83276654  1
  In  In69  1  0.14952589  0.32379246  0.48716059  1
  In  In70  1  0.66330960  0.84537725  0.16010084  1
  In  In71  1  0.66328033  0.67320486  0.34561905  1
  Te  Te72  1  0.07535810  0.09100038  0.07746451  1
  Te  Te73  1  0.07817620  0.04814407  0.43019281  1
  Te  Te74  1  0.07366035  0.08316309  0.76326866  1
  Te  Te75  1  0.09640192  0.42599644  0.07248262  1
  Te  Te76  1  0.04446474  0.42879089  0.45289258  1
  Te  Te77  1  0.06665859  0.40453678  0.74240933  1
  Te  Te78  1  0.07396733  0.75209722  0.10323135  1
  Te  Te79  1  0.09419216  0.74735493  0.41562521  1
  Te  Te80  1  0.07366795  0.74623347  0.71748458  1
  Te  Te81  1  0.41514360  0.06270539  0.05689000  1
  Te  Te82  1  0.37757682  0.04580881  0.43575094  1
  Te  Te83  1  0.42758740  0.06945058  0.76602832  1
  Te  Te84  1  0.43283698  0.43786777  0.06315905  1
  Te  Te85  1  0.41551781  0.40969004  0.41898608  1
  Te  Te86  1  0.42012398  0.45016018  0.75006436  1
  Te  Te87  1  0.43332124  0.73761701  0.06863257  1
  Te  Te88  1  0.43627925  0.73133547  0.43422352  1
  Te  Te89  1  0.41853973  0.75544425  0.77569291  1
  Te  Te90  1  0.76627616  0.06075256  0.10762850  1
  Te  Te91  1  0.76147357  0.07069354  0.43163927  1
  Te  Te92  1  0.73538444  0.09249944  0.74954203  1
  Te  Te93  1  0.75571175  0.41989572  0.07216042  1
  Te  Te94  1  0.73590864  0.42908424  0.44506057  1
  Te  Te95  1  0.75152890  0.43987641  0.75637014  1
  Te  Te96  1  0.74462526  0.75709942  0.06468266  1
  Te  Te97  1  0.76899449  0.77035055  0.39388295  1
  Te  Te98  1  0.75060081  0.76359013  0.73482799  1
  Te  Te99  1  0.06743004  0.25926310  0.28071049  1
  Te  Te100  1  0.07246302  0.24585403  0.59378389  1
  Te  Te101  1  0.09102754  0.23589670  0.91562669  1
  Te  Te102  1  0.08938469  0.58305116  0.23817848  1
  Te  Te103  1  0.06290331  0.57767117  0.58026378  1
  Te  Te104  1  0.09241043  0.58042430  0.91925738  1
  Te  Te105  1  0.07259870  0.91952604  0.24001146  1
  Te  Te106  1  0.09356573  0.92489686  0.55106432  1
  Te  Te107  1  0.05056947  0.92716415  0.93793322  1
  Te  Te108  1  0.42097266  0.25245871  0.24864214  1
  Te  Te109  1  0.40147997  0.23123817  0.56689338  1
  Te  Te110  1  0.41524059  0.26062512  0.91709419  1
  Te  Te111  1  0.41747376  0.60175377  0.24389832  1
  Te  Te112  1  0.44496539  0.59154961  0.58782968  1
  Te  Te113  1  0.43590575  0.56870627  0.88542849  1
  Te  Te114  1  0.40578994  0.91427281  0.25707505  1
  Te  Te115  1  0.42551691  0.91478430  0.58343553  1
  Te  Te116  1  0.43752795  0.94078032  0.94706781  1
  Te  Te117  1  0.74821917  0.22160953  0.25102870  1
  Te  Te118  1  0.76494613  0.26705626  0.58341866  1
  Te  Te119  1  0.74120046  0.24104463  0.90830397  1
  Te  Te120  1  0.75823003  0.59015120  0.24636567  1
  Te  Te121  1  0.74912915  0.58370215  0.59479477  1
  Te  Te122  1  0.74821178  0.57147645  0.91120182  1
  Te  Te123  1  0.76181136  0.93295490  0.23059387  1
  Te  Te124  1  0.77437744  0.91612048  0.58251982  1
  Te  Te125  1  0.76856811  0.92218993  0.93323611  1
  Te  Te126  1  0.23410568  0.23377661  0.06797146  1
  Te  Te127  1  0.24245455  0.22063643  0.42302686  1
  Te  Te128  1  0.25670592  0.25173820  0.74239648  1
  Te  Te129  1  0.24350638  0.59840818  0.06811848  1
  Te  Te130  1  0.25516906  0.57207489  0.40325817  1
  Te  Te131  1  0.25416515  0.57865087  0.75650152  1
  Te  Te132  1  0.25558241  0.91988688  0.06755553  1
  Te  Te133  1  0.26606935  0.93628701  0.40524807  1
  Te  Te134  1  0.23888474  0.90196282  0.74589346  1
  Te  Te135  1  0.60593314  0.23426478  0.09471377  1
  Te  Te136  1  0.57700001  0.23911496  0.40900359  1
  Te  Te137  1  0.58915508  0.25137323  0.75487130  1
  Te  Te138  1  0.56168501  0.59682827  0.08656369  1
  Te  Te139  1  0.59857366  0.57038392  0.42899171  1
  Te  Te140  1  0.55822651  0.57857370  0.78718140  1
  Te  Te141  1  0.56351194  0.89435902  0.05143008  1
  Te  Te142  1  0.57887085  0.92445768  0.42599407  1
  Te  Te143  1  0.58250460  0.92216976  0.76389918  1
  Te  Te144  1  0.91699466  0.25682524  0.09531892  1
  Te  Te145  1  0.90486690  0.26791685  0.43176862  1
  Te  Te146  1  0.93754939  0.25036565  0.75820720  1
  Te  Te147  1  0.89721921  0.58644318  0.07249829  1
  Te  Te148  1  0.91580962  0.59098666  0.43128911  1
  Te  Te149  1  0.92159355  0.59984178  0.73614094  1
  Te  Te150  1  0.89736084  0.83940784  0.11706742  1
  Te  Te151  1  0.90690167  0.95516813  0.39409919  1
  Te  Te152  1  0.90780438  0.91256828  0.74239573  1
  Te  Te153  1  0.26446255  0.08316464  0.24622672  1
  Te  Te154  1  0.24890808  0.06798232  0.56648632  1
  Te  Te155  1  0.24470079  0.07007186  0.93184955  1
  Te  Te156  1  0.24726800  0.41345052  0.24009773  1
  Te  Te157  1  0.24843994  0.40688976  0.57950873  1
  Te  Te158  1  0.25909295  0.43556485  0.90943735  1
  Te  Te159  1  0.23475614  0.74805556  0.22741325  1
  Te  Te160  1  0.25049590  0.75416760  0.59191689  1
  Te  Te161  1  0.24995750  0.76123790  0.90936825  1
  Te  Te162  1  0.57464994  0.08764036  0.24609418  1
  Te  Te163  1  0.57357188  0.07691276  0.57461985  1
  Te  Te164  1  0.59394571  0.08402980  0.90275374  1
  Te  Te165  1  0.59166158  0.41022563  0.25079801  1
  Te  Te166  1  0.57116245  0.43754954  0.59649531  1
  Te  Te167  1  0.59332711  0.44868833  0.91195245  1
  Te  Te168  1  0.58015578  0.74110787  0.23668464  1
  Te  Te169  1  0.59635513  0.74016856  0.58314905  1
  Te  Te170  1  0.56715406  0.74540858  0.89563353  1
  Te  Te171  1  0.93318653  0.04977601  0.27032434  1
  Te  Te172  1  0.91241184  0.07490079  0.58121097  1
  Te  Te173  1  0.92647142  0.09426203  0.92212675  1
  Te  Te174  1  0.92475694  0.41427254  0.26332600  1
  Te  Te175  1  0.92652718  0.39948567  0.55486607  1
  Te  Te176  1  0.90609281  0.42359459  0.92398852  1
  Te  Te177  1  0.93901933  0.79306824  0.25893457  1
  Te  Te178  1  0.93036891  0.76357590  0.58340441  1
  Te  Te179  1  0.91354136  0.76234087  0.91378961  1
