# generated using pymatgen
data_In2Te3
_symmetry_space_group_name_H-M   'P 1'
_cell_length_a   18.86166665
_cell_length_b   18.86398071
_cell_length_c   18.86486867
_cell_angle_alpha   89.95875489
_cell_angle_beta   90.03910884
_cell_angle_gamma   89.76156518
_symmetry_Int_Tables_number   1
_chemical_formula_structural   In2Te3
_chemical_formula_sum   'In72 Te108'
_cell_volume   6712.17420972
_cell_formula_units_Z   36
loop_
 _symmetry_equiv_pos_site_id
 _symmetry_equiv_pos_as_xyz
  1  'x, y, z'
loop_
 _atom_site_type_symbol
 _atom_site_label
 _atom_site_symmetry_multiplicity
 _atom_site_fract_x
 _atom_site_fract_y
 _atom_site_fract_z
 _atom_site_occupancy
  In  In0  1  -0.00504964  0.33734281  0.61794907  1
  In  In1  1  0.16140420  0.17232232  -0.00080007  1
  In  In2  1  0.67906794  0.33920832  0.00273800  1
  In  In3  1  0.33731332  0.34039899  0.33519010  1
  In  In4  1  0.32235402  -0.02549132  0.63604944  1
  In  In5  1  0.51611367  -0.01793235  0.51147513  1
  In  In6  1  0.51439011  0.00181095  0.81704440  1
  In  In7  1  0.47833159  0.16461376  -0.00658984  1
  In  In8  1  0.49874316  0.84702793  0.34158525  1
  In  In9  1  0.33849792  0.67633221  0.32789089  1
  In  In10  1  0.34773149  0.82619012  0.18454614  1
  In  In11  1  0.82361055  0.32882946  0.83325539  1
  In  In12  1  0.50245854  0.14689283  0.67233601  1
  In  In13  1  0.51861687  0.50904056  -0.01942534  1
  In  In14  1  0.14925403  0.84920955  -0.01422512  1
  In  In15  1  0.83264664  -0.00936281  0.18262500  1
  In  In16  1  0.01099226  0.01326624  0.37520943  1
  In  In17  1  0.83155780  0.00736880  0.48667914  1
  In  In18  1  0.15427407  -0.02204454  0.85703928  1
  In  In19  1  0.47919377  0.65414566  0.17156394  1
  In  In20  1  0.01598531  0.69440928  0.68789665  1
  In  In21  1  -0.00029137  0.67790472  0.32975691  1
  In  In22  1  0.35168355  -0.00828297  -0.00985085  1
  In  In23  1  -0.01390939  0.18566960  0.17475035  1
  In  In24  1  0.30836261  0.14592610  0.17353980  1
  In  In25  1  0.68407029  0.32135946  0.64890701  1
  In  In26  1  -0.02268472  0.48562691  0.18600335  1
  In  In27  1  0.54018085  0.52561357  0.68523073  1
  In  In28  1  0.13100169  0.33642560  0.19053101  1
  In  In29  1  0.00816264  -0.00406194  -0.03052142  1
  In  In30  1  0.67127064  0.66240671  0.34177174  1
  In  In31  1  0.68059109  0.00391884  0.66350896  1
  In  In32  1  0.52807732  0.32715116  0.49898551  1
  In  In33  1  0.18155578  0.50966858  0.65847432  1
  In  In34  1  0.50865084  0.35677480  0.16728182  1
  In  In35  1  0.34142145  0.52746939  0.48170602  1
  In  In36  1  0.52141576  0.32492709  0.85721590  1
  In  In37  1  0.32689767  0.15962851  0.52429454  1
  In  In38  1  0.49303522  0.14301946  0.32483876  1
  In  In39  1  -0.01646907  0.29564323  0.36665858  1
  In  In40  1  0.18324993  0.32193590  0.81425891  1
  In  In41  1  0.67202734  0.48668404  0.16990025  1
  In  In42  1  0.17001990  0.51271040  0.34025087  1
  In  In43  1  0.17310244  0.85070512  0.35330541  1
  In  In44  1  -0.00885960  0.68032914  -0.01906439  1
  In  In45  1  0.83135901  0.15795718  0.65474112  1
  In  In46  1  0.35076569  0.83890383  0.82067655  1
  In  In47  1  0.16419237  0.52281238  0.01028084  1
  In  In48  1  0.67742701  0.84752047  0.17072288  1
  In  In49  1  -0.01992098  0.13784185  0.81799652  1
  In  In50  1  -0.03523985  0.33529682  -0.01653850  1
  In  In51  1  0.68058892  0.80373136  0.83571564  1
  In  In52  1  0.67188382  0.16946363  0.19497135  1
  In  In53  1  0.83739343  0.66603687  0.17377912  1
  In  In54  1  0.33242171  0.65985710  -0.00429441  1
  In  In55  1  0.00553115  0.49167776  0.84125375  1
  In  In56  1  0.35959180  0.33123123  -0.00267462  1
  In  In57  1  0.32306052  0.70027742  0.64752268  1
  In  In58  1  0.70939640  0.33617829  0.36180856  1
  In  In59  1  0.82527644  0.82619627  -0.01618768  1
  In  In60  1  0.15392059  0.32063138  0.50342692  1
  In  In61  1  -0.01340902  0.51484650  0.51870793  1
  In  In62  1  0.83104817  0.51995032  0.64563216  1
  In  In63  1  -0.00671137  0.81125762  0.16782874  1
  In  In64  1  0.65757983  -0.01340088  0.00807080  1
  In  In65  1  0.17455139  0.00508518  0.18310849  1
  In  In66  1  0.83193306  0.66977135  0.49154484  1
  In  In67  1  0.51569825  0.68043957  0.50756011  1
  In  In68  1  0.02505165  -0.05458371  0.65996499  1
  In  In69  1  0.33511213  0.50312068  0.81680982  1
  In  In70  1  0.83585109  0.84075481  0.67271476  1
  In  In71  1  0.32035939  0.33348107  0.69512168  1
  Te  Te72  1  0.07855226  0.08281233  0.08956818  1
  Te  Te73  1  0.09668371  0.09399777  0.46301621  1
  Te  Te74  1  0.08901738  0.06349830  0.74794841  1
  Te  Te75  1  0.07093079  0.41155668  0.07088036  1
  Te  Te76  1  0.07325419  0.42250550  0.41749537  1
  Te  Te77  1  0.08075789  0.41730340  0.72719531  1
  Te  Te78  1  0.09380606  0.74112662  0.07832155  1
  Te  Te79  1  0.06742341  0.77016676  0.42459307  1
  Te  Te80  1  0.09790540  0.79823163  0.75186991  1
  Te  Te81  1  0.42116663  0.07231984  0.09959483  1
  Te  Te82  1  0.41666469  0.07289195  0.43605327  1
  Te  Te83  1  0.39675305  0.06437633  0.74085296  1
  Te  Te84  1  0.41725153  0.44257252  0.08036785  1
  Te  Te85  1  0.43240723  0.42081797  0.42053381  1
  Te  Te86  1  0.44445357  0.41550694  0.75167679  1
  Te  Te87  1  0.42318344  0.75669423  0.07319441  1
  Te  Te88  1  0.40930605  0.76074615  0.42999698  1
  Te  Te89  1  0.42861924  0.73869272  0.74388078  1
  Te  Te90  1  0.74504618  0.07847137  0.09441061  1
  Te  Te91  1  0.76924490  0.11707931  0.40828479  1
  Te  Te92  1  0.74847706  0.09438644  0.75730773  1
  Te  Te93  1  0.77042021  0.42288413  0.08120970  1
  Te  Te94  1  0.76506347  0.44368397  0.44401749  1
  Te  Te95  1  0.75271314  0.42483323  0.73687187  1
  Te  Te96  1  0.74412001  0.74249680  0.08134108  1
  Te  Te97  1  0.73392733  0.76248974  0.42935631  1
  Te  Te98  1  0.74773919  0.72903657  0.72310442  1
  Te  Te99  1  0.09084128  0.22435212  0.28161749  1
  Te  Te100  1  0.06339865  0.21552465  0.56193134  1
  Te  Te101  1  0.07348233  0.25232170  0.90403727  1
  Te  Te102  1  0.07987443  0.58436063  0.23927208  1
  Te  Te103  1  0.08966334  0.60473196  0.58254581  1
  Te  Te104  1  0.09533705  0.60020325  0.89888026  1
  Te  Te105  1  0.06941978  0.91604812  0.24986957  1
  Te  Te106  1  0.10410413  0.88467992  0.54623575  1
  Te  Te107  1  0.03710611  0.86901985  0.88024613  1
  Te  Te108  1  0.41510555  0.25333876  0.23569451  1
  Te  Te109  1  0.42536988  0.26073210  0.59084113  1
  Te  Te110  1  0.39826266  0.23668587  0.88475338  1
  Te  Te111  1  0.41558493  0.56505344  0.26973074  1
  Te  Te112  1  0.41862483  0.57811807  0.60284459  1
  Te  Te113  1  0.42830209  0.59547202  0.89343214  1
  Te  Te114  1  0.39859717  0.93194273  0.27083066  1
  Te  Te115  1  0.44030401  0.88561166  0.59806536  1
  Te  Te116  1  0.45143354  0.90469642  0.91633231  1
  Te  Te117  1  0.76818824  0.27195042  0.24099541  1
  Te  Te118  1  0.75373607  0.23165434  0.54724731  1
  Te  Te119  1  0.74078166  0.23882361  0.91334420  1
  Te  Te120  1  0.76244437  0.56831726  0.26150920  1
  Te  Te121  1  0.73010081  0.59999072  0.57424034  1
  Te  Te122  1  0.69039610  0.62232323  0.90039994  1
  Te  Te123  1  0.73732671  0.93014120  0.27857378  1
  Te  Te124  1  0.74736026  0.90770679  0.56709282  1
  Te  Te125  1  0.74731441  0.92693595  0.90013615  1
  Te  Te126  1  0.24730470  0.26317518  0.08579396  1
  Te  Te127  1  0.25474449  0.24368215  0.41713265  1
  Te  Te128  1  0.22500472  0.22356421  0.71336059  1
  Te  Te129  1  0.25788523  0.58817670  0.10044347  1
  Te  Te130  1  0.23212140  0.61744182  0.43005246  1
  Te  Te131  1  0.24680273  0.60864218  0.75140706  1
  Te  Te132  1  0.25215574  0.91789054  0.08224643  1
  Te  Te133  1  0.25325863  0.90531311  0.46733140  1
  Te  Te134  1  0.23689750  0.90704456  0.74540527  1
  Te  Te135  1  0.57382090  0.24861109  0.08142251  1
  Te  Te136  1  0.59003170  0.23763675  0.39509872  1
  Te  Te137  1  0.59159332  0.24583671  0.74704170  1
  Te  Te138  1  0.59039313  0.58680181  0.08929992  1
  Te  Te139  1  0.56929225  0.58301047  0.41243253  1
  Te  Te140  1  0.62673893  0.62434697  0.75693618  1
  Te  Te141  1  0.56784334  0.90821214  0.09288850  1
  Te  Te142  1  0.60677532  0.92217621  0.41005857  1
  Te  Te143  1  0.59809910  0.90094911  0.74040446  1
  Te  Te144  1  0.89561981  0.24184306  0.07284951  1
  Te  Te145  1  0.88023753  0.21380279  0.44428241  1
  Te  Te146  1  0.92567390  0.26344709  0.73694181  1
  Te  Te147  1  0.92361466  0.58411334  0.07965444  1
  Te  Te148  1  0.91348848  0.57450769  0.40052786  1
  Te  Te149  1  0.92578727  0.58349609  0.74657434  1
  Te  Te150  1  0.92161644  0.91022935  0.07523964  1
  Te  Te151  1  0.92074412  0.90800618  0.42145192  1
  Te  Te152  1  0.90907103  0.94089035  0.75255866  1
  Te  Te153  1  0.25672793  0.06841803  0.28728864  1
  Te  Te154  1  0.21974494  0.06245483  0.56501553  1
  Te  Te155  1  0.25172163  0.08150677  0.91675485  1
  Te  Te156  1  0.24560149  0.42166621  0.24249144  1
  Te  Te157  1  0.26237670  0.41744234  0.56758979  1
  Te  Te158  1  0.25112785  0.42079039  0.91600958  1
  Te  Te159  1  0.23152755  0.75447146  0.25035649  1
  Te  Te160  1  0.22888663  0.79139684  0.57426441  1
  Te  Te161  1  0.25434438  0.76324864  0.91456659  1
  Te  Te162  1  0.59282900  0.06040244  0.25377446  1
  Te  Te163  1  0.59977986  0.09584834  0.56976489  1
  Te  Te164  1  0.58616893  0.09165635  0.91646773  1
  Te  Te165  1  0.59684285  0.40949211  0.27575471  1
  Te  Te166  1  0.60280367  0.43222360  0.57868771  1
  Te  Te167  1  0.61930135  0.43487776  0.89580734  1
  Te  Te168  1  0.57516088  0.74770234  0.24661385  1
  Te  Te169  1  0.55971200  0.78461046  0.60009180  1
  Te  Te170  1  0.59580349  0.72933015  0.93144524  1
  Te  Te171  1  0.92148878  0.08209351  0.26484258  1
  Te  Te172  1  0.92462725  0.05154948  0.59961312  1
  Te  Te173  1  0.90673685  0.09811207  0.93842417  1
  Te  Te174  1  0.91149338  0.37710639  0.26237043  1
  Te  Te175  1  0.87554350  0.40310215  0.54261488  1
  Te  Te176  1  0.88193417  0.44582043  0.91616084  1
  Te  Te177  1  0.88992037  0.76959774  0.27086537  1
  Te  Te178  1  0.92389565  0.75384246  0.58242478  1
  Te  Te179  1  0.88183781  0.72407120  0.89209278  1
