# generated using pymatgen
data_In2Te3
_symmetry_space_group_name_H-M   'P 1'
_cell_length_a   18.97136644
_cell_length_b   18.98691361
_cell_length_c   18.97268509
_cell_angle_alpha   89.93774531
_cell_angle_beta   90.08313286
_cell_angle_gamma   90.03897667
_symmetry_Int_Tables_number   1
_chemical_formula_structural   In2Te3
_chemical_formula_sum   'In72 Te108'
_cell_volume   6834.09437582
_cell_formula_units_Z   36
loop_
 _symmetry_equiv_pos_site_id
 _symmetry_equiv_pos_as_xyz
  1  'x, y, z'
loop_
 _atom_site_type_symbol
 _atom_site_label
 _atom_site_symmetry_multiplicity
 _atom_site_fract_x
 _atom_site_fract_y
 _atom_site_fract_z
 _atom_site_occupancy
  In  In0  1  0.52986620  0.32967927  0.51077023  1
  In  In1  1  0.85304551  0.18365486  0.32175700  1
  In  In2  1  0.83750395  0.65110930  0.82315679  1
  In  In3  1  0.67997073  0.33621399  0.67326028  1
  In  In4  1  0.66309337  0.66132389  0.68736024  1
  In  In5  1  0.19516057  0.53073239  0.34020364  1
  In  In6  1  0.16857162  -0.01205050  0.18021830  1
  In  In7  1  0.12784014  0.88777519  0.37705115  1
  In  In8  1  -0.00437651  0.66244706  0.32122419  1
  In  In9  1  0.33370411  0.00455215  0.67364550  1
  In  In10  1  0.14825592  0.34244145  0.83215990  1
  In  In11  1  0.33818477  0.83593600  0.82813055  1
  In  In12  1  0.84340762  0.00830339  0.52415054  1
  In  In13  1  0.01553235  -0.00000536  0.64792320  1
  In  In14  1  0.15241267  0.33270245  0.12994481  1
  In  In15  1  0.16232407  0.65919734  0.14142751  1
  In  In16  1  0.33764928  0.33565262  0.31762798  1
  In  In17  1  0.16908948  0.66351604  0.51870813  1
  In  In18  1  0.01501771  0.16327416  0.15259456  1
  In  In19  1  0.32409325  0.82843287  0.49863532  1
  In  In20  1  0.82466922  0.17952362  -0.00473111  1
  In  In21  1  0.32303173  0.34975424  0.69305976  1
  In  In22  1  0.68060422  -0.00028529  -0.01585029  1
  In  In23  1  0.68147278  0.82349310  0.14539080  1
  In  In24  1  0.79702066  0.14949607  0.68803402  1
  In  In25  1  0.16232246  0.18418574  0.66660152  1
  In  In26  1  -0.01973717  -0.02033443  -0.01437876  1
  In  In27  1  0.13342005  0.48571015  0.67926394  1
  In  In28  1  -0.01202295  0.83025875  0.52351434  1
  In  In29  1  0.49178961  0.01290738  0.14927460  1
  In  In30  1  -0.02112062  0.17681651  0.80563807  1
  In  In31  1  0.19036838  0.16167019  -0.01322338  1
  In  In32  1  0.50448032  0.33708464  0.15670054  1
  In  In33  1  0.48374476  0.67031258  0.17829563  1
  In  In34  1  0.66724474  0.49372685  0.50088602  1
  In  In35  1  0.83727414  0.82007674  0.33616275  1
  In  In36  1  0.50945780  0.83374696  0.70487442  1
  In  In37  1  -0.02352701  0.48965562  0.13643428  1
  In  In38  1  0.82405206  0.84038044  0.67706981  1
  In  In39  1  0.35347536  0.82151436  0.16889146  1
  In  In40  1  0.32721243  0.53325693  0.15035812  1
  In  In41  1  0.85260555  0.67112920  0.49224518  1
  In  In42  1  0.48028417  0.30269185  0.85839411  1
  In  In43  1  0.14856418  0.82977018  -0.00058285  1
  In  In44  1  0.66535292  0.31823440  0.33922559  1
  In  In45  1  -0.04740353  0.33843441  -0.03584902  1
  In  In46  1  -0.00505709  0.34992198  0.31496892  1
  In  In47  1  0.31713888  0.68942176  0.34788724  1
  In  In48  1  0.50058735  0.01576717  0.50945234  1
  In  In49  1  0.85641820  0.50154677  0.67580736  1
  In  In50  1  0.67465146  0.00765381  0.34632006  1
  In  In51  1  0.69856938  0.49156420  0.13908229  1
  In  In52  1  0.16542124  0.32351023  0.51437959  1
  In  In53  1  0.51650894  0.01874446  0.84017916  1
  In  In54  1  0.48671125  0.64191436  0.56096189  1
  In  In55  1  0.01377667  0.64401559  -0.03245142  1
  In  In56  1  0.34317686  0.17476256  0.50131685  1
  In  In57  1  0.64997193  0.17266158  0.15335406  1
  In  In58  1  0.50949537  0.67226974  0.84140918  1
  In  In59  1  0.50637162  0.47875507  0.35876357  1
  In  In60  1  -0.01438274  0.46918660  0.49993124  1
  In  In61  1  0.51894241  0.49239875  -0.01165382  1
  In  In62  1  0.87038404  -0.00398354  0.16868871  1
  In  In63  1  0.30561919  0.49899901  0.83822753  1
  In  In64  1  0.02919614  0.80533879  0.78737969  1
  In  In65  1  0.66597579  0.67038414  -0.01923286  1
  In  In66  1  0.34793817  0.00963072  -0.00567840  1
  In  In67  1  0.68843017  0.64777690  0.33256856  1
  In  In68  1  0.51563885  0.15727569  0.66632092  1
  In  In69  1  0.16661643  0.09921660  0.37368777  1
  In  In70  1  0.32494979  0.67092139  0.02565599  1
  In  In71  1  0.50575006  0.86826691  0.31136866  1
  Te  Te72  1  0.08796800  0.06330499  0.06556900  1
  Te  Te73  1  0.06618062  0.08341363  0.47522308  1
  Te  Te74  1  0.08617810  0.08526828  0.75257036  1
  Te  Te75  1  0.06510939  0.41444157  0.03998857  1
  Te  Te76  1  0.10897336  0.42864359  0.41109812  1
  Te  Te77  1  0.03757860  0.42366274  0.77538066  1
  Te  Te78  1  0.05506555  0.74477445  0.08146574  1
  Te  Te79  1  0.09160658  0.73973930  0.40975473  1
  Te  Te80  1  0.13628351  0.72797889  0.72520091  1
  Te  Te81  1  0.43332984  0.11705452  0.05690563  1
  Te  Te82  1  0.42587125  0.09469642  0.41186442  1
  Te  Te83  1  0.41300000  0.09863404  0.76082728  1
  Te  Te84  1  0.41306095  0.42953641  0.07807749  1
  Te  Te85  1  0.40913286  0.39696726  0.43649366  1
  Te  Te86  1  0.42251480  0.42413211  0.77703950  1
  Te  Te87  1  0.44370993  0.76114174  0.06462351  1
  Te  Te88  1  0.42921418  0.77010472  0.40539950  1
  Te  Te89  1  0.40658552  0.72879190  0.74502409  1
  Te  Te90  1  0.76459793  0.08096295  0.10116796  1
  Te  Te91  1  0.77263999  0.09544617  0.41731649  1
  Te  Te92  1  0.72753798  0.04947780  0.77004077  1
  Te  Te93  1  0.76442542  0.39879163  0.04297209  1
  Te  Te94  1  0.75032832  0.40611469  0.42048103  1
  Te  Te95  1  0.77636386  0.40806359  0.76034404  1
  Te  Te96  1  0.76712810  0.74611209  0.05704735  1
  Te  Te97  1  0.74025089  0.75185691  0.43040708  1
  Te  Te98  1  0.73825948  0.76076293  0.77297184  1
  Te  Te99  1  0.09200919  0.25663521  0.24533503  1
  Te  Te100  1  0.06783151  0.28515901  0.61612550  1
  Te  Te101  1  0.06565452  0.23639280  0.91919767  1
  Te  Te102  1  0.08437431  0.56440312  0.23367925  1
  Te  Te103  1  0.06206844  0.57444522  0.57812229  1
  Te  Te104  1  0.13411424  0.58333181  0.90950409  1
  Te  Te105  1  0.06678358  0.90625487  0.24589310  1
  Te  Te106  1  0.10164637  0.90908043  0.56977724  1
  Te  Te107  1  0.07788727  0.90935679  0.89369734  1
  Te  Te108  1  0.42977230  0.24870403  0.24606845  1
  Te  Te109  1  0.41520731  0.26429016  0.60335360  1
  Te  Te110  1  0.39712422  0.22592249  0.95201594  1
  Te  Te111  1  0.41206702  0.57516011  0.27229751  1
  Te  Te112  1  0.38238692  0.54895655  0.58901503  1
  Te  Te113  1  0.40785312  0.58607428  0.92877809  1
  Te  Te114  1  0.39455219  0.94543147  0.24545205  1
  Te  Te115  1  0.42370671  0.90907740  0.59572579  1
  Te  Te116  1  0.43446558  0.91375800  0.91544161  1
  Te  Te117  1  0.75135591  0.25449570  0.23272557  1
  Te  Te118  1  0.72455707  0.22542664  0.58412752  1
  Te  Te119  1  0.72777950  0.28121046  0.94812031  1
  Te  Te120  1  0.77182070  0.57586075  0.23722554  1
  Te  Te121  1  0.75559720  0.58906737  0.58490703  1
  Te  Te122  1  0.73514593  0.57166650  0.89562182  1
  Te  Te123  1  0.75125259  0.92058286  0.24788915  1
  Te  Te124  1  0.74777392  0.91077634  0.57472169  1
  Te  Te125  1  0.76888618  0.95000812  0.88004671  1
  Te  Te126  1  0.26335408  0.25128266  0.07798854  1
  Te  Te127  1  0.24109749  0.24477308  0.40904852  1
  Te  Te128  1  0.25216914  0.24464089  0.77270006  1
  Te  Te129  1  0.21583255  0.55556528  0.04234242  1
  Te  Te130  1  0.28715746  0.58331266  0.45281783  1
  Te  Te131  1  0.21133131  0.59038942  0.76059414  1
  Te  Te132  1  0.25841030  0.90531506  0.07673757  1
  Te  Te133  1  0.25984766  0.93462760  0.41608526  1
  Te  Te134  1  0.24469684  0.92701264  0.76114360  1
  Te  Te135  1  0.60070788  0.27706590  0.05941377  1
  Te  Te136  1  0.56327498  0.23603181  0.40403329  1
  Te  Te137  1  0.58876777  0.24937551  0.75905051  1
  Te  Te138  1  0.58054742  0.58710770  0.09675922  1
  Te  Te139  1  0.57238197  0.59686222  0.42799351  1
  Te  Te140  1  0.58469873  0.56935154  0.76930290  1
  Te  Te141  1  0.58636916  0.91973888  0.07775658  1
  Te  Te142  1  0.58821362  0.91495664  0.42831898  1
  Te  Te143  1  0.59876180  0.94803498  0.73649901  1
  Te  Te144  1  0.91641092  0.25736351  0.08989335  1
  Te  Te145  1  0.92650375  0.26940398  0.41590349  1
  Te  Te146  1  0.86027838  0.25783103  0.76847919  1
  Te  Te147  1  0.90146701  0.58487641  0.04935891  1
  Te  Te148  1  0.91310327  0.56584484  0.40420491  1
  Te  Te149  1  0.95055674  0.57036421  0.76891162  1
  Te  Te150  1  0.89104413  0.89480470  0.06567249  1
  Te  Te151  1  0.91623939  0.91513732  0.42245604  1
  Te  Te152  1  0.93156651  0.92059275  0.74558062  1
  Te  Te153  1  0.24080349  0.09458443  0.24875010  1
  Te  Te154  1  0.24750026  0.09022460  0.58245690  1
  Te  Te155  1  0.24463261  0.05611804  0.90115816  1
  Te  Te156  1  0.24802791  0.42684643  0.23316899  1
  Te  Te157  1  0.24553361  0.43013849  0.59126647  1
  Te  Te158  1  0.25449438  0.38987660  0.92100597  1
  Te  Te159  1  0.23711776  0.75222533  0.23771942  1
  Te  Te160  1  0.25151272  0.75278084  0.60456587  1
  Te  Te161  1  0.24964090  0.75065656  0.92072110  1
  Te  Te162  1  0.57965759  0.08183213  0.25219657  1
  Te  Te163  1  0.60895183  0.09947693  0.56811978  1
  Te  Te164  1  0.59787542  0.10529683  0.92606999  1
  Te  Te165  1  0.59628441  0.43125820  0.24716523  1
  Te  Te166  1  0.57934044  0.43377521  0.60763787  1
  Te  Te167  1  0.59050305  0.39234582  0.90731693  1
  Te  Te168  1  0.59265303  0.75056595  0.25420523  1
  Te  Te169  1  0.58107508  0.75245701  0.59769401  1
  Te  Te170  1  0.59827384  0.77321500  0.89960904  1
  Te  Te171  1  0.95078930  0.08191581  0.26388168  1
  Te  Te172  1  0.94560907  0.10999811  0.57206865  1
  Te  Te173  1  0.90643197  0.08672305  0.90759880  1
  Te  Te174  1  0.89433793  0.41902659  0.23456085  1
  Te  Te175  1  0.88435440  0.39716564  0.57559649  1
  Te  Te176  1  0.87041182  0.46329480  0.95021720  1
  Te  Te177  1  0.89984971  0.73361307  0.23724401  1
  Te  Te178  1  0.91821350  0.73357686  0.61336480  1
  Te  Te179  1  0.93431480  0.74859036  0.89112932  1
