# generated using pymatgen
data_In2Te3
_symmetry_space_group_name_H-M   'P 1'
_cell_length_a   18.79474294
_cell_length_b   18.78794603
_cell_length_c   18.78713935
_cell_angle_alpha   90.01308311
_cell_angle_beta   89.92314140
_cell_angle_gamma   89.99684013
_symmetry_Int_Tables_number   1
_chemical_formula_structural   In2Te3
_chemical_formula_sum   'In72 Te108'
_cell_volume   6634.00734882
_cell_formula_units_Z   36
loop_
 _symmetry_equiv_pos_site_id
 _symmetry_equiv_pos_as_xyz
  1  'x, y, z'
loop_
 _atom_site_type_symbol
 _atom_site_label
 _atom_site_symmetry_multiplicity
 _atom_site_fract_x
 _atom_site_fract_y
 _atom_site_fract_z
 _atom_site_occupancy
  In  In0  1  0.64493095  0.13787807  0.21995431  1
  In  In1  1  0.19155856  0.33403046  0.82935769  1
  In  In2  1  0.82485400  0.65400238  0.49976247  1
  In  In3  1  0.50705771  0.82260188  0.00969771  1
  In  In4  1  0.81422849  -0.00277716  0.16255285  1
  In  In5  1  0.31973452  0.01907827  0.01121519  1
  In  In6  1  0.49744922  0.31536985  0.48823048  1
  In  In7  1  0.03864241  0.82677544  0.48882438  1
  In  In8  1  0.02287405  0.51748268  0.20102400  1
  In  In9  1  0.84652384  0.33598556  0.80538474  1
  In  In10  1  0.48158286  0.83564488  0.65612184  1
  In  In11  1  0.82914422  0.16588653  0.34780565  1
  In  In12  1  0.00586914  0.31991179  0.65715212  1
  In  In13  1  0.49307523  -0.00792865  0.49437963  1
  In  In14  1  0.84338845  0.83357974  0.32642803  1
  In  In15  1  0.19360193  -0.01714070  0.47368357  1
  In  In16  1  0.47510127  0.50250117  0.33295014  1
  In  In17  1  0.33892076  0.67469739  0.01512719  1
  In  In18  1  0.67197265  0.83397322  0.86445861  1
  In  In19  1  0.67615893  0.33989549  0.01462175  1
  In  In20  1  0.00500063  0.67004596  0.68318631  1
  In  In21  1  0.00345611  0.68120412  -0.00351135  1
  In  In22  1  0.00416509  0.51303860  0.84544747  1
  In  In23  1  0.63997263  0.86499912  0.48486668  1
  In  In24  1  0.34421536  0.14413022  0.19143563  1
  In  In25  1  0.66015726  0.51683981  0.14767046  1
  In  In26  1  0.18468624  -0.00608475  0.18079979  1
  In  In27  1  0.03354547  0.32000428  0.00560780  1
  In  In28  1  0.85783572  0.29283842  0.51567129  1
  In  In29  1  0.84781921  -0.01337065  0.82038798  1
  In  In30  1  0.48664250  -0.00125070  0.83149990  1
  In  In31  1  0.65541255  0.01195443  0.65423649  1
  In  In32  1  0.51044087  0.51859438  0.01744996  1
  In  In33  1  0.64557125  0.66389794  0.67847162  1
  In  In34  1  0.85386447  0.85171670  0.67778738  1
  In  In35  1  0.16382104  0.33544845  0.17236565  1
  In  In36  1  0.19118283  0.67723349  0.48667588  1
  In  In37  1  -0.02032484  -0.01677490  -0.00257802  1
  In  In38  1  0.33753795  0.16439958  0.51097357  1
  In  In39  1  0.16376353  0.34235835  0.50342357  1
  In  In40  1  0.33150912  0.16705500  0.80297790  1
  In  In41  1  0.32154904  0.52057164  0.17368637  1
  In  In42  1  0.02082589  0.82188881  0.82596274  1
  In  In43  1  0.66253493  0.82871767  0.17176585  1
  In  In44  1  0.49416230  0.33497534  0.17865241  1
  In  In45  1  0.49313113  0.13788134  0.00758365  1
  In  In46  1  0.16517289  0.83988767  0.01498335  1
  In  In47  1  0.50455614  0.35136172  0.82469097  1
  In  In48  1  -0.00156147  0.47747431  0.50008150  1
  In  In49  1  0.66651557  0.16463891  0.82855516  1
  In  In50  1  0.33396082  0.67298341  0.34022283  1
  In  In51  1  0.33568919  -0.00890303  0.66786471  1
  In  In52  1  0.46370033  0.52162570  0.64369343  1
  In  In53  1  0.33817092  0.33492918  0.32624575  1
  In  In54  1  0.85051072  0.48118219  0.32669923  1
  In  In55  1  0.32482438  0.82910753  0.80846768  1
  In  In56  1  0.17371064  0.17499350  -0.00983777  1
  In  In57  1  0.84454550  0.04368812  0.51692601  1
  In  In58  1  0.01224064  0.00211765  0.34476494  1
  In  In59  1  0.65909798  0.50533970  0.48881352  1
  In  In60  1  0.00810896  0.83711910  0.16507611  1
  In  In61  1  0.66350359  0.30955645  0.34840391  1
  In  In62  1  0.83730166  0.14835963  0.01216893  1
  In  In63  1  0.32326731  0.34001024  -0.02808093  1
  In  In64  1  0.32078750  0.50928995  0.82243464  1
  In  In65  1  0.68689542  0.33171629  0.65943344  1
  In  In66  1  0.63782571  0.68276728  0.32013879  1
  In  In67  1  0.01730208  0.17442403  0.16456215  1
  In  In68  1  0.18410048  0.50852901  0.65646035  1
  In  In69  1  0.83767275  0.65674219  0.84512267  1
  In  In70  1  0.81523188  0.50273158  -0.01062667  1
  In  In71  1  0.82478597  0.67100185  0.15885594  1
  Te  Te72  1  0.08887067  0.07016573  0.07516735  1
  Te  Te73  1  0.08725510  0.08361637  0.44127518  1
  Te  Te74  1  0.02695195  0.08966719  0.72527478  1
  Te  Te75  1  0.09263267  0.43570877  0.08254022  1
  Te  Te76  1  0.08348397  0.41289946  0.39958141  1
  Te  Te77  1  0.08230952  0.42095381  0.74780134  1
  Te  Te78  1  0.10157136  0.73239655  0.10465233  1
  Te  Te79  1  0.08846733  0.72836754  0.38623978  1
  Te  Te80  1  0.11575090  0.75282161  0.73399842  1
  Te  Te81  1  0.43347731  0.04577404  0.11342377  1
  Te  Te82  1  0.39427857  0.06822483  0.40420326  1
  Te  Te83  1  0.43801547  0.09154993  0.72249809  1
  Te  Te84  1  0.40839150  0.41643367  0.08220760  1
  Te  Te85  1  0.39946515  0.42369669  0.43669474  1
  Te  Te86  1  0.39793015  0.41072242  0.73550343  1
  Te  Te87  1  0.40565828  0.77162955  0.10652882  1
  Te  Te88  1  0.40740499  0.73761622  0.45614671  1
  Te  Te89  1  0.42951398  0.73847672  0.75575742  1
  Te  Te90  1  0.72031782  0.09102567  0.08967743  1
  Te  Te91  1  0.74336103  0.06531216  0.41237191  1
  Te  Te92  1  0.76048793  0.08382131  0.73837891  1
  Te  Te93  1  0.76823604  0.41679967  0.10875578  1
  Te  Te94  1  0.75697979  0.40431116  0.42597603  1
  Te  Te95  1  0.73703733  0.42329668  0.76371564  1
  Te  Te96  1  0.72996389  0.74025737  0.07015406  1
  Te  Te97  1  0.74117015  0.75372639  0.41833342  1
  Te  Te98  1  0.75662799  0.75584603  0.74736902  1
  Te  Te99  1  0.10418514  0.23640049  0.26580261  1
  Te  Te100  1  0.08213650  0.23114170  0.56484319  1
  Te  Te101  1  0.08192252  0.23894473  0.88682185  1
  Te  Te102  1  0.09901413  0.61429756  0.27732283  1
  Te  Te103  1  0.07999057  0.59021787  0.57194119  1
  Te  Te104  1  0.09421167  0.61529851  0.89988572  1
  Te  Te105  1  0.09827948  0.90094017  0.26884427  1
  Te  Te106  1  0.12450164  0.90225302  0.58055454  1
  Te  Te107  1  0.09316530  0.92687063  0.91232403  1
  Te  Te108  1  0.43962278  0.23123551  0.27489341  1
  Te  Te109  1  0.41431729  0.25751863  0.59656655  1
  Te  Te110  1  0.42652456  0.23794832  0.91210701  1
  Te  Te111  1  0.43228454  0.60516963  0.23198542  1
  Te  Te112  1  0.38527491  0.62415515  0.56303784  1
  Te  Te113  1  0.41604141  0.58359025  0.91744581  1
  Te  Te114  1  0.36159741  0.95412752  0.30672985  1
  Te  Te115  1  0.38633355  0.90018028  0.55450439  1
  Te  Te116  1  0.39735610  0.91851701  0.92294190  1
  Te  Te117  1  0.75158106  0.24536503  0.24151963  1
  Te  Te118  1  0.74364512  0.22290551  0.57709458  1
  Te  Te119  1  0.75830198  0.25226460  0.91735472  1
  Te  Te120  1  0.74701797  0.58442153  0.26702355  1
  Te  Te121  1  0.74272965  0.57252254  0.59774179  1
  Te  Te122  1  0.72657043  0.60010883  0.92424463  1
  Te  Te123  1  0.73793785  0.92676082  0.27243652  1
  Te  Te124  1  0.75450236  0.91591234  0.57997128  1
  Te  Te125  1  0.75933363  0.93425187  0.92703225  1
  Te  Te126  1  0.26853454  0.24372519  0.08860304  1
  Te  Te127  1  0.25121530  0.24812530  0.41489169  1
  Te  Te128  1  0.23444230  0.24274647  0.72240826  1
  Te  Te129  1  0.23227572  0.59967924  0.08833846  1
  Te  Te130  1  0.25298592  0.56725367  0.40873581  1
  Te  Te131  1  0.24469578  0.60995915  0.74511617  1
  Te  Te132  1  0.27634566  0.90105991  0.10143105  1
  Te  Te133  1  0.25664168  0.87410559  0.37890132  1
  Te  Te134  1  0.22828858  0.92057836  0.74310243  1
  Te  Te135  1  0.57573302  0.24680144  0.08328017  1
  Te  Te136  1  0.58615296  0.21128042  0.42704300  1
  Te  Te137  1  0.57870295  0.24961848  0.73856788  1
  Te  Te138  1  0.58146052  0.62699622  0.09085650  1
  Te  Te139  1  0.55952425  0.59717095  0.42081357  1
  Te  Te140  1  0.55737054  0.56827986  0.74712389  1
  Te  Te141  1  0.58948088  0.92155557  0.08149803  1
  Te  Te142  1  0.55276961  0.91857371  0.37331604  1
  Te  Te143  1  0.58860695  0.91126363  0.74789830  1
  Te  Te144  1  0.91721944  0.25672214  0.08499998  1
  Te  Te145  1  0.93953029  0.24410488  0.40390723  1
  Te  Te146  1  0.91419163  0.22532319  0.73254921  1
  Te  Te147  1  0.92010304  0.57949059  0.07760674  1
  Te  Te148  1  0.92567034  0.58353560  0.41215283  1
  Te  Te149  1  0.90639608  0.56874207  0.74148199  1
  Te  Te150  1  0.89167554  0.89249724  0.08340148  1
  Te  Te151  1  0.91729900  0.91576775  0.43251751  1
  Te  Te152  1  0.96911366  0.93739970  0.72675875  1
  Te  Te153  1  0.22703507  0.10188310  0.27295865  1
  Te  Te154  1  0.23860408  0.07968998  0.59023199  1
  Te  Te155  1  0.24313070  0.07896358  0.89249769  1
  Te  Te156  1  0.23757045  0.43281285  0.26531471  1
  Te  Te157  1  0.26879011  0.41813734  0.57744879  1
  Te  Te158  1  0.22575644  0.44580128  0.92750422  1
  Te  Te159  1  0.26349739  0.77714025  0.26127966  1
  Te  Te160  1  0.28968473  0.74689849  0.57642531  1
  Te  Te161  1  0.24732602  0.75429678  0.91975334  1
  Te  Te162  1  0.55129976  0.03683591  0.26694462  1
  Te  Te163  1  0.57595073  0.09643168  0.56220496  1
  Te  Te164  1  0.59387111  0.06427272  0.91843186  1
  Te  Te165  1  0.59132923  0.42137899  0.25998257  1
  Te  Te166  1  0.57310362  0.41933725  0.58197521  1
  Te  Te167  1  0.59271155  0.42883979  0.92293435  1
  Te  Te168  1  0.54838122  0.78344622  0.26008846  1
  Te  Te169  1  0.58096543  0.75297884  0.57261201  1
  Te  Te170  1  0.55858725  0.74485782  0.89371096  1
  Te  Te171  1  0.92322167  0.07271644  0.23841419  1
  Te  Te172  1  0.96097613  0.10331256  0.59394021  1
  Te  Te173  1  0.92859055  0.09311776  0.90518474  1
  Te  Te174  1  0.94629489  0.40049095  0.24907557  1
  Te  Te175  1  0.89889094  0.41522646  0.59661219  1
  Te  Te176  1  0.92353343  0.40889505  0.92610994  1
  Te  Te177  1  0.92886240  0.73460338  0.25046627  1
  Te  Te178  1  0.91930906  0.75245681  0.57676323  1
  Te  Te179  1  0.90857771  0.77128200  0.91595153  1
