# generated using pymatgen
data_In2Te3
_symmetry_space_group_name_H-M   'P 1'
_cell_length_a   18.97958283
_cell_length_b   18.98515750
_cell_length_c   18.97471793
_cell_angle_alpha   90.10900813
_cell_angle_beta   89.94883610
_cell_angle_gamma   90.15681692
_symmetry_Int_Tables_number   1
_chemical_formula_structural   In2Te3
_chemical_formula_sum   'In72 Te108'
_cell_volume   6837.12643921
_cell_formula_units_Z   36
loop_
 _symmetry_equiv_pos_site_id
 _symmetry_equiv_pos_as_xyz
  1  'x, y, z'
loop_
 _atom_site_type_symbol
 _atom_site_label
 _atom_site_symmetry_multiplicity
 _atom_site_fract_x
 _atom_site_fract_y
 _atom_site_fract_z
 _atom_site_occupancy
  In  In0  1  0.50721763  0.82861693  -0.00628900  1
  In  In1  1  0.30134459  -0.05525305  0.65541609  1
  In  In2  1  0.31169278  0.50328801  0.82069855  1
  In  In3  1  0.17564376  0.82401140  0.01438537  1
  In  In4  1  0.51925164  0.50086800  0.01065201  1
  In  In5  1  0.49878855  0.33451854  0.49568106  1
  In  In6  1  0.32305037  0.34590566  0.34901807  1
  In  In7  1  0.35558270  0.81715189  0.46411556  1
  In  In8  1  0.78426813  0.50388763  -0.00416350  1
  In  In9  1  0.47663719  0.35503206  0.82949846  1
  In  In10  1  0.17817814  0.50083051  -0.00089470  1
  In  In11  1  0.17741253  0.32317070  0.19226627  1
  In  In12  1  0.83767145  0.18834785  0.65925321  1
  In  In13  1  0.81276427  0.66952475  0.16693016  1
  In  In14  1  0.64979683  0.64802976  0.69412596  1
  In  In15  1  0.81959332  0.67908828  0.50334101  1
  In  In16  1  0.65354252  0.03390389  0.66664527  1
  In  In17  1  0.82215705  0.35582752  0.15252549  1
  In  In18  1  0.49457847  -0.00510824  0.84047891  1
  In  In19  1  0.00761645  0.50895357  0.17544615  1
  In  In20  1  -0.01317852  0.66604554  -0.00738899  1
  In  In21  1  0.17247579  0.66494774  0.17612894  1
  In  In22  1  -0.00963095  0.32187161  -0.00164522  1
  In  In23  1  0.65223550  0.19277947  0.16189451  1
  In  In24  1  0.84445794  0.00757673  0.48686057  1
  In  In25  1  -0.01562821  0.48674904  0.81357468  1
  In  In26  1  0.33137780  0.49758325  0.50611743  1
  In  In27  1  0.17958344  0.65555759  0.48855420  1
  In  In28  1  -0.01246058  0.65912108  0.32988642  1
  In  In29  1  0.67528136  -0.02445180  0.33396852  1
  In  In30  1  0.03622813  0.16985435  0.20828954  1
  In  In31  1  0.33916871  -0.01184884  -0.00485337  1
  In  In32  1  0.83070183  0.18198420  -0.00185378  1
  In  In33  1  0.81746423  -0.01894506  0.81827236  1
  In  In34  1  0.49014462  0.17314087  0.64998348  1
  In  In35  1  0.64130992  0.69162161  0.33929393  1
  In  In36  1  0.16294967  0.00059596  0.17830149  1
  In  In37  1  0.33020062  0.16756840  0.48721841  1
  In  In38  1  0.68102435  0.35724319  0.67651531  1
  In  In39  1  0.33848955  0.66072233  0.66656239  1
  In  In40  1  0.03920508  -0.01811060  0.38893899  1
  In  In41  1  0.01690774  0.31627097  0.64266311  1
  In  In42  1  0.85735864  0.83838309  0.65663492  1
  In  In43  1  0.67011782  0.83050709  0.50492497  1
  In  In44  1  0.83198731  0.33767696  0.49936690  1
  In  In45  1  -0.00713981  -0.03290013  -0.01725821  1
  In  In46  1  0.35641806  0.64664619  0.01343851  1
  In  In47  1  0.16557785  0.17043863  0.65298723  1
  In  In48  1  0.84594911  0.65435310  0.83090409  1
  In  In49  1  -0.00012450  0.14414570  0.80098388  1
  In  In50  1  0.03022957  -0.00779314  0.62777497  1
  In  In51  1  0.83323340  0.17338986  0.32699006  1
  In  In52  1  0.33731282  -0.00542830  0.30991226  1
  In  In53  1  0.63588615  0.17333734  0.85621799  1
  In  In54  1  0.18244293  0.14586598  0.01062841  1
  In  In55  1  0.81372998  0.51683527  0.32753040  1
  In  In56  1  0.49299709  0.66289047  0.18589413  1
  In  In57  1  0.83040176  0.80878827  0.00332831  1
  In  In58  1  0.50642422  0.17735478  0.33878892  1
  In  In59  1  0.34760013  0.17780782  0.83210761  1
  In  In60  1  0.79200418  0.33316840  0.83028273  1
  In  In61  1  0.83209070  0.00935771  0.17451570  1
  In  In62  1  0.49608536  -0.02112118  0.16663791  1
  In  In63  1  0.51261401  0.35461104  0.18670610  1
  In  In64  1  0.17515921  0.82293939  0.33703818  1
  In  In65  1  0.66398521  0.82355236  0.84682296  1
  In  In66  1  0.16193460  0.33166183  0.83992152  1
  In  In67  1  0.07639933  0.45727905  0.50607590  1
  In  In68  1  0.17145406  0.72807282  0.80082933  1
  In  In69  1  0.48947462  0.81439979  0.66848860  1
  In  In70  1  0.65745184  0.52278359  0.50518707  1
  In  In71  1  0.32262318  0.14737401  0.16989789  1
  Te  Te72  1  0.06922123  0.07241163  0.08047516  1
  Te  Te73  1  0.09156961  0.09598926  0.46058252  1
  Te  Te74  1  0.10979944  0.06205429  0.74417896  1
  Te  Te75  1  0.08372394  0.40525173  0.08534471  1
  Te  Te76  1  0.09843284  0.42368744  0.36615929  1
  Te  Te77  1  0.09250699  0.41244040  0.73556378  1
  Te  Te78  1  0.07234226  0.74270282  0.09233424  1
  Te  Te79  1  0.07657777  0.74510081  0.41971042  1
  Te  Te80  1  0.09691430  0.80265704  0.69041160  1
  Te  Te81  1  0.42304065  0.08114676  0.07964634  1
  Te  Te82  1  0.42084600  0.07487181  0.40994226  1
  Te  Te83  1  0.41429891  0.07533271  0.74028626  1
  Te  Te84  1  0.42474248  0.43799797  0.10374144  1
  Te  Te85  1  0.43401231  0.43241809  0.40159051  1
  Te  Te86  1  0.39794702  0.42675407  0.72718891  1
  Te  Te87  1  0.41409997  0.75964563  0.09139927  1
  Te  Te88  1  0.43823384  0.70234953  0.41962602  1
  Te  Te89  1  0.43081821  0.72200379  0.76705862  1
  Te  Te90  1  0.74448202  0.09438123  0.08590622  1
  Te  Te91  1  0.74152460  0.08873420  0.41345184  1
  Te  Te92  1  0.75425083  0.10935837  0.76623909  1
  Te  Te93  1  0.70289270  0.42828557  0.09731669  1
  Te  Te94  1  0.73586633  0.42533232  0.41963932  1
  Te  Te95  1  0.76203429  0.45570854  0.75414413  1
  Te  Te96  1  0.72159481  0.72631616  0.06328124  1
  Te  Te97  1  0.75871868  0.76755337  0.39781314  1
  Te  Te98  1  0.75422844  0.75888776  0.74227859  1
  Te  Te99  1  0.07492446  0.28399917  0.29655647  1
  Te  Te100  1  0.08775115  0.23181363  0.53897927  1
  Te  Te101  1  0.08054459  0.22847247  0.92035471  1
  Te  Te102  1  0.10228102  0.57134301  0.27615201  1
  Te  Te103  1  0.09130140  0.58296536  0.58223868  1
  Te  Te104  1  0.07148590  0.56559857  0.91581149  1
  Te  Te105  1  0.07698522  0.90713630  0.25641981  1
  Te  Te106  1  0.12001852  0.89085742  0.57323271  1
  Te  Te107  1  0.10828689  0.91016893  0.91596727  1
  Te  Te108  1  0.40249944  0.24618725  0.25338599  1
  Te  Te109  1  0.39440209  0.26818961  0.58327710  1
  Te  Te110  1  0.43629598  0.24959816  0.92388473  1
  Te  Te111  1  0.38449501  0.63945090  0.28950557  1
  Te  Te112  1  0.42219039  0.55155917  0.61197813  1
  Te  Te113  1  0.42030634  0.56350756  0.90654115  1
  Te  Te114  1  0.43556164  0.89068431  0.26996878  1
  Te  Te115  1  0.42250391  0.90976334  0.57347233  1
  Te  Te116  1  0.40042682  0.89225871  0.89793541  1
  Te  Te117  1  0.74443535  0.27077148  0.25284329  1
  Te  Te118  1  0.73087838  0.25185086  0.57748059  1
  Te  Te119  1  0.71885940  0.26831106  0.94473579  1
  Te  Te120  1  0.70960959  0.58628558  0.24340968  1
  Te  Te121  1  0.75623437  0.58434180  0.60211603  1
  Te  Te122  1  0.73478125  0.62007561  0.92160738  1
  Te  Te123  1  0.74911598  0.90349124  0.23115036  1
  Te  Te124  1  0.75281463  0.93597516  0.59328940  1
  Te  Te125  1  0.74592303  0.91873736  0.93312967  1
  Te  Te126  1  0.25964377  0.25341919  0.08125670  1
  Te  Te127  1  0.23547770  0.26896546  0.43893924  1
  Te  Te128  1  0.25234233  0.25610552  0.74407518  1
  Te  Te129  1  0.26381540  0.56652372  0.10435409  1
  Te  Te130  1  0.27540258  0.58579628  0.39814248  1
  Te  Te131  1  0.22204028  0.59695459  0.74294519  1
  Te  Te132  1  0.26107784  0.91470379  0.10270757  1
  Te  Te133  1  0.25651957  0.92310760  0.41643091  1
  Te  Te134  1  0.23860317  0.86120653  0.75861834  1
  Te  Te135  1  0.55300945  0.26096706  0.07962008  1
  Te  Te136  1  0.59557608  0.27038973  0.40650918  1
  Te  Te137  1  0.57940965  0.25712894  0.74304727  1
  Te  Te138  1  0.58325151  0.61836482  0.07681859  1
  Te  Te139  1  0.56087318  0.59180117  0.41537397  1
  Te  Te140  1  0.61135098  0.53065147  0.77398843  1
  Te  Te141  1  0.59211791  0.91225470  0.07891886  1
  Te  Te142  1  0.57967889  0.91041184  0.42399622  1
  Te  Te143  1  0.59078561  0.91683520  0.74183633  1
  Te  Te144  1  0.92324924  0.24176761  0.10974423  1
  Te  Te145  1  0.91773456  0.25103886  0.41855676  1
  Te  Te146  1  0.92153763  0.26992066  0.76486812  1
  Te  Te147  1  0.90486874  0.56931126  0.08041713  1
  Te  Te148  1  0.90795133  0.57741715  0.42873215  1
  Te  Te149  1  0.94829875  0.60616587  0.73877181  1
  Te  Te150  1  0.91136237  0.90345823  0.09055440  1
  Te  Te151  1  0.92190100  0.90279464  0.42246930  1
  Te  Te152  1  0.93729572  0.93426157  0.74257695  1
  Te  Te153  1  0.22610004  0.09803878  0.27487926  1
  Te  Te154  1  0.25880870  0.07159565  0.58420356  1
  Te  Te155  1  0.25699298  0.07436942  0.90174265  1
  Te  Te156  1  0.26106717  0.43017627  0.24538863  1
  Te  Te157  1  0.21058559  0.44094984  0.57092053  1
  Te  Te158  1  0.26414020  0.40003847  0.92640003  1
  Te  Te159  1  0.26826646  0.75604473  0.24369767  1
  Te  Te160  1  0.26777128  0.75076467  0.56863504  1
  Te  Te161  1  0.24510949  0.71650492  0.93393175  1
  Te  Te162  1  0.58484465  0.08302714  0.24719649  1
  Te  Te163  1  0.57252539  0.09106360  0.56122327  1
  Te  Te164  1  0.58237666  0.06356037  0.93507648  1
  Te  Te165  1  0.62230021  0.44166553  0.23004112  1
  Te  Te166  1  0.57792382  0.42586626  0.59047607  1
  Te  Te167  1  0.58848136  0.43232408  0.89330466  1
  Te  Te168  1  0.56160876  0.77944554  0.25100910  1
  Te  Te169  1  0.58491354  0.73166691  0.58477403  1
  Te  Te170  1  0.55208187  0.73556847  0.88563055  1
  Te  Te171  1  0.93458548  0.07445974  0.26922463  1
  Te  Te172  1  0.92495669  0.09573389  0.58158029  1
  Te  Te173  1  0.91199512  0.08354264  0.91559943  1
  Te  Te174  1  0.91076693  0.42397103  0.25560826  1
  Te  Te175  1  0.92886519  0.41857025  0.58130312  1
  Te  Te176  1  0.89763621  0.41727412  0.92818035  1
  Te  Te177  1  0.91609639  0.74517130  0.23638776  1
  Te  Te178  1  0.93108188  0.75239491  0.56586056  1
  Te  Te179  1  0.92986754  0.76686961  0.89608163  1
