# generated using pymatgen
data_In2Te3
_symmetry_space_group_name_H-M   'P 1'
_cell_length_a   18.96814404
_cell_length_b   18.97830604
_cell_length_c   18.98371092
_cell_angle_alpha   89.82085170
_cell_angle_beta   90.05055839
_cell_angle_gamma   90.08663555
_symmetry_Int_Tables_number   1
_chemical_formula_structural   In2Te3
_chemical_formula_sum   'In72 Te108'
_cell_volume   6833.77396261
_cell_formula_units_Z   36
loop_
 _symmetry_equiv_pos_site_id
 _symmetry_equiv_pos_as_xyz
  1  'x, y, z'
loop_
 _atom_site_type_symbol
 _atom_site_label
 _atom_site_symmetry_multiplicity
 _atom_site_fract_x
 _atom_site_fract_y
 _atom_site_fract_z
 _atom_site_occupancy
  In  In0  1  0.46610118  0.82773476  0.33887963  1
  In  In1  1  0.01511798  0.83991118  0.82630318  1
  In  In2  1  -0.00505851  0.84093728  0.50920504  1
  In  In3  1  0.00301593  0.01611975  0.68007292  1
  In  In4  1  -0.00066443  0.66147708  0.65710105  1
  In  In5  1  0.83352296  0.17627280  0.34003066  1
  In  In6  1  0.50360236  0.68325329  0.16633521  1
  In  In7  1  0.85047538  0.67979525  0.81368925  1
  In  In8  1  0.16393118  0.48338336  -0.04026454  1
  In  In9  1  0.64442456  0.00153833  0.32937704  1
  In  In10  1  0.52648038  0.33157790  0.17329432  1
  In  In11  1  0.00097073  0.48309575  0.50778843  1
  In  In12  1  0.64387888  0.84631512  0.85356152  1
  In  In13  1  0.33221963  0.17212940  0.83271192  1
  In  In14  1  0.66065418  0.52412600  0.80064540  1
  In  In15  1  0.17586892  0.64676242  0.51019287  1
  In  In16  1  0.17989063  0.18794687  0.65539076  1
  In  In17  1  0.82542519  0.49589601  0.64608637  1
  In  In18  1  0.79217967  0.82909032  -0.02281114  1
  In  In19  1  0.17676114  0.61663383  0.81836467  1
  In  In20  1  0.32112964  0.82265216  0.51082802  1
  In  In21  1  0.03790984  0.52355364  0.18811341  1
  In  In22  1  0.82452826  0.47285902  -0.00043885  1
  In  In23  1  0.81902032  0.80375239  0.33712664  1
  In  In24  1  0.65726411  0.48811938  0.51854837  1
  In  In25  1  -0.01007463  -0.01938382  -0.04135532  1
  In  In26  1  0.64747053  0.65986315  0.35952676  1
  In  In27  1  0.33194990  0.65610307  -0.00478531  1
  In  In28  1  0.33949667  0.64715236  0.64528231  1
  In  In29  1  0.00412485  0.83260032  0.15925207  1
  In  In30  1  0.02937575  0.62849755  0.34852058  1
  In  In31  1  0.47639308  0.64926806  0.81141826  1
  In  In32  1  0.83231248  0.16398891  0.65450756  1
  In  In33  1  0.79439754  0.84391331  0.66970101  1
  In  In34  1  0.66480158  0.35109613  0.33478769  1
  In  In35  1  0.48502483  0.14916649  -0.00909565  1
  In  In36  1  0.01107737  0.19388453  0.15031360  1
  In  In37  1  0.17639386  0.34897255  0.18175993  1
  In  In38  1  0.31184947  -0.00756194  0.67296382  1
  In  In39  1  0.66758712  0.65944169  0.00686072  1
  In  In40  1  0.16070360  0.15997378  -0.02762360  1
  In  In41  1  0.47640036  0.35160508  0.50602770  1
  In  In42  1  0.00909523  0.00966856  0.35303372  1
  In  In43  1  0.84996496  0.31486980  0.81677703  1
  In  In44  1  0.01097634  0.68619898  0.03426468  1
  In  In45  1  -0.00306428  0.35959622  0.34975616  1
  In  In46  1  0.33050051  0.29104450  0.01693308  1
  In  In47  1  0.51380411  0.78807515  0.63653764  1
  In  In48  1  0.16577507  0.00350471  0.15489614  1
  In  In49  1  0.66113797  0.01142798  -0.00600983  1
  In  In50  1  0.65055538  0.32357732  -0.00921647  1
  In  In51  1  0.81930245  0.33088093  0.18973982  1
  In  In52  1  0.15193619  0.82591598  -0.00172934  1
  In  In53  1  0.01857640  0.31920725  -0.02415335  1
  In  In54  1  0.13549455  0.00876375  0.50911096  1
  In  In55  1  0.83197625  -0.00027787  0.17517831  1
  In  In56  1  0.00737604  0.19208210  0.53327072  1
  In  In57  1  0.48098865  -0.00386437  0.83054910  1
  In  In58  1  0.23364991  0.78104404  0.35652563  1
  In  In59  1  0.83468554  0.51840874  0.36442103  1
  In  In60  1  0.49803814  0.16869472  0.32242306  1
  In  In61  1  0.84233995  0.14512237  -0.01700720  1
  In  In62  1  0.34579570  0.37609655  0.64637702  1
  In  In63  1  0.34597955  0.16831750  0.20684370  1
  In  In64  1  0.49788385  0.51904877  -0.00174552  1
  In  In65  1  0.83062339  0.66155576  0.17711906  1
  In  In66  1  0.52346311  0.01294268  0.52602652  1
  In  In67  1  0.34463541  0.00776451  0.34381142  1
  In  In68  1  0.48677327  0.85816188  -0.01778961  1
  In  In69  1  0.35496698  0.50626528  0.16320553  1
  In  In70  1  0.67737439  0.16764591  0.50442212  1
  In  In71  1  0.66686939  0.01266884  0.67407106  1
  Te  Te72  1  0.05796509  0.07567459  0.06653796  1
  Te  Te73  1  0.08498203  0.12032144  0.41947461  1
  Te  Te74  1  0.10007122  0.10331192  0.74747203  1
  Te  Te75  1  0.07251891  0.41419118  0.08441201  1
  Te  Te76  1  0.10302225  0.44338269  0.40852565  1
  Te  Te77  1  0.13260289  0.47341926  0.81120074  1
  Te  Te78  1  0.11924465  0.74042289  0.12388095  1
  Te  Te79  1  0.09228881  0.75359252  0.42474159  1
  Te  Te80  1  0.08914962  0.73075778  0.75651946  1
  Te  Te81  1  0.38572300  0.09057395  0.08348950  1
  Te  Te82  1  0.43021729  0.09195895  0.43561126  1
  Te  Te83  1  0.41256372  0.09056030  0.73422653  1
  Te  Te84  1  0.42998511  0.39891895  0.07213593  1
  Te  Te85  1  0.36638667  0.44137380  0.44645540  1
  Te  Te86  1  0.46752666  0.43236245  0.72074091  1
  Te  Te87  1  0.41191206  0.75811629  0.07239113  1
  Te  Te88  1  0.42242986  0.73228974  0.44594133  1
  Te  Te89  1  0.40130331  0.75530610  0.73545648  1
  Te  Te90  1  0.74863177  0.09254002  0.09066752  1
  Te  Te91  1  0.75150296  0.07228241  0.41338684  1
  Te  Te92  1  0.76038020  0.08713464  0.75730538  1
  Te  Te93  1  0.72760183  0.40877248  0.09538409  1
  Te  Te94  1  0.76375684  0.40696858  0.43331684  1
  Te  Te95  1  0.74918706  0.41469420  0.75145753  1
  Te  Te96  1  0.73973446  0.75577734  0.09928997  1
  Te  Te97  1  0.73148562  0.75052333  0.44365860  1
  Te  Te98  1  0.72515195  0.74793531  0.76566148  1
  Te  Te99  1  0.07918071  0.26193402  0.26452407  1
  Te  Te100  1  0.12425864  0.28293853  0.55311344  1
  Te  Te101  1  0.09953120  0.25130846  0.87549963  1
  Te  Te102  1  0.14518307  0.59141509  0.26572030  1
  Te  Te103  1  0.09464740  0.55789508  0.60197631  1
  Te  Te104  1  0.06205719  0.59775324  0.92765179  1
  Te  Te105  1  0.08220417  0.91990014  0.25630450  1
  Te  Te106  1  0.08719386  0.90745968  0.60916521  1
  Te  Te107  1  0.12064051  0.93866135  0.88590525  1
  Te  Te108  1  0.41115269  0.29614166  0.27231772  1
  Te  Te109  1  0.38991455  0.25444339  0.57371836  1
  Te  Te110  1  0.44398207  0.26489505  0.89713378  1
  Te  Te111  1  0.41467711  0.60617506  0.25979381  1
  Te  Te112  1  0.40922517  0.56135437  0.54447199  1
  Te  Te113  1  0.39245212  0.55590374  0.89706054  1
  Te  Te114  1  0.39680891  0.91589175  0.24432279  1
  Te  Te115  1  0.41902868  0.91366575  0.58371847  1
  Te  Te116  1  0.38355804  0.90345299  0.88993126  1
  Te  Te117  1  0.72351763  0.23321557  0.25400517  1
  Te  Te118  1  0.74383868  0.26439227  0.59111085  1
  Te  Te119  1  0.75041412  0.24420766  0.90953230  1
  Te  Te120  1  0.74055012  0.57770845  0.26314879  1
  Te  Te121  1  0.73225488  0.59791888  0.58851479  1
  Te  Te122  1  0.76843795  0.59053270  0.91720493  1
  Te  Te123  1  0.74369254  0.90765368  0.25358225  1
  Te  Te124  1  0.73051465  0.93068094  0.57158201  1
  Te  Te125  1  0.75363263  0.94496276  0.89099667  1
  Te  Te126  1  0.22000891  0.22978689  0.09992761  1
  Te  Te127  1  0.29328376  0.22514690  0.33567923  1
  Te  Te128  1  0.27231890  0.27479392  0.73897712  1
  Te  Te129  1  0.24738600  0.55667956  0.06905617  1
  Te  Te130  1  0.30583550  0.61068972  0.44282445  1
  Te  Te131  1  0.27038179  0.54239604  0.72367163  1
  Te  Te132  1  0.24208670  0.89905832  0.08790941  1
  Te  Te133  1  0.23648995  0.92288182  0.42413054  1
  Te  Te134  1  0.22811996  0.93171228  0.77303952  1
  Te  Te135  1  0.58167258  0.22435699  0.08223309  1
  Te  Te136  1  0.58044061  0.25399563  0.41925852  1
  Te  Te137  1  0.53424813  0.31586358  0.78060922  1
  Te  Te138  1  0.59022248  0.57415885  0.10510334  1
  Te  Te139  1  0.57100864  0.54389667  0.41086424  1
  Te  Te140  1  0.55395218  0.57372940  0.70929958  1
  Te  Te141  1  0.58801631  0.91139036  0.07166002  1
  Te  Te142  1  0.56698411  0.91189443  0.42297310  1
  Te  Te143  1  0.56550095  0.90106606  0.73620383  1
  Te  Te144  1  0.90091689  0.26560059  0.07409483  1
  Te  Te145  1  0.91316477  0.26327331  0.43212763  1
  Te  Te146  1  0.93444402  0.26078738  0.70831031  1
  Te  Te147  1  0.91132423  0.57633950  0.08283702  1
  Te  Te148  1  0.92059190  0.60373441  0.45118044  1
  Te  Te149  1  0.92060434  0.56658849  0.74604977  1
  Te  Te150  1  0.90560944  0.91291159  0.07393801  1
  Te  Te151  1  0.90780333  0.91112968  0.40653383  1
  Te  Te152  1  0.91096491  0.91310517  0.74652868  1
  Te  Te153  1  0.22882415  0.08236994  0.26828277  1
  Te  Te154  1  0.25128490  0.08494152  0.56817030  1
  Te  Te155  1  0.28399272  0.08346390  0.94239398  1
  Te  Te156  1  0.26124803  0.44145179  0.25865681  1
  Te  Te157  1  0.24918052  0.39210196  0.53003465  1
  Te  Te158  1  0.26251139  0.37895981  0.92233828  1
  Te  Te159  1  0.29326572  0.70061715  0.25219641  1
  Te  Te160  1  0.22911654  0.75034089  0.60655300  1
  Te  Te161  1  0.23183276  0.73043590  0.91186541  1
  Te  Te162  1  0.55409784  0.06666148  0.23505567  1
  Te  Te163  1  0.58014228  0.12197517  0.61422313  1
  Te  Te164  1  0.58337713  0.09004757  0.89034172  1
  Te  Te165  1  0.56340923  0.43684765  0.27016968  1
  Te  Te166  1  0.59321966  0.37817519  0.59664718  1
  Te  Te167  1  0.59339724  0.44047784  0.90975895  1
  Te  Te168  1  0.58488792  0.76197193  0.26526335  1
  Te  Te169  1  0.61798628  0.71388407  0.56700912  1
  Te  Te170  1  0.56573647  0.72396132  0.91524997  1
  Te  Te171  1  0.92873996  0.09586565  0.24414331  1
  Te  Te172  1  0.92060031  0.07319879  0.56660145  1
  Te  Te173  1  0.94043878  0.09762909  0.88657470  1
  Te  Te174  1  0.91481054  0.43594440  0.24572677  1
  Te  Te175  1  0.92573454  0.39639404  0.60065502  1
  Te  Te176  1  0.92549986  0.41532636  0.90259243  1
  Te  Te177  1  0.93725129  0.73058953  0.26054828  1
  Te  Te178  1  0.90155368  0.75974681  0.59539526  1
  Te  Te179  1  0.91919496  0.76277097  0.92801274  1
