# generated using pymatgen
data_In2Te3
_symmetry_space_group_name_H-M   'P 1'
_cell_length_a   18.96730164
_cell_length_b   18.95383527
_cell_length_c   18.96884041
_cell_angle_alpha   90.27332581
_cell_angle_beta   90.04982256
_cell_angle_gamma   89.89805627
_symmetry_Int_Tables_number   1
_chemical_formula_structural   In2Te3
_chemical_formula_sum   'In72 Te108'
_cell_volume   6819.26621776
_cell_formula_units_Z   36
loop_
 _symmetry_equiv_pos_site_id
 _symmetry_equiv_pos_as_xyz
  1  'x, y, z'
loop_
 _atom_site_type_symbol
 _atom_site_label
 _atom_site_symmetry_multiplicity
 _atom_site_fract_x
 _atom_site_fract_y
 _atom_site_fract_z
 _atom_site_occupancy
  In  In0  1  0.47126307  0.32073876  0.48828873  1
  In  In1  1  0.85079232  0.84857188  0.33274793  1
  In  In2  1  0.49321947  0.82236654  0.00169246  1
  In  In3  1  0.31552705  0.82575193  0.83765498  1
  In  In4  1  -0.00206120  0.82966154  0.18962177  1
  In  In5  1  0.49072877  0.33655787  0.83228330  1
  In  In6  1  0.47596464  0.13873559  0.33775018  1
  In  In7  1  0.31455366  0.68840731  0.64414537  1
  In  In8  1  0.16249468  0.50551429  0.31969939  1
  In  In9  1  0.68243726  0.31363000  0.02703928  1
  In  In10  1  0.30726363  0.49690673  0.49051712  1
  In  In11  1  0.69464849  0.51403046  0.49129939  1
  In  In12  1  0.70097658  -0.02999511  0.67122388  1
  In  In13  1  0.02982720  0.32014590  0.32761943  1
  In  In14  1  0.64754522  0.16565422  0.84322427  1
  In  In15  1  0.50255441  0.65098147  0.84930018  1
  In  In16  1  0.67769492  0.34934535  0.63677105  1
  In  In17  1  0.85098214  0.32232386  0.51448305  1
  In  In18  1  0.16507358  0.66983343  0.84547978  1
  In  In19  1  0.51963833  0.64841777  0.50550865  1
  In  In20  1  0.50232662  0.48308531  0.68080171  1
  In  In21  1  0.68122319  0.27425175  0.33780382  1
  In  In22  1  -0.01794933  0.17737447  0.84491939  1
  In  In23  1  0.00403797  0.15553617  0.50708570  1
  In  In24  1  0.84459640  0.68904999  0.48922487  1
  In  In25  1  -0.00405983  0.84836246  0.85502170  1
  In  In26  1  0.82677505  0.51308557  0.32068594  1
  In  In27  1  0.83275833  -0.00459507  0.86289978  1
  In  In28  1  0.87394352  0.00601769  0.16927631  1
  In  In29  1  0.85111926  0.47648516  -0.03259985  1
  In  In30  1  0.67703238  0.14442546  0.16851225  1
  In  In31  1  0.50700675  0.84431235  0.67299382  1
  In  In32  1  0.27628070  0.91860613  0.48991071  1
  In  In33  1  -0.00973022  0.65196195  0.65882921  1
  In  In34  1  0.15522576  0.11133918  0.03040986  1
  In  In35  1  0.17172298  0.82854399  0.65808848  1
  In  In36  1  0.00791334  0.84977142  0.47044110  1
  In  In37  1  0.51973675  0.84762282  0.35371094  1
  In  In38  1  0.18581323  0.14927852  0.64385197  1
  In  In39  1  -0.02195197  0.66614761  0.01000993  1
  In  In40  1  -0.00344007  0.01733369  0.65993860  1
  In  In41  1  0.13757115  0.50340348  0.67155121  1
  In  In42  1  0.14459899  0.49879243  0.01088291  1
  In  In43  1  0.52709772  0.49850573  0.34066024  1
  In  In44  1  0.85141110  0.17064317  0.66866621  1
  In  In45  1  0.28872081  0.32100425  0.31044866  1
  In  In46  1  0.16475866  0.16080631  0.32280765  1
  In  In47  1  0.16522879  0.65726184  0.16674835  1
  In  In48  1  0.51034450  0.34246947  0.16650089  1
  In  In49  1  0.64577255  0.50892701  0.84657487  1
  In  In50  1  0.51135939  0.68766862  0.16812358  1
  In  In51  1  0.84805041  0.16750790  0.01293940  1
  In  In52  1  0.48742967  -0.01772677  0.16808043  1
  In  In53  1  0.32077161  0.14296563  0.16673392  1
  In  In54  1  0.31142518  0.85844188  0.15831846  1
  In  In55  1  0.84453013  0.34192149  0.15669988  1
  In  In56  1  0.14526275  0.34086609  0.17048843  1
  In  In57  1  0.49937832  0.16338097  0.64958482  1
  In  In58  1  0.33251200  0.16518304  0.81868611  1
  In  In59  1  0.15156177  0.31997713  0.51121381  1
  In  In60  1  0.49756407  -0.00540514  0.50696905  1
  In  In61  1  0.72684543  0.75412920  0.65799913  1
  In  In62  1  0.84124175  0.49499734  0.67006252  1
  In  In63  1  -0.00497582  0.65918844  0.33970192  1
  In  In64  1  0.48470342  0.51190168  0.00317446  1
  In  In65  1  0.68572354  0.69002478  0.00631575  1
  In  In66  1  0.31976647  0.31713212  -0.02276790  1
  In  In67  1  0.35229660  0.67562421  0.30742812  1
  In  In68  1  0.13779184  0.32475258  0.83385714  1
  In  In69  1  0.16121227  -0.00961446  0.84482208  1
  In  In70  1  0.70055578  0.86220625  0.17128668  1
  In  In71  1  0.50018324  0.00491527  0.84010234  1
  Te  Te72  1  0.10120596  0.02297869  0.13752932  1
  Te  Te73  1  0.09895019  0.07516344  0.42576194  1
  Te  Te74  1  0.08677718  0.09319675  0.75724902  1
  Te  Te75  1  0.05149107  0.40144360  0.07399598  1
  Te  Te76  1  0.08679343  0.42468232  0.42270242  1
  Te  Te77  1  0.05009197  0.42923006  0.76935285  1
  Te  Te78  1  0.07915682  0.75133989  0.08583938  1
  Te  Te79  1  0.09002173  0.75475197  0.39492874  1
  Te  Te80  1  0.07935736  0.75868180  0.75427104  1
  Te  Te81  1  0.41357640  0.07242291  0.08002841  1
  Te  Te82  1  0.39301997  0.08339424  0.44722258  1
  Te  Te83  1  0.41425599  0.06989445  0.73318185  1
  Te  Te84  1  0.40763928  0.40181262  0.07292411  1
  Te  Te85  1  0.40149809  0.42129933  0.39653654  1
  Te  Te86  1  0.39868756  0.42744493  0.76532283  1
  Te  Te87  1  0.39689195  0.74734952  0.08933633  1
  Te  Te88  1  0.43392714  0.73889496  0.41906644  1
  Te  Te89  1  0.41665439  0.74325529  0.74656564  1
  Te  Te90  1  0.75939398  0.06241385  0.07275409  1
  Te  Te91  1  0.72597151  0.15815236  0.41401964  1
  Te  Te92  1  0.75763741  0.08923374  0.75827141  1
  Te  Te93  1  0.74901319  0.43426171  0.08449704  1
  Te  Te94  1  0.75965487  0.39904261  0.41785204  1
  Te  Te95  1  0.73556273  0.42264820  0.75384811  1
  Te  Te96  1  0.78206949  0.77055714  0.08681398  1
  Te  Te97  1  0.75329753  0.77967646  0.41989729  1
  Te  Te98  1  0.78856712  0.78064398  0.79179044  1
  Te  Te99  1  0.06021909  0.21448102  0.21745054  1
  Te  Te100  1  0.06849580  0.24417581  0.61126079  1
  Te  Te101  1  0.09553042  0.22160578  0.93547038  1
  Te  Te102  1  0.05932853  0.57123628  0.23234455  1
  Te  Te103  1  0.09401086  0.59907637  0.57092417  1
  Te  Te104  1  0.06353221  0.58225191  0.91370616  1
  Te  Te105  1  0.07070555  0.93745770  0.26511087  1
  Te  Te106  1  0.08765514  0.92862585  0.58056139  1
  Te  Te107  1  0.10175202  0.90025697  0.94368919  1
  Te  Te108  1  0.41369718  0.25529472  0.25328664  1
  Te  Te109  1  0.40276753  0.26216536  0.60198360  1
  Te  Te110  1  0.42927676  0.22839037  0.91783970  1
  Te  Te111  1  0.44035827  0.57169608  0.23935090  1
  Te  Te112  1  0.40803784  0.57588421  0.58015473  1
  Te  Te113  1  0.39353183  0.57854698  0.91128534  1
  Te  Te114  1  0.40724318  0.90647918  0.27060107  1
  Te  Te115  1  0.40504665  0.89729409  0.57713420  1
  Te  Te116  1  0.40631894  0.91579937  0.92073175  1
  Te  Te117  1  0.79001195  0.22327239  0.23415314  1
  Te  Te118  1  0.74244127  0.22768120  0.57411657  1
  Te  Te119  1  0.75560663  0.24507544  0.91507516  1
  Te  Te120  1  0.71773176  0.59070195  0.26859423  1
  Te  Te121  1  0.75193717  0.60821850  0.59262858  1
  Te  Te122  1  0.75308770  0.58788589  0.91545448  1
  Te  Te123  1  0.76666664  0.95880140  0.26639555  1
  Te  Te124  1  0.76592664  0.87350793  0.57896254  1
  Te  Te125  1  0.76000379  0.87691884  0.90679404  1
  Te  Te126  1  0.24029601  0.24597564  0.08802786  1
  Te  Te127  1  0.25018436  0.24037535  0.42887631  1
  Te  Te128  1  0.24018776  0.25501450  0.74178355  1
  Te  Te129  1  0.24969995  0.57403862  0.08099416  1
  Te  Te130  1  0.25136708  0.60031942  0.39721206  1
  Te  Te131  1  0.24301642  0.59488518  0.73829731  1
  Te  Te132  1  0.22718305  0.95409656  0.08194693  1
  Te  Te133  1  0.19051915  0.94485246  0.36782946  1
  Te  Te134  1  0.25323698  0.92513828  0.74229905  1
  Te  Te135  1  0.57560763  0.22806404  0.09040030  1
  Te  Te136  1  0.56942809  0.21788757  0.43360034  1
  Te  Te137  1  0.58720666  0.26449714  0.73597096  1
  Te  Te138  1  0.58857279  0.59336139  0.07708408  1
  Te  Te139  1  0.62207395  0.61066634  0.38934391  1
  Te  Te140  1  0.58753108  0.59510471  0.73558657  1
  Te  Te141  1  0.58836537  0.91098017  0.07930108  1
  Te  Te142  1  0.60590183  0.94399388  0.42196685  1
  Te  Te143  1  0.60130731  0.91276411  0.76900274  1
  Te  Te144  1  0.93403268  0.28182956  0.05381656  1
  Te  Te145  1  0.92838398  0.24223530  0.41046481  1
  Te  Te146  1  0.90255498  0.27377464  0.76396810  1
  Te  Te147  1  0.90069342  0.56106285  0.07724773  1
  Te  Te148  1  0.91498325  0.56895689  0.43159451  1
  Te  Te149  1  0.89864799  0.59770719  0.75721193  1
  Te  Te150  1  0.90822133  0.88825988  0.08545159  1
  Te  Te151  1  0.92951784  0.95360205  0.40129169  1
  Te  Te152  1  0.91743538  0.92950706  0.75141816  1
  Te  Te153  1  0.26744267  0.06082610  0.27672513  1
  Te  Te154  1  0.26384466  0.05723366  0.55846992  1
  Te  Te155  1  0.25767713  0.08128156  0.91966884  1
  Te  Te156  1  0.25455129  0.43623173  0.22081858  1
  Te  Te157  1  0.23771815  0.41407677  0.59406780  1
  Te  Te158  1  0.23154033  0.41776233  0.90900117  1
  Te  Te159  1  0.24028463  0.76103428  0.25053888  1
  Te  Te160  1  0.24643743  0.77147891  0.53896781  1
  Te  Te161  1  0.24052517  0.75421995  0.93931095  1
  Te  Te162  1  0.58009845  0.06603414  0.25614103  1
  Te  Te163  1  0.60020608  0.06201497  0.59993280  1
  Te  Te164  1  0.59710245  0.06438498  0.93357036  1
  Te  Te165  1  0.60934874  0.39504205  0.26650834  1
  Te  Te166  1  0.57669413  0.42691534  0.55176960  1
  Te  Te167  1  0.58436705  0.40199631  0.93604719  1
  Te  Te168  1  0.60347121  0.77393698  0.24952895  1
  Te  Te169  1  0.59074290  0.75970600  0.57968117  1
  Te  Te170  1  0.59203013  0.75772014  0.90651310  1
  Te  Te171  1  0.93482649  0.12269049  0.23328054  1
  Te  Te172  1  0.89131572  0.06769335  0.56367246  1
  Te  Te173  1  0.94081569  0.06722020  0.94090905  1
  Te  Te174  1  0.92602366  0.41393572  0.26178127  1
  Te  Te175  1  0.93432600  0.41604039  0.58914473  1
  Te  Te176  1  0.93401914  0.40085665  0.87089156  1
  Te  Te177  1  0.89833439  0.73055175  0.24920424  1
  Te  Te178  1  0.93539646  0.76900453  0.58104735  1
  Te  Te179  1  0.90041875  0.74708316  0.90803798  1
