# generated using pymatgen
data_In2Te3
_symmetry_space_group_name_H-M   'P 1'
_cell_length_a   18.83706422
_cell_length_b   18.86248774
_cell_length_c   18.85786737
_cell_angle_alpha   90.14301110
_cell_angle_beta   89.97673362
_cell_angle_gamma   89.99330099
_symmetry_Int_Tables_number   1
_chemical_formula_structural   In2Te3
_chemical_formula_sum   'In72 Te108'
_cell_volume   6700.44079728
_cell_formula_units_Z   36
loop_
 _symmetry_equiv_pos_site_id
 _symmetry_equiv_pos_as_xyz
  1  'x, y, z'
loop_
 _atom_site_type_symbol
 _atom_site_label
 _atom_site_symmetry_multiplicity
 _atom_site_fract_x
 _atom_site_fract_y
 _atom_site_fract_z
 _atom_site_occupancy
  In  In0  1  0.66551295  0.33999232  0.65878808  1
  In  In1  1  -0.01696276  0.84754370  0.12082883  1
  In  In2  1  -0.01735370  0.01974954  0.30685980  1
  In  In3  1  0.31212808  -0.00643361  0.30829877  1
  In  In4  1  0.51358825  0.83526585  -0.02273811  1
  In  In5  1  0.67933043  0.14663271  0.85157691  1
  In  In6  1  -0.02281070  0.66420554  0.00257496  1
  In  In7  1  0.49549133  0.01495789  0.14615965  1
  In  In8  1  0.33704382  0.64194667  0.34852095  1
  In  In9  1  0.00781852  0.66128672  0.67041798  1
  In  In10  1  -0.01857386  0.49265280  0.51370639  1
  In  In11  1  0.33525853  0.32437442  0.00826512  1
  In  In12  1  0.81005393  0.64946462  0.52255887  1
  In  In13  1  0.52123311  0.81507078  0.32569499  1
  In  In14  1  0.82292247  0.49244262  0.02957911  1
  In  In15  1  0.48336307  0.18584368  0.33181725  1
  In  In16  1  0.83419696  0.15739577  0.33397695  1
  In  In17  1  0.81203712  0.17628668  0.67641293  1
  In  In18  1  0.64904269  0.49203812  0.50979151  1
  In  In19  1  0.00050828  0.16337534  0.47807463  1
  In  In20  1  0.78596959  0.85898550  0.67417929  1
  In  In21  1  -0.00074140  0.30327625  0.30749323  1
  In  In22  1  0.17417517  0.35326550  0.49614538  1
  In  In23  1  0.01995291  0.65644070  0.30763855  1
  In  In24  1  0.37022232  0.32759168  0.66672568  1
  In  In25  1  0.34760243  0.14465470  0.81525056  1
  In  In26  1  0.13316898  0.01537134  0.49652619  1
  In  In27  1  0.80601705  0.85444991  -0.04797380  1
  In  In28  1  0.68760676  0.84147446  0.17515605  1
  In  In29  1  0.34389419  0.84320226  0.52471593  1
  In  In30  1  0.54229982  0.35985603  0.85896019  1
  In  In31  1  0.34786495  0.00052399  0.67270292  1
  In  In32  1  0.15354464  0.31507113  0.83928122  1
  In  In33  1  0.17133903  0.68145788  0.84369052  1
  In  In34  1  -0.02904372  0.33797648  0.66951895  1
  In  In35  1  0.52156730  0.02448536  0.51936257  1
  In  In36  1  0.53644209  0.67029898  0.78975854  1
  In  In37  1  -0.00539008  0.82447362  0.48640129  1
  In  In38  1  0.33550118  0.49163815  0.16070259  1
  In  In39  1  0.67149579  -0.00447042  0.33798341  1
  In  In40  1  0.32983171  0.34048464  0.31750939  1
  In  In41  1  0.84754648  0.67869812  0.83073737  1
  In  In42  1  0.67376610  0.17141306  0.14356428  1
  In  In43  1  0.35676415  -0.00208784  -0.01861487  1
  In  In44  1  0.13848917  0.46242318  0.03248500  1
  In  In45  1  0.34022422  0.50516354  0.83082720  1
  In  In46  1  0.35496840  0.67449245  0.67532794  1
  In  In47  1  0.81555361  0.33404747  0.82681999  1
  In  In48  1  0.14800440  0.14933519  0.66788885  1
  In  In49  1  0.70061588  0.66547366  0.35344900  1
  In  In50  1  0.80116728  0.81679540  0.33201724  1
  In  In51  1  0.84385415  0.15944942  -0.00464648  1
  In  In52  1  0.15443759  0.18416407  0.00838140  1
  In  In53  1  0.19567665  0.82429773  0.68115543  1
  In  In54  1  0.49144432  0.48643573  0.33277683  1
  In  In55  1  0.14361619  0.86037648  -0.02269824  1
  In  In56  1  -0.00063604  -0.00100198  0.69807992  1
  In  In57  1  0.82857633  0.64778733  0.17452469  1
  In  In58  1  -0.00901736  0.49909744  0.82872381  1
  In  In59  1  0.50664089  0.16802204  -0.01700985  1
  In  In60  1  0.52969674  0.68732593  0.53601185  1
  In  In61  1  0.66639282  0.32705758  0.34224976  1
  In  In62  1  0.16825342  0.64965767  0.18244486  1
  In  In63  1  0.85980088  0.49075577  0.32346816  1
  In  In64  1  0.81591414  -0.00059014  0.51758409  1
  In  In65  1  0.34677811  0.18083623  0.49258418  1
  In  In66  1  0.35450822  0.67135747  -0.01603032  1
  In  In67  1  0.33969709  0.82318833  0.13331462  1
  In  In68  1  0.15164081  0.82734968  0.33522456  1
  In  In69  1  0.34316791  0.51025544  0.49998714  1
  In  In70  1  0.66766262  0.64514657  0.02642867  1
  In  In71  1  0.15649067  0.03409904  0.16272064  1
  Te  Te72  1  0.06059560  0.07512967  0.05717444  1
  Te  Te73  1  0.09501012  0.09884906  0.37635551  1
  Te  Te74  1  0.08430502  0.08584528  0.78411554  1
  Te  Te75  1  0.05187813  0.35634065  0.10181338  1
  Te  Te76  1  0.05666720  0.40402768  0.41518619  1
  Te  Te77  1  0.08343776  0.41229008  0.74387903  1
  Te  Te78  1  0.09277299  0.74650134  0.08083271  1
  Te  Te79  1  0.09268950  0.72284610  0.42717242  1
  Te  Te80  1  0.07753096  0.76606616  0.75876893  1
  Te  Te81  1  0.39877515  0.10804991  0.07894721  1
  Te  Te82  1  0.41133871  0.06222573  0.41144954  1
  Te  Te83  1  0.46069787  0.07816013  0.73980781  1
  Te  Te84  1  0.42178114  0.43337654  0.05623871  1
  Te  Te85  1  0.41700633  0.39643625  0.43054373  1
  Te  Te86  1  0.44643467  0.42455041  0.75630073  1
  Te  Te87  1  0.45179904  0.73658789  0.08271819  1
  Te  Te88  1  0.42236181  0.75052867  0.42813414  1
  Te  Te89  1  0.41496608  0.75966672  0.77889754  1
  Te  Te90  1  0.73800600  0.07268814  0.05622181  1
  Te  Te91  1  0.73388873  0.09693256  0.43289799  1
  Te  Te92  1  0.78079765  0.06867966  0.77360010  1
  Te  Te93  1  0.70844040  0.41721068  0.08676923  1
  Te  Te94  1  0.75245237  0.43017623  0.41752485  1
  Te  Te95  1  0.72273968  0.43586202  0.76323179  1
  Te  Te96  1  0.77231221  0.75585558  0.07484207  1
  Te  Te97  1  0.73347778  0.76928680  0.46121629  1
  Te  Te98  1  0.73739186  0.73806106  0.74717614  1
  Te  Te99  1  0.10287550  0.25710397  0.21039972  1
  Te  Te100  1  0.08039255  0.25442431  0.57985547  1
  Te  Te101  1  0.04876439  0.26029027  0.93076650  1
  Te  Te102  1  0.08383609  0.54131543  0.23893427  1
  Te  Te103  1  0.08369655  0.56771012  0.58713437  1
  Te  Te104  1  0.08293214  0.58135624  0.92162270  1
  Te  Te105  1  0.07598378  0.91202802  0.23452794  1
  Te  Te106  1  0.08035833  0.90651932  0.58730024  1
  Te  Te107  1  0.05765203  0.96843142  0.92304957  1
  Te  Te108  1  0.42813211  0.27441919  0.22625809  1
  Te  Te109  1  0.44787101  0.22403106  0.59293153  1
  Te  Te110  1  0.41599373  0.26173081  0.89100198  1
  Te  Te111  1  0.42687076  0.58927054  0.23922188  1
  Te  Te112  1  0.44242518  0.57844189  0.59570768  1
  Te  Te113  1  0.44670937  0.58959008  0.89717944  1
  Te  Te114  1  0.42695748  0.90710758  0.24022760  1
  Te  Te115  1  0.45171889  0.91203610  0.60347978  1
  Te  Te116  1  0.42833326  0.91294889  0.88370800  1
  Te  Te117  1  0.75665567  0.25297662  0.24123274  1
  Te  Te118  1  0.75949494  0.26297237  0.57205370  1
  Te  Te119  1  0.74061543  0.25860345  0.93489111  1
  Te  Te120  1  0.73848312  0.55581849  0.25225586  1
  Te  Te121  1  0.70773129  0.58563295  0.61330011  1
  Te  Te122  1  0.76706227  0.58759594  0.92345269  1
  Te  Te123  1  0.77854695  0.94226077  0.24432039  1
  Te  Te124  1  0.69863476  0.95675483  0.60141177  1
  Te  Te125  1  0.70305725  0.93518065  0.87290781  1
  Te  Te126  1  0.23273251  0.27182983  0.10445676  1
  Te  Te127  1  0.24191452  0.24994165  0.40687448  1
  Te  Te128  1  0.25208690  0.24398901  0.73591188  1
  Te  Te129  1  0.25323118  0.59086198  0.06743887  1
  Te  Te130  1  0.23483208  0.55451225  0.40758945  1
  Te  Te131  1  0.24504704  0.58965040  0.74784446  1
  Te  Te132  1  0.24484754  0.92872271  0.08063520  1
  Te  Te133  1  0.24336467  0.91147340  0.42491694  1
  Te  Te134  1  0.24286527  0.94000457  0.75673914  1
  Te  Te135  1  0.56840264  0.25492502  0.08437275  1
  Te  Te136  1  0.58388487  0.23622079  0.42528267  1
  Te  Te137  1  0.60308011  0.25362706  0.76975722  1
  Te  Te138  1  0.59312550  0.53241141  0.08686099  1
  Te  Te139  1  0.57387055  0.59473856  0.41445991  1
  Te  Te140  1  0.61726440  0.55049072  0.74049382  1
  Te  Te141  1  0.59258822  0.91680886  0.08185318  1
  Te  Te142  1  0.58132335  0.91144243  0.42574945  1
  Te  Te143  1  0.63487897  0.88775506  0.74955997  1
  Te  Te144  1  0.93146568  0.26830807  0.05055552  1
  Te  Te145  1  0.90085008  0.26119405  0.42367803  1
  Te  Te146  1  0.92029389  0.23664000  0.76949634  1
  Te  Te147  1  0.93665500  0.56309973  0.10715711  1
  Te  Te148  1  0.91037027  0.60778772  0.41126081  1
  Te  Te149  1  0.89945056  0.57272047  0.73303593  1
  Te  Te150  1  0.88054074  0.93680778  0.05801108  1
  Te  Te151  1  0.91192596  0.93100581  0.41507842  1
  Te  Te152  1  0.89433550  0.91578922  0.75787299  1
  Te  Te153  1  0.26478668  0.10745590  0.23117325  1
  Te  Te154  1  0.25186953  0.08081667  0.57155100  1
  Te  Te155  1  0.25476547  0.09668583  0.92450303  1
  Te  Te156  1  0.23772818  0.44449359  0.26343844  1
  Te  Te157  1  0.26733678  0.41771520  0.59858545  1
  Te  Te158  1  0.24407945  0.41595941  0.91289093  1
  Te  Te159  1  0.26403050  0.75418525  0.25491767  1
  Te  Te160  1  0.25291829  0.73158074  0.57462694  1
  Te  Te161  1  0.25973557  0.77645815  0.92156632  1
  Te  Te162  1  0.58068074  0.08495765  0.25343785  1
  Te  Te163  1  0.57411435  0.10298373  0.63253703  1
  Te  Te164  1  0.57241260  0.05823696  0.90795656  1
  Te  Te165  1  0.56160747  0.38428936  0.25073623  1
  Te  Te166  1  0.55746689  0.39684252  0.57350757  1
  Te  Te167  1  0.62044377  0.44082442  0.95741693  1
  Te  Te168  1  0.61034015  0.72782354  0.24062466  1
  Te  Te169  1  0.58473749  0.75101538  0.66000036  1
  Te  Te170  1  0.60660737  0.73166951  0.91728631  1
  Te  Te171  1  0.92210302  0.12059029  0.22005364  1
  Te  Te172  1  0.92635814  0.08387408  0.58542338  1
  Te  Te173  1  0.91955131  0.04117110  0.93684713  1
  Te  Te174  1  0.90121065  0.38483998  0.23020786  1
  Te  Te175  1  0.87922559  0.42607945  0.59609086  1
  Te  Te176  1  0.90470848  0.41753466  0.92148037  1
  Te  Te177  1  0.91912111  0.75733138  0.24347570  1
  Te  Te178  1  0.90887729  0.75201606  0.58897605  1
  Te  Te179  1  0.93443714  0.77560597  0.91012416  1
