# generated using pymatgen
data_In2Te3
_symmetry_space_group_name_H-M   'P 1'
_cell_length_a   18.87184679
_cell_length_b   18.86219141
_cell_length_c   18.87480212
_cell_angle_alpha   89.99341559
_cell_angle_beta   89.95332513
_cell_angle_gamma   89.98816131
_symmetry_Int_Tables_number   1
_chemical_formula_structural   In2Te3
_chemical_formula_sum   'In72 Te108'
_cell_volume   6718.75493730
_cell_formula_units_Z   36
loop_
 _symmetry_equiv_pos_site_id
 _symmetry_equiv_pos_as_xyz
  1  'x, y, z'
loop_
 _atom_site_type_symbol
 _atom_site_label
 _atom_site_symmetry_multiplicity
 _atom_site_fract_x
 _atom_site_fract_y
 _atom_site_fract_z
 _atom_site_occupancy
  In  In0  1  0.65307565  0.17551528  0.83615938  1
  In  In1  1  0.86450421  0.02279020  0.48394914  1
  In  In2  1  -0.00537092  0.83171025  0.18611270  1
  In  In3  1  0.64459122  0.80566794  0.82389405  1
  In  In4  1  0.16672377  0.00839307  0.81191099  1
  In  In5  1  -0.03600830  0.18994127  0.16208829  1
  In  In6  1  0.19751188  0.47780748  0.33319577  1
  In  In7  1  0.49756244  -0.01372543  0.80577998  1
  In  In8  1  0.32263315  0.01772775  0.66802961  1
  In  In9  1  0.16975978  0.19235810  0.00833958  1
  In  In10  1  0.17712936  0.80172216  -0.02660472  1
  In  In11  1  0.66494357  0.85688369  0.48970405  1
  In  In12  1  0.51546072  0.65337680  0.17147152  1
  In  In13  1  0.00821545  0.18505878  0.52665131  1
  In  In14  1  0.64205170  0.01092406  0.33339208  1
  In  In15  1  0.00783210  0.34194297  0.31949436  1
  In  In16  1  0.82082448  0.18825462  -0.00890628  1
  In  In17  1  -0.02121770  0.49051577  0.82914936  1
  In  In18  1  0.48995609  0.17012039  0.65370148  1
  In  In19  1  -0.01567254  0.50142374  0.16436532  1
  In  In20  1  0.34067487  0.83232304  0.50393454  1
  In  In21  1  0.66759608  -0.01595812  0.01342192  1
  In  In22  1  -0.00354457  0.64320738  -0.00029114  1
  In  In23  1  -0.02938383  0.00890154  -0.00185508  1
  In  In24  1  0.83615559  0.65219991  0.52257845  1
  In  In25  1  0.22278381  0.85733293  0.32439154  1
  In  In26  1  0.84385697  0.80167290  0.01576442  1
  In  In27  1  0.83741898  0.48809876  0.67125594  1
  In  In28  1  0.17119884  0.48167257  0.01359008  1
  In  In29  1  0.33185859  -0.00042001  -0.00721468  1
  In  In30  1  0.81497985  0.80719731  0.31310824  1
  In  In31  1  0.80822242  0.32200460  0.49355150  1
  In  In32  1  0.17698973  0.84881470  0.66303377  1
  In  In33  1  0.52067830  0.82456133  0.00815618  1
  In  In34  1  0.47759072  0.15861236  0.00809035  1
  In  In35  1  0.66648550  0.36565208  0.00782031  1
  In  In36  1  0.00175541  0.02900347  0.33950332  1
  In  In37  1  0.65479399  0.16922004  0.18183430  1
  In  In38  1  0.17396556  0.34772500  0.83571430  1
  In  In39  1  0.49470233  0.31213359  0.83465971  1
  In  In40  1  0.19762381  0.66470163  0.82751000  1
  In  In41  1  -0.00809350  0.49675322  0.49159279  1
  In  In42  1  0.18000104  0.46520408  0.62588669  1
  In  In43  1  0.01614445  0.83388467  0.83713855  1
  In  In44  1  0.80484998  0.18360916  0.32831509  1
  In  In45  1  0.34238909  0.84944821  0.18020759  1
  In  In46  1  0.64186173  0.34061189  0.32477615  1
  In  In47  1  0.34213366  0.48150609  0.16915515  1
  In  In48  1  0.18232645  0.18728864  0.66377975  1
  In  In49  1  -0.00996389  0.68152031  0.35604820  1
  In  In50  1  0.66546853  0.65404323  0.65988306  1
  In  In51  1  0.01112220  0.85615396  0.50969790  1
  In  In52  1  0.33336423  0.50176704  0.83193821  1
  In  In53  1  0.48960755  0.48230600  0.63968650  1
  In  In54  1  0.82937803  0.83376347  0.67493650  1
  In  In55  1  0.18320675  0.20303010  0.36790757  1
  In  In56  1  0.18450179  0.03007798  0.17160475  1
  In  In57  1  0.14581089  0.61931364  0.15228281  1
  In  In58  1  0.36277450  0.02641011  0.38633426  1
  In  In59  1  0.67244735  0.49549814  0.82177542  1
  In  In60  1  0.31180082  0.66559759  0.33264226  1
  In  In61  1  0.84329108  -0.00626170  0.85431847  1
  In  In62  1  0.84817858  0.22254574  0.68681985  1
  In  In63  1  0.17231499  0.66823702  0.50145034  1
  In  In64  1  0.66452934  0.04559163  0.64232813  1
  In  In65  1  0.67218296  0.60774996  0.00936369  1
  In  In66  1  0.66348975  0.61912565  0.31746136  1
  In  In67  1  0.48739659  0.32984311  0.48785702  1
  In  In68  1  0.66008371  0.83405512  0.16751706  1
  In  In69  1  0.35794828  0.20173239  0.19309221  1
  In  In70  1  0.51146733  0.65132513  0.48872898  1
  In  In71  1  0.47862646  0.80829629  0.69400517  1
  Te  Te72  1  0.06925099  0.08824579  0.08965693  1
  Te  Te73  1  0.09487746  0.09441646  0.43752422  1
  Te  Te74  1  0.08340536  0.09734486  0.73292500  1
  Te  Te75  1  0.07537719  0.40598479  0.09715435  1
  Te  Te76  1  0.09573746  0.40751355  0.42446700  1
  Te  Te77  1  0.08524340  0.42474561  0.73731336  1
  Te  Te78  1  0.07328842  0.75209538  0.07864479  1
  Te  Te79  1  0.10327702  0.77093972  0.41090182  1
  Te  Te80  1  0.09707758  0.74610605  0.74486394  1
  Te  Te81  1  0.39699814  0.07621181  0.10658396  1
  Te  Te82  1  0.45914372  0.13550860  0.41525995  1
  Te  Te83  1  0.40933375  0.10002194  0.76481040  1
  Te  Te84  1  0.45443693  0.41623096  0.09552029  1
  Te  Te85  1  0.40101570  0.40132377  0.38591113  1
  Te  Te86  1  0.41048045  0.40342461  0.74512347  1
  Te  Te87  1  0.42121277  0.74956184  0.09608665  1
  Te  Te88  1  0.41753628  0.74472055  0.40764466  1
  Te  Te89  1  0.42033635  0.70714245  0.78141168  1
  Te  Te90  1  0.74940149  0.08922002  0.08365257  1
  Te  Te91  1  0.73958153  0.08694321  0.42552075  1
  Te  Te92  1  0.75001876  0.07980544  0.76585797  1
  Te  Te93  1  0.75437137  0.45895765  0.08589781  1
  Te  Te94  1  0.73829836  0.41698362  0.40642377  1
  Te  Te95  1  0.74020276  0.39683761  0.73371438  1
  Te  Te96  1  0.73521939  0.72825897  0.08925065  1
  Te  Te97  1  0.74428367  0.73971896  0.43042646  1
  Te  Te98  1  0.75747497  0.72738500  0.75703021  1
  Te  Te99  1  0.08444154  0.22934963  0.25301123  1
  Te  Te100  1  0.09863087  0.28446489  0.58524987  1
  Te  Te101  1  0.07953753  0.26494026  0.91757193  1
  Te  Te102  1  0.08511963  0.57970036  0.28590329  1
  Te  Te103  1  0.07786850  0.58192846  0.58231182  1
  Te  Te104  1  0.10036528  0.57562559  0.91198659  1
  Te  Te105  1  0.09179708  0.93046533  0.25388451  1
  Te  Te106  1  0.08685716  0.94533034  0.59741199  1
  Te  Te107  1  0.08517593  0.93080686  0.93243958  1
  Te  Te108  1  0.43576872  0.30739561  0.26433613  1
  Te  Te109  1  0.39249817  0.26582560  0.59014261  1
  Te  Te110  1  0.39638206  0.24574188  0.92371706  1
  Te  Te111  1  0.41457740  0.57942069  0.26085164  1
  Te  Te112  1  0.41090014  0.59140323  0.57755639  1
  Te  Te113  1  0.41535537  0.60562363  0.89914518  1
  Te  Te114  1  0.41213973  0.92195228  0.28914360  1
  Te  Te115  1  0.42077659  0.91568093  0.60287144  1
  Te  Te116  1  0.42869819  0.90831865  0.91743348  1
  Te  Te117  1  0.75004295  0.27898466  0.22597975  1
  Te  Te118  1  0.74454209  0.22134842  0.58319057  1
  Te  Te119  1  0.74036251  0.28192219  0.90078298  1
  Te  Te120  1  0.73273004  0.54663001  0.21328960  1
  Te  Te121  1  0.73304814  0.55365291  0.57052672  1
  Te  Te122  1  0.77140642  0.56316176  0.90951343  1
  Te  Te123  1  0.74555078  0.92691158  0.25187814  1
  Te  Te124  1  0.76794468  0.93251545  0.57455255  1
  Te  Te125  1  0.74642583  0.89006427  0.92033510  1
  Te  Te126  1  0.25684030  0.26518145  0.10484657  1
  Te  Te127  1  0.27809151  0.30720075  0.41990645  1
  Te  Te128  1  0.26572237  0.25786337  0.76406003  1
  Te  Te129  1  0.26922790  0.58348203  0.07455429  1
  Te  Te130  1  0.26652492  0.56576314  0.43838818  1
  Te  Te131  1  0.24748814  0.56552881  0.72308763  1
  Te  Te132  1  0.23876766  0.91377744  0.08377392  1
  Te  Te133  1  0.24789876  0.93877682  0.44806825  1
  Te  Te134  1  0.27004635  0.90807404  0.76760909  1
  Te  Te135  1  0.58833625  0.24351949  0.06625216  1
  Te  Te136  1  0.58226945  0.23438207  0.41424011  1
  Te  Te137  1  0.59048809  0.25913705  0.72655622  1
  Te  Te138  1  0.54883869  0.54543807  0.07251257  1
  Te  Te139  1  0.57580907  0.54556131  0.40916597  1
  Te  Te140  1  0.56891481  0.57482856  0.74218107  1
  Te  Te141  1  0.56067770  0.93378527  0.10934654  1
  Te  Te142  1  0.55760001  0.91349892  0.40729680  1
  Te  Te143  1  0.61179071  0.92104726  0.72913085  1
  Te  Te144  1  0.90486272  0.28482738  0.06719846  1
  Te  Te145  1  0.92151411  0.24185949  0.40824743  1
  Te  Te146  1  0.93903348  0.29648505  0.77490019  1
  Te  Te147  1  0.89443177  0.54926847  0.05333592  1
  Te  Te148  1  0.89328612  0.57367057  0.40465595  1
  Te  Te149  1  0.91928111  0.58984840  0.73944675  1
  Te  Te150  1  0.90053999  0.91668482  0.09777750  1
  Te  Te151  1  0.91230983  0.90094295  0.39673497  1
  Te  Te152  1  0.92921040  0.92334767  0.74961127  1
  Te  Te153  1  0.26628554  0.09741892  0.28103640  1
  Te  Te154  1  0.27132310  0.11205087  0.56850987  1
  Te  Te155  1  0.24233962  0.09312854  0.91538790  1
  Te  Te156  1  0.22278998  0.39867757  0.20927584  1
  Te  Te157  1  0.28258574  0.37630231  0.56218940  1
  Te  Te158  1  0.27910502  0.40815517  0.93909841  1
  Te  Te159  1  0.23201762  0.73956466  0.22494108  1
  Te  Te160  1  0.26442857  0.74136705  0.59834839  1
  Te  Te161  1  0.29845190  0.73659166  0.91253133  1
  Te  Te162  1  0.54886295  0.10677651  0.26560318  1
  Te  Te163  1  0.54764229  0.07196140  0.55641739  1
  Te  Te164  1  0.57896519  0.06542598  0.91737076  1
  Te  Te165  1  0.55333525  0.39875611  0.21743245  1
  Te  Te166  1  0.58921349  0.40263796  0.56633682  1
  Te  Te167  1  0.56552916  0.42428044  0.90819162  1
  Te  Te168  1  0.58756747  0.74694489  0.26757116  1
  Te  Te169  1  0.58302485  0.76025225  0.58666699  1
  Te  Te170  1  0.58652395  0.71434492  0.92712167  1
  Te  Te171  1  0.89527255  0.08412359  0.24776635  1
  Te  Te172  1  0.91099225  0.10020814  0.60618100  1
  Te  Te173  1  0.92360561  0.11493489  0.90091589  1
  Te  Te174  1  0.90243242  0.42415192  0.25943365  1
  Te  Te175  1  0.91474003  0.39719624  0.57521374  1
  Te  Te176  1  0.92104040  0.37745991  0.90371612  1
  Te  Te177  1  0.90565296  0.71543487  0.23087854  1
  Te  Te178  1  0.92858038  0.75441954  0.58890390  1
  Te  Te179  1  0.92051514  0.73507791  0.90317884  1
