# generated using pymatgen
data_In2Te3
_symmetry_space_group_name_H-M   'P 1'
_cell_length_a   18.96373380
_cell_length_b   18.94045468
_cell_length_c   18.93859036
_cell_angle_alpha   89.83997335
_cell_angle_beta   90.17351101
_cell_angle_gamma   90.19928222
_symmetry_Int_Tables_number   1
_chemical_formula_structural   In2Te3
_chemical_formula_sum   'In72 Te108'
_cell_volume   6802.29718249
_cell_formula_units_Z   36
loop_
 _symmetry_equiv_pos_site_id
 _symmetry_equiv_pos_as_xyz
  1  'x, y, z'
loop_
 _atom_site_type_symbol
 _atom_site_label
 _atom_site_symmetry_multiplicity
 _atom_site_fract_x
 _atom_site_fract_y
 _atom_site_fract_z
 _atom_site_occupancy
  In  In0  1  -0.01952145  0.83729733  0.17434234  1
  In  In1  1  0.37214066  0.66765785  0.61348088  1
  In  In2  1  0.84730189  0.83667950  0.64713044  1
  In  In3  1  -0.03954811  0.32446527  0.35995736  1
  In  In4  1  0.49683940  0.37176803  0.50634014  1
  In  In5  1  -0.04327558  0.17773886  0.14491592  1
  In  In6  1  -0.00868658  0.01943809  0.64145661  1
  In  In7  1  0.69705758  0.64053931  0.64228332  1
  In  In8  1  0.76167601  0.81463769  -0.00441291  1
  In  In9  1  0.66330600  0.36342349  0.65615578  1
  In  In10  1  0.14360155  -0.02582798  0.16802789  1
  In  In11  1  0.31845882  -0.00483858  -0.00962964  1
  In  In12  1  0.34683886  0.51359918  0.17870358  1
  In  In13  1  0.15897067  0.02079944  0.48124501  1
  In  In14  1  -0.00173999  0.32597813  0.66258781  1
  In  In15  1  0.52165203  0.64061477  0.19622400  1
  In  In16  1  0.66640771  -0.01837660  0.01527742  1
  In  In17  1  0.11674633  0.30083816  0.85578492  1
  In  In18  1  0.80012143  0.47235320  0.01649831  1
  In  In19  1  0.35291593  0.33308066  0.35061738  1
  In  In20  1  0.32765845  0.16755384  0.85382443  1
  In  In21  1  0.69055601  0.41900089  0.34148692  1
  In  In22  1  0.65867736  0.50997000  0.82335520  1
  In  In23  1  0.33104708  0.35741549  0.66390702  1
  In  In24  1  0.14727998  -0.01816989  0.83119699  1
  In  In25  1  0.69428610  0.17412159  0.84377824  1
  In  In26  1  0.34240813  0.81232592  0.83416904  1
  In  In27  1  0.14698239  0.81608832  0.30964087  1
  In  In28  1  0.18574166  0.64902200  0.83767219  1
  In  In29  1  0.39085909  -0.02105564  0.64860079  1
  In  In30  1  0.52857609  -0.02800997  0.48851686  1
  In  In31  1  0.65213774  0.01380785  0.67811755  1
  In  In32  1  0.56998064  0.74975805  0.04237357  1
  In  In33  1  0.47681135  -0.00087035  0.18231861  1
  In  In34  1  0.52194212  0.18420300  0.00241326  1
  In  In35  1  0.33248880  0.19295704  0.16593997  1
  In  In36  1  -0.02124180  0.86213698  0.84901736  1
  In  In37  1  0.51937060  0.16780034  0.32968878  1
  In  In38  1  0.83644996  0.66297791  0.82310257  1
  In  In39  1  0.53583892  0.52860509  0.00049672  1
  In  In40  1  0.31300716  -0.01559289  0.33654429  1
  In  In41  1  0.52502991  0.20243328  0.66849828  1
  In  In42  1  -0.00832511  0.69791868  0.66049995  1
  In  In43  1  0.34156066  0.34641958  0.01112424  1
  In  In44  1  -0.03420360  0.47604749  0.19863449  1
  In  In45  1  -0.02086090  0.50703810  0.49979458  1
  In  In46  1  0.19461964  0.48466188  0.65402309  1
  In  In47  1  0.84262254  0.33917905  0.83590513  1
  In  In48  1  0.13640454  0.14677262  0.32991235  1
  In  In49  1  0.69273395  0.19840274  0.17447422  1
  In  In50  1  0.18142925  0.82730409  0.68744878  1
  In  In51  1  0.48758232  -0.00409210  0.82142774  1
  In  In52  1  0.15046359  0.32701612  0.15577369  1
  In  In53  1  0.82102895  0.00845321  0.16660987  1
  In  In54  1  0.69259928  0.81034894  0.46865217  1
  In  In55  1  0.33429883  0.63722806  -0.00758122  1
  In  In56  1  -0.02141826  0.66765846  0.04525382  1
  In  In57  1  0.66574567  0.82350773  0.19095773  1
  In  In58  1  0.00165289  0.52539216  0.82398723  1
  In  In59  1  0.34748522  0.81096707  0.18960897  1
  In  In60  1  0.82378158  0.01879298  0.50120225  1
  In  In61  1  0.52196449  0.83131424  0.63092424  1
  In  In62  1  -0.01945490  0.84836287  0.49344311  1
  In  In63  1  0.37732938  0.49732023  0.83150507  1
  In  In64  1  0.16642390  0.17701341  0.66135666  1
  In  In65  1  0.32007295  0.15798996  0.49285608  1
  In  In66  1  -0.01657430  0.02591747  -0.00323140  1
  In  In67  1  0.16677954  0.64025968  0.48855218  1
  In  In68  1  -0.03323586  0.65059235  0.32990735  1
  In  In69  1  0.70189202  0.20734212  0.49237249  1
  In  In70  1  0.14994224  0.48856448  0.31797874  1
  In  In71  1  0.17303679  0.48764596  0.01613633  1
  Te  Te72  1  0.07728312  0.08891905  0.09947090  1
  Te  Te73  1  0.04092924  0.09220735  0.43075451  1
  Te  Te74  1  0.07822208  0.08781010  0.74706347  1
  Te  Te75  1  0.05652153  0.42036907  0.08455979  1
  Te  Te76  1  0.07044337  0.41335461  0.42216405  1
  Te  Te77  1  0.09435171  0.42431471  0.75978544  1
  Te  Te78  1  0.07959422  0.75404884  0.10556429  1
  Te  Te79  1  0.06492055  0.73512374  0.41965400  1
  Te  Te80  1  0.08145676  0.75107293  0.77494871  1
  Te  Te81  1  0.41130034  0.09328909  0.07233156  1
  Te  Te82  1  0.41667868  0.08041483  0.40552515  1
  Te  Te83  1  0.41899998  0.11177400  0.74421736  1
  Te  Te84  1  0.43576234  0.44063389  0.08183788  1
  Te  Te85  1  0.45646020  0.43573111  0.37757267  1
  Te  Te86  1  0.44631107  0.41641592  0.73205865  1
  Te  Te87  1  0.42057075  0.72778678  0.08623453  1
  Te  Te88  1  0.44193440  0.65314650  0.48403296  1
  Te  Te89  1  0.42922510  0.75400233  0.72822341  1
  Te  Te90  1  0.74595632  0.09818463  0.06936686  1
  Te  Te91  1  0.73194715  0.09110172  0.41088351  1
  Te  Te92  1  0.75787490  0.09755738  0.73596967  1
  Te  Te93  1  0.71013803  0.39412195  0.10629790  1
  Te  Te94  1  0.78464407  0.41325215  0.46095452  1
  Te  Te95  1  0.76492796  0.43420650  0.74562291  1
  Te  Te96  1  0.77216379  0.74242482  0.12520275  1
  Te  Te97  1  0.75166779  0.71364472  0.37321923  1
  Te  Te98  1  0.75503875  0.75357663  0.73401496  1
  Te  Te99  1  0.06116073  0.25644383  0.25499393  1
  Te  Te100  1  0.09668458  0.26742409  0.57161874  1
  Te  Te101  1  0.02178862  0.24290960  0.95721788  1
  Te  Te102  1  0.06745246  0.58585044  0.23735609  1
  Te  Te103  1  0.08126451  0.58151134  0.60208311  1
  Te  Te104  1  0.08414122  0.59147199  0.93782305  1
  Te  Te105  1  0.05086652  0.92899771  0.27689959  1
  Te  Te106  1  0.07956472  0.90301026  0.59801431  1
  Te  Te107  1  0.08230611  0.91186194  0.94688114  1
  Te  Te108  1  0.43969712  0.26578583  0.24192580  1
  Te  Te109  1  0.41064886  0.25140075  0.57088768  1
  Te  Te110  1  0.42651553  0.26555941  0.91452973  1
  Te  Te111  1  0.42141876  0.58053355  0.28816776  1
  Te  Te112  1  0.39550140  0.52905093  0.55293984  1
  Te  Te113  1  0.44963350  0.61176454  0.89998690  1
  Te  Te114  1  0.42706612  0.89884376  0.28626120  1
  Te  Te115  1  0.41462910  0.88370954  0.53224014  1
  Te  Te116  1  0.42240547  0.90552223  0.92541990  1
  Te  Te117  1  0.74386528  0.28367610  0.28604834  1
  Te  Te118  1  0.74949041  0.24755869  0.62435267  1
  Te  Te119  1  0.76348841  0.26458234  0.94066912  1
  Te  Te120  1  0.74776586  0.54622569  0.27281152  1
  Te  Te121  1  0.74221735  0.53933071  0.54112100  1
  Te  Te122  1  0.75306748  0.58318298  0.92003466  1
  Te  Te123  1  0.74887067  0.92176860  0.26377929  1
  Te  Te124  1  0.73385363  0.91639920  0.58446683  1
  Te  Te125  1  0.75848645  0.93506765  0.91187762  1
  Te  Te126  1  0.23614016  0.24723155  0.06022284  1
  Te  Te127  1  0.23886104  0.24230656  0.39817265  1
  Te  Te128  1  0.24834285  0.26081195  0.76017219  1
  Te  Te129  1  0.24051536  0.59161450  0.10355678  1
  Te  Te130  1  0.24902307  0.56997235  0.39123363  1
  Te  Te131  1  0.27755531  0.58136096  0.74139761  1
  Te  Te132  1  0.26308972  0.90879532  0.10339923  1
  Te  Te133  1  0.22164257  0.89933413  0.42046191  1
  Te  Te134  1  0.27377204  0.92908062  0.75759971  1
  Te  Te135  1  0.59044030  0.27670208  0.09514621  1
  Te  Te136  1  0.57900120  0.26680400  0.42798595  1
  Te  Te137  1  0.60288755  0.27409145  0.77298040  1
  Te  Te138  1  0.62478976  0.61471095  0.08843346  1
  Te  Te139  1  0.64436847  0.60955613  0.36052748  1
  Te  Te140  1  0.58693722  0.59477243  0.72640287  1
  Te  Te141  1  0.56047045  0.90534776  0.09533927  1
  Te  Te142  1  0.62621530  0.92165387  0.39281518  1
  Te  Te143  1  0.58385622  0.90161366  0.75441388  1
  Te  Te144  1  0.89230979  0.26166057  0.04257400  1
  Te  Te145  1  0.92108134  0.21360128  0.44821825  1
  Te  Te146  1  0.93393810  0.24223443  0.76809630  1
  Te  Te147  1  0.88452796  0.56603592  0.10625924  1
  Te  Te148  1  0.88365649  0.53907362  0.38739496  1
  Te  Te149  1  0.90900863  0.58183114  0.71832360  1
  Te  Te150  1  0.90327940  0.92151737  0.07303627  1
  Te  Te151  1  0.88152550  0.91584570  0.41122097  1
  Te  Te152  1  0.90632089  0.93974778  0.74401811  1
  Te  Te153  1  0.25083232  0.08566334  0.24143535  1
  Te  Te154  1  0.25493324  0.06202696  0.59217923  1
  Te  Te155  1  0.21882786  0.08690405  0.92147543  1
  Te  Te156  1  0.25674206  0.39915702  0.23823691  1
  Te  Te157  1  0.26795818  0.41911833  0.54311444  1
  Te  Te158  1  0.26171414  0.42850896  0.91006298  1
  Te  Te159  1  0.26000539  0.73026785  0.27632087  1
  Te  Te160  1  0.24017681  0.74128568  0.58087829  1
  Te  Te161  1  0.24704483  0.75037600  0.93368245  1
  Te  Te162  1  0.59209157  0.08707154  0.22584283  1
  Te  Te163  1  0.57111919  0.08930244  0.57358792  1
  Te  Te164  1  0.58113247  0.07796948  0.90910902  1
  Te  Te165  1  0.61986346  0.45707879  0.21262485  1
  Te  Te166  1  0.60293889  0.46344826  0.55932523  1
  Te  Te167  1  0.59066373  0.42105858  0.91976540  1
  Te  Te168  1  0.57524899  0.74757095  0.28466240  1
  Te  Te169  1  0.59861631  0.72646305  0.55343023  1
  Te  Te170  1  0.64773884  0.75763775  0.92012643  1
  Te  Te171  1  0.89780854  0.10100915  0.25208281  1
  Te  Te172  1  0.90530365  0.12349834  0.57638334  1
  Te  Te173  1  0.93544266  0.12643865  0.90069426  1
  Te  Te174  1  0.87694717  0.36257616  0.24034997  1
  Te  Te175  1  0.90281416  0.40208854  0.57622403  1
  Te  Te176  1  0.91800628  0.44405308  0.91842752  1
  Te  Te177  1  0.88653353  0.74658852  0.24896702  1
  Te  Te178  1  0.89421748  0.73047298  0.54931724  1
  Te  Te179  1  0.91801835  0.74411077  0.92319519  1
