# generated using pymatgen
data_In2Te3
_symmetry_space_group_name_H-M   'P 1'
_cell_length_a   18.78486882
_cell_length_b   18.77611094
_cell_length_c   18.77949289
_cell_angle_alpha   89.98922466
_cell_angle_beta   89.93409141
_cell_angle_gamma   89.93674847
_symmetry_Int_Tables_number   1
_chemical_formula_structural   In2Te3
_chemical_formula_sum   'In72 Te108'
_cell_volume   6623.64594912
_cell_formula_units_Z   36
loop_
 _symmetry_equiv_pos_site_id
 _symmetry_equiv_pos_as_xyz
  1  'x, y, z'
loop_
 _atom_site_type_symbol
 _atom_site_label
 _atom_site_symmetry_multiplicity
 _atom_site_fract_x
 _atom_site_fract_y
 _atom_site_fract_z
 _atom_site_occupancy
  In  In0  1  0.19084403  0.84971607  0.33764702  1
  In  In1  1  -0.02351953  0.66594504  0.68333386  1
  In  In2  1  0.52638608  -0.00859954  0.84649471  1
  In  In3  1  0.00323451  -0.00009691  0.33475831  1
  In  In4  1  0.16908308  0.16713612  0.69773242  1
  In  In5  1  -0.00203820  0.66906536  0.30361195  1
  In  In6  1  -0.00615229  0.17072715  0.14617585  1
  In  In7  1  0.82720894  0.50595005  -0.02116935  1
  In  In8  1  0.66791128  0.14508307  0.17865176  1
  In  In9  1  0.00248463  0.80707047  0.51506614  1
  In  In10  1  0.83182128  0.83017816  0.33063408  1
  In  In11  1  0.83264032  0.34816544  0.50040647  1
  In  In12  1  0.48984990  0.15840064  0.66242352  1
  In  In13  1  0.35231047  0.69820772  0.35481103  1
  In  In14  1  0.18019327  0.35310936  0.50839983  1
  In  In15  1  0.50685105  0.49816439  0.34147185  1
  In  In16  1  0.17456302  0.01257698  0.16232366  1
  In  In17  1  0.49715756  0.32148443  0.83379932  1
  In  In18  1  0.19180108  0.66712987  0.51059325  1
  In  In19  1  0.17229981  -0.01985145  0.50927270  1
  In  In20  1  0.65682595  0.69947828  0.66637450  1
  In  In21  1  0.34937577  0.14852912  0.49262824  1
  In  In22  1  -0.01435325  0.52682860  0.83597023  1
  In  In23  1  0.50905195  0.67558340  0.15126421  1
  In  In24  1  0.63017192  -0.02847275  0.33171400  1
  In  In25  1  0.67338459  0.13926411  0.85663950  1
  In  In26  1  0.51036298  0.50279490  0.64748784  1
  In  In27  1  0.66855013  0.31589284  0.33818569  1
  In  In28  1  0.38285045  -0.02782084  0.31490211  1
  In  In29  1  0.67163587  0.50780219  0.49855299  1
  In  In30  1  0.66095561  0.31734680  -0.01551290  1
  In  In31  1  0.32250411  0.17928680  0.84674990  1
  In  In32  1  0.34617321  0.82891405  0.83860651  1
  In  In33  1  0.66043210  -0.02130191  0.68070027  1
  In  In34  1  -0.04243180  0.84077800  0.83529498  1
  In  In35  1  0.17043083  0.52510700  0.32736852  1
  In  In36  1  0.66138031  0.35870680  0.68841046  1
  In  In37  1  0.18082327  0.34713784  0.83718517  1
  In  In38  1  0.15166788  0.17560595  0.31471790  1
  In  In39  1  0.80438259  0.13721901  0.68557032  1
  In  In40  1  0.00402789  0.35692904  0.02180210  1
  In  In41  1  -0.03327681  0.36258589  0.26929855  1
  In  In42  1  0.81700805  -0.01527712  0.14707503  1
  In  In43  1  0.34065989  0.65525479  -0.00920320  1
  In  In44  1  -0.03938495  0.15986403  0.51489360  1
  In  In45  1  -0.03392603  0.83549620  0.14152600  1
  In  In46  1  0.64980170  0.16765644  0.49432179  1
  In  In47  1  0.48100120  0.33700965  0.15944715  1
  In  In48  1  -0.02886992  0.14782039  0.86522921  1
  In  In49  1  0.34976245  0.34139557  0.32706342  1
  In  In50  1  0.16471601  0.80327275  0.68015326  1
  In  In51  1  0.33947865  0.50809083  0.84271057  1
  In  In52  1  0.82833346  0.18611533  0.33601937  1
  In  In53  1  0.83670203  0.66954012  0.51290741  1
  In  In54  1  0.66104705  -0.00837033  -0.00102673  1
  In  In55  1  0.37069085  -0.02803852  0.64959987  1
  In  In56  1  -0.01598244  0.32085422  0.65309839  1
  In  In57  1  0.52684215  0.82630526  -0.01139699  1
  In  In58  1  0.79747641  0.00040975  0.51896977  1
  In  In59  1  0.34234772  0.50269489  0.15085069  1
  In  In60  1  0.34409218  0.14643825  0.14314748  1
  In  In61  1  0.18568965  0.84862193  0.00815276  1
  In  In62  1  -0.00063238  0.48862477  0.49102511  1
  In  In63  1  0.65450751  0.67236412  0.32557273  1
  In  In64  1  0.17124313  0.17716778  0.01421809  1
  In  In65  1  0.00069784  0.64973506  0.00720610  1
  In  In66  1  0.17672990  0.66267397  0.19312344  1
  In  In67  1  0.66385532  0.52437639  0.14481816  1
  In  In68  1  0.17618355  0.50071208  0.66715696  1
  In  In69  1  0.68264772  0.51928361  0.83368832  1
  In  In70  1  0.16707366  0.00736958  0.84125054  1
  In  In71  1  0.35917554  0.67153751  0.67834024  1
  Te  Te72  1  0.07261289  0.06841917  0.06512619  1
  Te  Te73  1  0.08692712  0.08369573  0.43099175  1
  Te  Te74  1  0.06120748  0.07787532  0.75734434  1
  Te  Te75  1  0.08615708  0.43519346  0.11344170  1
  Te  Te76  1  0.08960431  0.40974690  0.39724520  1
  Te  Te77  1  0.07384816  0.41258792  0.73977055  1
  Te  Te78  1  0.08821937  0.75273943  0.09502278  1
  Te  Te79  1  0.09493851  0.74270021  0.40562557  1
  Te  Te80  1  0.06871520  0.74057328  0.77824615  1
  Te  Te81  1  0.42895595  0.07481968  0.04843949  1
  Te  Te82  1  0.44277178  0.06181269  0.41805281  1
  Te  Te83  1  0.41280087  0.07432582  0.76408517  1
  Te  Te84  1  0.42889482  0.42921224  0.05640639  1
  Te  Te85  1  0.42324925  0.41518583  0.43035575  1
  Te  Te86  1  0.42290458  0.42150334  0.74585598  1
  Te  Te87  1  0.41219710  0.76196263  0.07138035  1
  Te  Te88  1  0.44723258  0.78407234  0.42950269  1
  Te  Te89  1  0.45084778  0.76026635  0.75844116  1
  Te  Te90  1  0.75790849  0.09829414  0.06280689  1
  Te  Te91  1  0.74183555  0.07334963  0.39542801  1
  Te  Te92  1  0.76674662  0.02858900  0.79110107  1
  Te  Te93  1  0.74205138  0.41570775  0.07056525  1
  Te  Te94  1  0.75647990  0.42829172  0.39760763  1
  Te  Te95  1  0.77000449  0.41926676  0.76421289  1
  Te  Te96  1  0.80475704  0.80855605  0.03700307  1
  Te  Te97  1  0.74287706  0.75224918  0.42575288  1
  Te  Te98  1  0.71711383  0.78047814  0.77808602  1
  Te  Te99  1  0.08382404  0.27223378  0.21925338  1
  Te  Te100  1  0.09382511  0.24223525  0.57994482  1
  Te  Te101  1  0.08625508  0.24748815  0.90701948  1
  Te  Te102  1  0.06406794  0.55344262  0.21718589  1
  Te  Te103  1  0.07461069  0.59482451  0.57942298  1
  Te  Te104  1  0.09300729  0.56682808  0.92704498  1
  Te  Te105  1  0.07505743  0.90180919  0.24377596  1
  Te  Te106  1  0.07814964  0.90591487  0.60443366  1
  Te  Te107  1  0.07955824  0.90692505  0.91445977  1
  Te  Te108  1  0.42017742  0.23059653  0.25089818  1
  Te  Te109  1  0.41170780  0.25073771  0.57895972  1
  Te  Te110  1  0.40987809  0.25857751  0.93497080  1
  Te  Te111  1  0.41784654  0.59149324  0.25265890  1
  Te  Te112  1  0.42034644  0.59154841  0.56995979  1
  Te  Te113  1  0.44283554  0.59822963  0.90102364  1
  Te  Te114  1  0.47070652  0.90024560  0.21894405  1
  Te  Te115  1  0.46875780  0.88471405  0.57810646  1
  Te  Te116  1  0.41794212  0.92390601  0.93322217  1
  Te  Te117  1  0.75900032  0.26259331  0.22645030  1
  Te  Te118  1  0.75767083  0.23916859  0.57695913  1
  Te  Te119  1  0.76212715  0.24737077  0.90117343  1
  Te  Te120  1  0.74945479  0.58571490  0.25157554  1
  Te  Te121  1  0.74722142  0.58587034  0.60355110  1
  Te  Te122  1  0.72827889  0.61407839  0.94194034  1
  Te  Te123  1  0.73150805  0.89938893  0.23795513  1
  Te  Te124  1  0.72689181  0.88891772  0.58184241  1
  Te  Te125  1  0.72878955  0.87802228  0.92128226  1
  Te  Te126  1  0.26060902  0.25915756  0.09726879  1
  Te  Te127  1  0.24863894  0.24751027  0.41156819  1
  Te  Te128  1  0.27047696  0.27382674  0.73611486  1
  Te  Te129  1  0.23572243  0.58310065  0.07636138  1
  Te  Te130  1  0.27832241  0.57956054  0.42076242  1
  Te  Te131  1  0.24704946  0.59928438  0.75677167  1
  Te  Te132  1  0.27255225  0.91988386  0.10320388  1
  Te  Te133  1  0.28722482  0.91872220  0.43100116  1
  Te  Te134  1  0.25202697  0.91699123  0.74854473  1
  Te  Te135  1  0.58269627  0.24373422  0.09343264  1
  Te  Te136  1  0.55979362  0.24784470  0.41014393  1
  Te  Te137  1  0.60040986  0.23014146  0.74646636  1
  Te  Te138  1  0.56661387  0.58481056  0.04919207  1
  Te  Te139  1  0.57153154  0.60193646  0.43289482  1
  Te  Te140  1  0.57986614  0.59348053  0.74797900  1
  Te  Te141  1  0.57719823  0.91863458  0.10065231  1
  Te  Te142  1  0.56442694  0.88940632  0.43735014  1
  Te  Te143  1  0.57048327  0.88045881  0.75585529  1
  Te  Te144  1  0.90376700  0.26064661  0.07309403  1
  Te  Te145  1  0.93669908  0.26918353  0.40507530  1
  Te  Te146  1  0.90630521  0.23313603  0.74993506  1
  Te  Te147  1  0.90592948  0.56679742  0.09265488  1
  Te  Te148  1  0.91796436  0.58916431  0.40940310  1
  Te  Te149  1  0.87712034  0.60524457  0.77398532  1
  Te  Te150  1  0.91037100  0.93160887  0.03577872  1
  Te  Te151  1  0.92041669  0.91130649  0.42835721  1
  Te  Te152  1  0.88589810  0.93478799  0.74798674  1
  Te  Te153  1  0.25720125  0.07056915  0.27626996  1
  Te  Te154  1  0.25016548  0.07896976  0.59942764  1
  Te  Te155  1  0.25963562  0.07442484  0.94000310  1
  Te  Te156  1  0.25174304  0.42274067  0.24444068  1
  Te  Te157  1  0.27635677  0.43807967  0.57932754  1
  Te  Te158  1  0.26272308  0.41938534  0.93499114  1
  Te  Te159  1  0.27765713  0.76784533  0.24122750  1
  Te  Te160  1  0.27671943  0.76810783  0.58247136  1
  Te  Te161  1  0.24235176  0.74478414  0.91148731  1
  Te  Te162  1  0.56095499  0.07912594  0.25603679  1
  Te  Te163  1  0.57841517  0.06522175  0.58022663  1
  Te  Te164  1  0.55397702  0.10363365  0.95115933  1
  Te  Te165  1  0.58910118  0.41780856  0.24056932  1
  Te  Te166  1  0.58816184  0.39624117  0.56280956  1
  Te  Te167  1  0.58374234  0.42281222  0.90650982  1
  Te  Te168  1  0.56256696  0.76950527  0.25709252  1
  Te  Te169  1  0.55609220  0.75385046  0.57053851  1
  Te  Te170  1  0.62860717  0.74999395  0.90727127  1
  Te  Te171  1  0.90734181  0.07885171  0.24603922  1
  Te  Te172  1  0.91148332  0.05014026  0.60812372  1
  Te  Te173  1  0.88708458  0.05903127  0.94516167  1
  Te  Te174  1  0.87876430  0.46610869  0.21443044  1
  Te  Te175  1  0.90315160  0.44058572  0.59975937  1
  Te  Te176  1  0.92015857  0.40746179  0.90391636  1
  Te  Te177  1  0.88492256  0.73465825  0.22218484  1
  Te  Te178  1  0.89174927  0.77245305  0.61347503  1
  Te  Te179  1  0.89887783  0.73614173  0.93101535  1
