# generated using pymatgen
data_In2Te3
_symmetry_space_group_name_H-M   'P 1'
_cell_length_a   18.76311222
_cell_length_b   18.76120572
_cell_length_c   18.76315299
_cell_angle_alpha   90.08818636
_cell_angle_beta   89.99190566
_cell_angle_gamma   90.00938011
_symmetry_Int_Tables_number   1
_chemical_formula_structural   In2Te3
_chemical_formula_sum   'In72 Te108'
_cell_volume   6604.97102695
_cell_formula_units_Z   36
loop_
 _symmetry_equiv_pos_site_id
 _symmetry_equiv_pos_as_xyz
  1  'x, y, z'
loop_
 _atom_site_type_symbol
 _atom_site_label
 _atom_site_symmetry_multiplicity
 _atom_site_fract_x
 _atom_site_fract_y
 _atom_site_fract_z
 _atom_site_occupancy
  In  In0  1  0.84221911  0.18765018  0.66674657  1
  In  In1  1  0.17407277  0.66179203  0.14255545  1
  In  In2  1  0.33160176  0.48518677  0.84597239  1
  In  In3  1  0.69127431  0.02323630  0.02273147  1
  In  In4  1  0.31473467  0.84261814  0.83796820  1
  In  In5  1  0.31997252  0.32370798  -0.00753549  1
  In  In6  1  0.03943941  0.34489541  0.02469802  1
  In  In7  1  0.84599714  0.32190540  0.49062001  1
  In  In8  1  0.16892786  0.02211328  0.19323512  1
  In  In9  1  -0.00297741  0.85498813  0.83896646  1
  In  In10  1  0.66758067  0.66923542  0.68432922  1
  In  In11  1  0.48855371  0.17865644  -0.00627076  1
  In  In12  1  0.67060836  -0.00044878  0.64859945  1
  In  In13  1  0.16059708  0.01949346  0.50018183  1
  In  In14  1  0.47851848  0.14872211  0.69456461  1
  In  In15  1  0.32134635  0.49129468  0.15665396  1
  In  In16  1  0.34300362  0.67337396  0.33928960  1
  In  In17  1  0.83942143  0.31520488  0.84017919  1
  In  In18  1  0.01134300  0.85125109  0.49525404  1
  In  In19  1  -0.00940629  0.49206069  0.49619087  1
  In  In20  1  0.49494926  0.66665505  0.49377613  1
  In  In21  1  0.65996651  0.32761461  -0.00672559  1
  In  In22  1  0.48077522  -0.00423141  0.15670937  1
  In  In23  1  0.83724031  0.53120379  0.68500540  1
  In  In24  1  -0.01736080  0.66742018  0.67258582  1
  In  In25  1  0.49648679  0.32364638  0.17817258  1
  In  In26  1  0.49688414  0.84804221  0.65599905  1
  In  In27  1  0.63827443  0.34887772  0.64807607  1
  In  In28  1  0.49423629  0.81535583  -0.00741703  1
  In  In29  1  0.84739175  0.49787333  0.01192351  1
  In  In30  1  0.17922610  0.17123780  -0.00124880  1
  In  In31  1  0.85886086  0.84163837  0.32876567  1
  In  In32  1  0.01128604  0.31181165  0.32137088  1
  In  In33  1  0.86311365  0.00978184  0.86253759  1
  In  In34  1  0.15379153  0.86231231  0.33278979  1
  In  In35  1  0.82260449  0.66971761  0.49532884  1
  In  In36  1  0.65954445  0.83977673  0.81596357  1
  In  In37  1  0.66653615  0.01272769  0.34063901  1
  In  In38  1  0.35130220  0.82459490  0.15709781  1
  In  In39  1  0.64102704  0.53490073  0.14078220  1
  In  In40  1  0.00694622  0.31390879  0.69432067  1
  In  In41  1  0.50261141  0.66026468  0.84683154  1
  In  In42  1  0.16670775  0.47932906  0.67889539  1
  In  In43  1  0.83432907  0.65343838  0.82992415  1
  In  In44  1  0.34275661  0.66235007  0.64501570  1
  In  In45  1  0.14807409  0.84565965  -0.02145123  1
  In  In46  1  0.66670712  0.47628901  0.85161137  1
  In  In47  1  0.19469566  0.65231637  0.49285241  1
  In  In48  1  0.50308853  0.85227242  0.32413747  1
  In  In49  1  0.66850763  0.66360220  0.32880851  1
  In  In50  1  0.32821517  0.17100767  0.50320801  1
  In  In51  1  0.01096558  0.66855637  0.29724863  1
  In  In52  1  0.17540363  0.85478113  0.67788756  1
  In  In53  1  0.16435126  0.32341182  0.49172695  1
  In  In54  1  0.82327353  0.00175137  0.49686536  1
  In  In55  1  0.31067374  0.00151914  -0.01519815  1
  In  In56  1  -0.00015951  0.16918757  0.49178168  1
  In  In57  1  0.48093174  0.47982684  0.33432079  1
  In  In58  1  0.67541757  0.81549643  0.16912427  1
  In  In59  1  0.83854396  0.30950767  0.16552522  1
  In  In60  1  0.50356717  0.17482461  0.33963400  1
  In  In61  1  0.31560865  0.30606881  0.69329754  1
  In  In62  1  0.31502342  0.33536872  0.32814265  1
  In  In63  1  -0.00005837  0.15526194  0.15926304  1
  In  In64  1  0.34716544  0.51061485  0.48210006  1
  In  In65  1  0.16515337  0.66124181  0.86281881  1
  In  In66  1  0.00436099  0.65410588  0.00419951  1
  In  In67  1  0.49307408  0.00422669  0.51294292  1
  In  In68  1  0.82370649  0.47528783  0.31478469  1
  In  In69  1  0.65806944  0.16569115  0.82747942  1
  In  In70  1  0.84754550  0.85984737  0.03482576  1
  In  In71  1  0.68187971  0.31231468  0.33170548  1
  Te  Te72  1  0.09177579  0.06763567  0.06860531  1
  Te  Te73  1  0.07556560  0.08418299  0.39643589  1
  Te  Te74  1  0.13514817  0.12429148  0.71107065  1
  Te  Te75  1  0.09450658  0.44020053  0.12410997  1
  Te  Te76  1  0.08726765  0.42003033  0.40334153  1
  Te  Te77  1  0.09856245  0.39587146  0.77914496  1
  Te  Te78  1  0.07531558  0.76415654  0.08483605  1
  Te  Te79  1  0.08246077  0.73686024  0.41885909  1
  Te  Te80  1  0.09049429  0.74667600  0.75187959  1
  Te  Te81  1  0.39343285  0.09193590  0.07827117  1
  Te  Te82  1  0.40771813  0.07882287  0.41064676  1
  Te  Te83  1  0.37990157  0.06810880  0.76858624  1
  Te  Te84  1  0.42329429  0.40847197  0.07745943  1
  Te  Te85  1  0.41853600  0.38184673  0.43155623  1
  Te  Te86  1  0.40624042  0.41366236  0.74077635  1
  Te  Te87  1  0.42886690  0.71725566  0.08653808  1
  Te  Te88  1  0.41264459  0.77591359  0.42713149  1
  Te  Te89  1  0.41576576  0.75074255  0.75502648  1
  Te  Te90  1  0.77960051  0.09527116  0.11418203  1
  Te  Te91  1  0.74653075  0.10528075  0.42348406  1
  Te  Te92  1  0.75799364  0.08123462  0.74843526  1
  Te  Te93  1  0.74259555  0.41424608  0.09208192  1
  Te  Te94  1  0.74469463  0.42000749  0.43001077  1
  Te  Te95  1  0.75701535  0.40585538  0.74582334  1
  Te  Te96  1  0.76299046  0.74457012  0.07410047  1
  Te  Te97  1  0.74616986  0.76841804  0.40751663  1
  Te  Te98  1  0.77180709  0.76447742  0.74347898  1
  Te  Te99  1  0.10317434  0.23627545  0.23132392  1
  Te  Te100  1  0.09942490  0.23480343  0.59734061  1
  Te  Te101  1  0.07341784  0.24209128  0.91920274  1
  Te  Te102  1  0.09198128  0.56428690  0.22635188  1
  Te  Te103  1  0.08213536  0.58162696  0.58260392  1
  Te  Te104  1  0.10026708  0.55583562  0.94456053  1
  Te  Te105  1  0.06367840  0.92120745  0.23105010  1
  Te  Te106  1  0.07276916  0.93908829  0.60365500  1
  Te  Te107  1  0.09603540  0.95255150  0.89082322  1
  Te  Te108  1  0.39279172  0.22992164  0.24192088  1
  Te  Te109  1  0.41991031  0.25148305  0.59454786  1
  Te  Te110  1  0.41217916  0.25720289  0.89484450  1
  Te  Te111  1  0.41621686  0.58091971  0.24200395  1
  Te  Te112  1  0.44323839  0.55501754  0.59827605  1
  Te  Te113  1  0.41833064  0.57284487  0.93360398  1
  Te  Te114  1  0.38873290  0.93142808  0.26063116  1
  Te  Te115  1  0.39274071  0.92852001  0.59072075  1
  Te  Te116  1  0.42347512  0.92321254  0.91272926  1
  Te  Te117  1  0.74644180  0.21525077  0.23591762  1
  Te  Te118  1  0.73904979  0.25256407  0.57715167  1
  Te  Te119  1  0.75435178  0.22546276  0.93030096  1
  Te  Te120  1  0.75552745  0.58482217  0.23167032  1
  Te  Te121  1  0.73611721  0.57671463  0.58033978  1
  Te  Te122  1  0.74567619  0.57994417  0.93085271  1
  Te  Te123  1  0.75080046  0.92076661  0.24981012  1
  Te  Te124  1  0.74947515  0.89955027  0.57525676  1
  Te  Te125  1  0.74731430  0.91932446  0.92045702  1
  Te  Te126  1  0.23764811  0.26222011  0.10318391  1
  Te  Te127  1  0.22942152  0.22378369  0.39635719  1
  Te  Te128  1  0.21993372  0.22996474  0.77972461  1
  Te  Te129  1  0.25265705  0.57348565  0.05239478  1
  Te  Te130  1  0.24373016  0.56119978  0.38097296  1
  Te  Te131  1  0.24954298  0.59397682  0.74536918  1
  Te  Te132  1  0.24420822  0.91114053  0.09062755  1
  Te  Te133  1  0.24808669  0.92337721  0.42652547  1
  Te  Te134  1  0.25913535  0.95380480  0.75465875  1
  Te  Te135  1  0.58962522  0.23549215  0.09404639  1
  Te  Te136  1  0.58372277  0.26028131  0.42915164  1
  Te  Te137  1  0.56875094  0.26441226  0.75624063  1
  Te  Te138  1  0.54454118  0.60234243  0.05447763  1
  Te  Te139  1  0.58042118  0.57032249  0.41172830  1
  Te  Te140  1  0.58344352  0.56613346  0.75766373  1
  Te  Te141  1  0.58527562  0.91117808  0.08097368  1
  Te  Te142  1  0.58954670  0.91601830  0.43190113  1
  Te  Te143  1  0.56988379  0.94340376  0.75171467  1
  Te  Te144  1  0.92377658  0.24344203  0.05824594  1
  Te  Te145  1  0.90196325  0.22627732  0.38594647  1
  Te  Te146  1  0.93955476  0.20640794  0.78619131  1
  Te  Te147  1  0.91427686  0.59185227  0.10467350  1
  Te  Te148  1  0.91093001  0.58290797  0.40253263  1
  Te  Te149  1  0.95142187  0.56395998  0.78084809  1
  Te  Te150  1  0.94020409  0.95170791  0.10190019  1
  Te  Te151  1  0.93645059  0.94926159  0.40511966  1
  Te  Te152  1  0.91585124  0.93516331  0.74586793  1
  Te  Te153  1  0.26098354  0.12072978  0.25055085  1
  Te  Te154  1  0.24602650  0.09427253  0.60389959  1
  Te  Te155  1  0.27969705  0.11909970  0.89082861  1
  Te  Te156  1  0.22409675  0.39222053  0.21948827  1
  Te  Te157  1  0.25668744  0.41536726  0.57219638  1
  Te  Te158  1  0.22406983  0.41100885  0.91672370  1
  Te  Te159  1  0.24337470  0.75350874  0.25380656  1
  Te  Te160  1  0.25456284  0.76572704  0.57589175  1
  Te  Te161  1  0.26297436  0.74677163  0.94318979  1
  Te  Te162  1  0.57593279  0.08356965  0.23848112  1
  Te  Te163  1  0.58087168  0.10512166  0.58570961  1
  Te  Te164  1  0.58257404  0.07540476  0.92589874  1
  Te  Te165  1  0.59721405  0.42062795  0.24585292  1
  Te  Te166  1  0.56078022  0.44975367  0.57695852  1
  Te  Te167  1  0.55795869  0.40839666  0.92447322  1
  Te  Te168  1  0.56532999  0.73831927  0.24396083  1
  Te  Te169  1  0.58904360  0.75135634  0.58118925  1
  Te  Te170  1  0.60961955  0.74183319  0.92114119  1
  Te  Te171  1  0.89711704  0.05718907  0.21211812  1
  Te  Te172  1  0.92019265  0.08287240  0.58883444  1
  Te  Te173  1  0.93914225  0.11550703  0.92859757  1
  Te  Te174  1  0.93295278  0.41032361  0.23221587  1
  Te  Te175  1  0.91903431  0.40795550  0.60167900  1
  Te  Te176  1  0.92925892  0.40496037  0.92496889  1
  Te  Te177  1  0.90966579  0.74782996  0.22560426  1
  Te  Te178  1  0.91280602  0.76274336  0.57731336  1
  Te  Te179  1  0.91511142  0.75470855  0.91969481  1
