# generated using pymatgen
data_In2Te3
_symmetry_space_group_name_H-M   'P 1'
_cell_length_a   18.98328451
_cell_length_b   18.95929413
_cell_length_c   18.97661724
_cell_angle_alpha   89.87727482
_cell_angle_beta   90.13064367
_cell_angle_gamma   90.14631587
_symmetry_Int_Tables_number   1
_chemical_formula_structural   In2Te3
_chemical_formula_sum   'In72 Te108'
_cell_volume   6829.81252460
_cell_formula_units_Z   36
loop_
 _symmetry_equiv_pos_site_id
 _symmetry_equiv_pos_as_xyz
  1  'x, y, z'
loop_
 _atom_site_type_symbol
 _atom_site_label
 _atom_site_symmetry_multiplicity
 _atom_site_fract_x
 _atom_site_fract_y
 _atom_site_fract_z
 _atom_site_occupancy
  In  In0  1  0.48927159  0.17224134  0.01278777  1
  In  In1  1  0.83428129  0.49158945  0.32758932  1
  In  In2  1  0.33138288  0.86322478  0.50138820  1
  In  In3  1  0.33501932  0.64664497  0.70131406  1
  In  In4  1  0.66998924  0.33364245  0.64438210  1
  In  In5  1  0.66567739  0.49166605  0.83927025  1
  In  In6  1  0.48079480  0.32161411  0.84479400  1
  In  In7  1  0.87598129  0.85795032  0.66067346  1
  In  In8  1  0.19165296  0.68102956  0.48560323  1
  In  In9  1  0.16849266  0.52193524  -0.00493902  1
  In  In10  1  0.31779962  0.47017281  0.48829013  1
  In  In11  1  0.50428283  0.84003462  0.26221714  1
  In  In12  1  0.16022044  0.82826843  0.66715791  1
  In  In13  1  0.16753196  0.35379878  0.84310169  1
  In  In14  1  0.33190136  0.82348414  0.16236566  1
  In  In15  1  0.83205090  0.49361044  0.01276552  1
  In  In16  1  0.31602707  0.21235934  0.47888278  1
  In  In17  1  0.16789631  0.81337170  -0.00911178  1
  In  In18  1  0.46647043  0.52083995  0.32168809  1
  In  In19  1  0.66490725  0.00942031  0.32339256  1
  In  In20  1  0.64735808  0.31577670  0.32152756  1
  In  In21  1  0.15879073  0.65689557  0.17578809  1
  In  In22  1  0.82629043  0.85511523  0.33713616  1
  In  In23  1  0.68910979  0.17356439  0.49100176  1
  In  In24  1  0.01896369  0.66719904  0.68352234  1
  In  In25  1  0.47915277  0.49758779  0.00720761  1
  In  In26  1  0.66343662  0.15667840  0.16406887  1
  In  In27  1  0.64889298  0.65892579  0.01527646  1
  In  In28  1  0.02705499  0.68247694  0.33578443  1
  In  In29  1  0.47844848  0.33709103  0.17196055  1
  In  In30  1  0.34430233  0.67095424  0.31160846  1
  In  In31  1  0.00645051  0.32066239  0.32815652  1
  In  In32  1  0.19582540  0.34451287  0.17137840  1
  In  In33  1  0.15835173  0.02273646  0.50296148  1
  In  In34  1  0.69404739  0.67240961  0.63445317  1
  In  In35  1  0.83535755  0.65494106  0.16086075  1
  In  In36  1  0.68590745  -0.00586225  0.70099648  1
  In  In37  1  0.62040028  -0.01906763  0.02742132  1
  In  In38  1  0.48293959  -0.00980840  0.82987578  1
  In  In39  1  0.48533611  0.65592991  0.50603804  1
  In  In40  1  0.16683615  0.16526599  0.01473739  1
  In  In41  1  0.66309363  0.51643448  0.47408885  1
  In  In42  1  0.02143312  0.14639116  0.82163570  1
  In  In43  1  0.32676952  0.32147698  0.68978060  1
  In  In44  1  0.66938210  0.83426725  0.48300662  1
  In  In45  1  0.82468994  0.68500898  0.49950259  1
  In  In46  1  -0.03055781  0.16479661  0.16599590  1
  In  In47  1  0.00051048  0.02567913  0.33906450  1
  In  In48  1  0.31891167  0.01159359  -0.00370603  1
  In  In49  1  -0.00435123  0.34709955  0.02120381  1
  In  In50  1  0.86728929  0.32609542  0.48900472  1
  In  In51  1  0.87184847  0.01308595  0.52313776  1
  In  In52  1  0.84430434  0.32892997  0.84442674  1
  In  In53  1  0.00810983  0.49006546  0.48717138  1
  In  In54  1  0.49988428  0.02655199  0.50036662  1
  In  In55  1  0.03900305  0.30621961  0.65272632  1
  In  In56  1  0.48822377  0.15394289  0.66891406  1
  In  In57  1  0.00831031  0.84446111  0.15766749  1
  In  In58  1  0.50558741  0.65027728  0.85181220  1
  In  In59  1  0.18706608  0.02402692  0.19758558  1
  In  In60  1  0.31822110  0.01702278  0.64486616  1
  In  In61  1  0.00436993  -0.01410800  -0.01677713  1
  In  In62  1  0.83118217  0.82461498  -0.01421716  1
  In  In63  1  0.68409275  0.16714535  0.83731537  1
  In  In64  1  0.67676516  0.81078861  0.83314270  1
  In  In65  1  0.87110761  0.66452216  0.84093371  1
  In  In66  1  0.32356670  0.81937825  0.83883897  1
  In  In67  1  0.17947775  0.50615578  0.67788130  1
  In  In68  1  0.48009199  0.16445599  0.34228698  1
  In  In69  1  0.85493697  0.00028301  0.82728547  1
  In  In70  1  0.50782658  0.48060624  0.69006865  1
  In  In71  1  0.80829043  0.33921944  0.17653008  1
  Te  Te72  1  0.07416642  0.07138120  0.09424030  1
  Te  Te73  1  0.09662659  0.11925833  0.40541554  1
  Te  Te74  1  0.05104457  0.05043247  0.71224840  1
  Te  Te75  1  0.09429888  0.43264981  0.09620694  1
  Te  Te76  1  0.10009946  0.40408496  0.41121769  1
  Te  Te77  1  0.07326530  0.42388281  0.74790869  1
  Te  Te78  1  0.07147496  0.73401497  0.07720797  1
  Te  Te79  1  0.09041948  0.77104123  0.43246898  1
  Te  Te80  1  0.11729658  0.73307671  0.77420755  1
  Te  Te81  1  0.40890373  0.07836160  0.09080388  1
  Te  Te82  1  0.38270963  0.08356356  0.42666472  1
  Te  Te83  1  0.39027033  0.08991734  0.76260335  1
  Te  Te84  1  0.39273986  0.38703128  0.05986912  1
  Te  Te85  1  0.41732284  0.40483172  0.40070091  1
  Te  Te86  1  0.39633386  0.42753789  0.77533538  1
  Te  Te87  1  0.45572294  0.75540588  0.10712566  1
  Te  Te88  1  0.40781505  0.75610074  0.42361176  1
  Te  Te89  1  0.43215722  0.74711790  0.75772620  1
  Te  Te90  1  0.72958964  0.06773820  0.06877853  1
  Te  Te91  1  0.76568614  0.06526971  0.42336294  1
  Te  Te92  1  0.78235922  0.10304751  0.74055798  1
  Te  Te93  1  0.72962245  0.43727897  0.10004779  1
  Te  Te94  1  0.74760097  0.39798281  0.41540343  1
  Te  Te95  1  0.75169938  0.41029162  0.74672846  1
  Te  Te96  1  0.74444342  0.75321191  0.08725213  1
  Te  Te97  1  0.73652428  0.73823637  0.38802717  1
  Te  Te98  1  0.77598793  0.75650688  0.73222697  1
  Te  Te99  1  0.08319800  0.24745079  0.22049956  1
  Te  Te100  1  0.05088332  0.21717902  0.53270400  1
  Te  Te101  1  0.07135486  0.25484060  0.92811982  1
  Te  Te102  1  0.08933478  0.56870752  0.27132324  1
  Te  Te103  1  0.09999413  0.58588876  0.57044621  1
  Te  Te104  1  0.11382057  0.60320489  0.88428380  1
  Te  Te105  1  0.08513496  0.92538595  0.25892530  1
  Te  Te106  1  0.08114875  0.93331297  0.59723045  1
  Te  Te107  1  0.12010205  0.93000471  0.91028396  1
  Te  Te108  1  0.39090966  0.23323930  0.24224682  1
  Te  Te109  1  0.41971075  0.25896822  0.58695874  1
  Te  Te110  1  0.39884449  0.21822006  0.90620990  1
  Te  Te111  1  0.37562810  0.56470484  0.21104150  1
  Te  Te112  1  0.40627651  0.55811629  0.59311344  1
  Te  Te113  1  0.39702122  0.60015889  0.93688996  1
  Te  Te114  1  0.38225460  0.91863633  0.26279257  1
  Te  Te115  1  0.43236969  0.92915646  0.59495269  1
  Te  Te116  1  0.40956807  0.90748665  0.93244153  1
  Te  Te117  1  0.75377884  0.22690753  0.26453860  1
  Te  Te118  1  0.77930779  0.24570796  0.58797891  1
  Te  Te119  1  0.74031118  0.26746414  0.92655218  1
  Te  Te120  1  0.74627024  0.56539928  0.23719451  1
  Te  Te121  1  0.77116100  0.55852418  0.57255737  1
  Te  Te122  1  0.74683609  0.59876988  0.90949496  1
  Te  Te123  1  0.72765537  0.90565519  0.24245456  1
  Te  Te124  1  0.75123145  0.91357287  0.58303763  1
  Te  Te125  1  0.74488376  0.92456032  0.90627672  1
  Te  Te126  1  0.26444837  0.26519188  0.06600079  1
  Te  Te127  1  0.22978357  0.30015426  0.39116038  1
  Te  Te128  1  0.21669574  0.24760907  0.75265055  1
  Te  Te129  1  0.26070923  0.58224132  0.09843029  1
  Te  Te130  1  0.25603115  0.57579901  0.40024493  1
  Te  Te131  1  0.23977656  0.57950736  0.79509347  1
  Te  Te132  1  0.22980942  0.91648224  0.09021268  1
  Te  Te133  1  0.23732905  0.93325116  0.41600906  1
  Te  Te134  1  0.25593110  0.91877156  0.74260843  1
  Te  Te135  1  0.58393515  0.26164551  0.09009372  1
  Te  Te136  1  0.57077668  0.24716993  0.43319587  1
  Te  Te137  1  0.58327393  0.25323617  0.74528865  1
  Te  Te138  1  0.56736714  0.57237629  0.10158538  1
  Te  Te139  1  0.57405363  0.60703924  0.39406162  1
  Te  Te140  1  0.60022020  0.59364700  0.73452663  1
  Te  Te141  1  0.55724645  0.89079791  0.12521557  1
  Te  Te142  1  0.56808724  0.92302833  0.41173845  1
  Te  Te143  1  0.57966127  0.90155039  0.75266309  1
  Te  Te144  1  0.88720699  0.25667925  0.07732043  1
  Te  Te145  1  0.92076720  0.22355790  0.39994841  1
  Te  Te146  1  0.93637105  0.24992015  0.75085105  1
  Te  Te147  1  0.92541559  0.59300738  0.06453406  1
  Te  Te148  1  0.91481017  0.59026945  0.41256042  1
  Te  Te149  1  0.91445446  0.57803172  0.73339424  1
  Te  Te150  1  0.90498030  0.92157559  0.07837259  1
  Te  Te151  1  0.93177175  0.91407399  0.42648317  1
  Te  Te152  1  0.95710113  0.90748088  0.77329698  1
  Te  Te153  1  0.27639634  0.12729187  0.24331341  1
  Te  Te154  1  0.23933563  0.12847507  0.58225092  1
  Te  Te155  1  0.21488566  0.07271140  0.90884649  1
  Te  Te156  1  0.29120203  0.38348704  0.28166107  1
  Te  Te157  1  0.23455823  0.39600107  0.59016879  1
  Te  Te158  1  0.25722087  0.41215153  0.94491202  1
  Te  Te159  1  0.23302002  0.75930831  0.25935363  1
  Te  Te160  1  0.27549495  0.74504463  0.59793695  1
  Te  Te161  1  0.28470569  0.73084864  0.95100981  1
  Te  Te162  1  0.55803010  0.08127282  0.24375067  1
  Te  Te163  1  0.60869603  0.08433255  0.59686253  1
  Te  Te164  1  0.58155366  0.07790869  0.90849468  1
  Te  Te165  1  0.57035793  0.42482210  0.25561047  1
  Te  Te166  1  0.57893501  0.42762047  0.56700666  1
  Te  Te167  1  0.57668583  0.40837360  0.92488922  1
  Te  Te168  1  0.54139924  0.70395805  0.21739220  1
  Te  Te169  1  0.57939899  0.75406879  0.57663979  1
  Te  Te170  1  0.57326014  0.76206989  0.93138357  1
  Te  Te171  1  0.89746876  0.06308864  0.24166202  1
  Te  Te172  1  0.96379270  0.10405646  0.59629374  1
  Te  Te173  1  0.91922772  0.09789796  0.92409907  1
  Te  Te174  1  0.92567488  0.41413159  0.23740757  1
  Te  Te175  1  0.93758021  0.40924723  0.59247674  1
  Te  Te176  1  0.92985823  0.43319902  0.91425369  1
  Te  Te177  1  0.91740047  0.75940018  0.24970516  1
  Te  Te178  1  0.93766513  0.74794662  0.57760945  1
  Te  Te179  1  0.94202095  0.77600671  0.90205623  1
