# generated using pymatgen
data_In2Te3
_symmetry_space_group_name_H-M   'P 1'
_cell_length_a   18.78593678
_cell_length_b   18.79126039
_cell_length_c   18.78527653
_cell_angle_alpha   90.02453028
_cell_angle_beta   89.98323020
_cell_angle_gamma   90.06515571
_symmetry_Int_Tables_number   1
_chemical_formula_structural   In2Te3
_chemical_formula_sum   'In72 Te108'
_cell_volume   6631.41214716
_cell_formula_units_Z   36
loop_
 _symmetry_equiv_pos_site_id
 _symmetry_equiv_pos_as_xyz
  1  'x, y, z'
loop_
 _atom_site_type_symbol
 _atom_site_label
 _atom_site_symmetry_multiplicity
 _atom_site_fract_x
 _atom_site_fract_y
 _atom_site_fract_z
 _atom_site_occupancy
  In  In0  1  0.33614178  0.16668737  0.84294793  1
  In  In1  1  0.00889677  0.85466277  0.50912136  1
  In  In2  1  0.66362693  0.18228542  0.18374880  1
  In  In3  1  0.32216147  0.31825646  0.66168592  1
  In  In4  1  0.66316815  0.02025353  0.32310012  1
  In  In5  1  0.65970780  0.84263418  0.49903976  1
  In  In6  1  0.36198572  0.16409875  0.15207535  1
  In  In7  1  0.33182160  0.15837743  0.50284975  1
  In  In8  1  0.65128829  0.00058957  0.65925734  1
  In  In9  1  0.65490554  0.32885239  0.69455897  1
  In  In10  1  0.20878913  0.82237839  -0.04010769  1
  In  In11  1  0.01201654  0.02114434  0.67528318  1
  In  In12  1  0.65960303  0.32088907  0.01554752  1
  In  In13  1  0.49017807  0.65060669  0.50564124  1
  In  In14  1  0.48198341  0.66375833  0.14569575  1
  In  In15  1  0.01045305  0.63957561  -0.02620611  1
  In  In16  1  0.33413388  0.35321317  0.00137873  1
  In  In17  1  0.85498674  0.83809242  0.33810864  1
  In  In18  1  0.02338589  0.29873187  -0.02946021  1
  In  In19  1  0.19785737  0.85541156  0.31351564  1
  In  In20  1  0.34126852  0.83385025  0.15152533  1
  In  In21  1  0.01616714  0.83120064  0.80768284  1
  In  In22  1  0.81099263  0.83914270  -0.01123488  1
  In  In23  1  0.51388105  0.31615860  0.83707190  1
  In  In24  1  0.80521444  0.65008176  0.52417521  1
  In  In25  1  0.82852970  0.32829749  0.83572080  1
  In  In26  1  0.84997261  0.63925377  0.83840982  1
  In  In27  1  0.47439421  0.83331104  0.67715878  1
  In  In28  1  0.68537350  0.64626012  0.66191741  1
  In  In29  1  0.65449110  0.16851277  0.49489373  1
  In  In30  1  -0.01144669  0.50200421  0.52237612  1
  In  In31  1  0.01930530  0.65655605  0.67501095  1
  In  In32  1  0.17435787  0.32440302  0.17107455  1
  In  In33  1  0.49660127  0.50122931  0.65821233  1
  In  In34  1  0.50028456  0.84794660  0.33121070  1
  In  In35  1  0.18214657  0.32209395  0.51000772  1
  In  In36  1  0.33108544  0.02318656  0.67089898  1
  In  In37  1  0.63855597  0.65480151  0.32935360  1
  In  In38  1  0.00670363  0.81815767  0.15216531  1
  In  In39  1  -0.00828306  0.02125245  -0.00336426  1
  In  In40  1  0.31793549  0.50583180  0.82993018  1
  In  In41  1  0.34913852  0.01034202  0.33963083  1
  In  In42  1  0.63862792  0.83967378  0.85183347  1
  In  In43  1  0.82865422  0.36066015  0.50414369  1
  In  In44  1  0.31718864  0.50092439  0.17258595  1
  In  In45  1  0.64350654  0.47829646  0.18614555  1
  In  In46  1  0.17332692  0.49412392  -0.00344683  1
  In  In47  1  0.17469257  0.01299575  0.16617474  1
  In  In48  1  0.17668404  0.01066951  0.83381425  1
  In  In49  1  0.15754270  0.65370431  0.50227152  1
  In  In50  1  0.50407159  0.47835600  0.34581685  1
  In  In51  1  0.82004399  0.49252001  -0.00570286  1
  In  In52  1  0.82383670  0.16335495  0.00956280  1
  In  In53  1  0.64220885  0.87036317  0.12582065  1
  In  In54  1  0.48902750  0.31740650  0.48546201  1
  In  In55  1  0.00637436  0.04321686  0.33998354  1
  In  In56  1  0.16346580  0.83862059  0.68125243  1
  In  In57  1  0.18307237  0.49762655  0.34071906  1
  In  In58  1  0.83506757  0.47644730  0.33920806  1
  In  In59  1  0.50310575  0.47385797  -0.00124299  1
  In  In60  1  0.82910149  0.67044214  0.14033501  1
  In  In61  1  0.33409291  0.83733404  0.49892689  1
  In  In62  1  0.04115668  0.64302403  0.33804926  1
  In  In63  1  0.16822293  0.65540490  0.16814262  1
  In  In64  1  0.83681841  -0.00014134  0.83754613  1
  In  In65  1  -0.00238548  0.16248700  0.16238512  1
  In  In66  1  0.84113307  0.17253675  0.68589191  1
  In  In67  1  0.80301177  0.82218977  0.64795372  1
  In  In68  1  0.49926205  0.67283466  0.82513637  1
  In  In69  1  -0.00640415  0.32732276  0.33129793  1
  In  In70  1  0.80792946  0.01833167  0.16783967  1
  In  In71  1  0.01561469  0.18552549  0.51012956  1
  Te  Te72  1  0.09991615  0.10292067  0.06586747  1
  Te  Te73  1  0.10730137  0.10033540  0.42902157  1
  Te  Te74  1  0.07994588  0.10964322  0.77388346  1
  Te  Te75  1  0.08349187  0.39826337  0.07382390  1
  Te  Te76  1  0.07699575  0.42110091  0.42277771  1
  Te  Te77  1  0.02565738  0.44923492  0.79368828  1
  Te  Te78  1  0.10155240  0.74167075  0.05944824  1
  Te  Te79  1  0.09288444  0.77412828  0.40853305  1
  Te  Te80  1  0.12062484  0.72139779  0.77597907  1
  Te  Te81  1  0.41815516  0.06558134  0.05149000  1
  Te  Te82  1  0.43580610  0.10731936  0.40791154  1
  Te  Te83  1  0.43215642  0.09904527  0.75032364  1
  Te  Te84  1  0.42623750  0.40794302  0.11387253  1
  Te  Te85  1  0.39831651  0.42141017  0.43151923  1
  Te  Te86  1  0.41804047  0.40657038  0.75890458  1
  Te  Te87  1  0.41734279  0.75676839  0.04869223  1
  Te  Te88  1  0.41778135  0.74626681  0.40919759  1
  Te  Te89  1  0.38501161  0.75329102  0.76765989  1
  Te  Te90  1  0.71263114  0.07947135  0.06960768  1
  Te  Te91  1  0.75283477  0.08777209  0.41714654  1
  Te  Te92  1  0.73776015  0.08415865  0.75671933  1
  Te  Te93  1  0.75065826  0.40701938  0.10206426  1
  Te  Te94  1  0.72627959  0.40407032  0.40612512  1
  Te  Te95  1  0.75234597  0.42577241  0.75370316  1
  Te  Te96  1  0.71993728  0.74683165  0.06799402  1
  Te  Te97  1  0.74587295  0.74937486  0.41281055  1
  Te  Te98  1  0.74308297  0.75198396  0.76894541  1
  Te  Te99  1  0.09172734  0.23253050  0.26140648  1
  Te  Te100  1  0.07791651  0.27912300  0.60932643  1
  Te  Te101  1  0.12032882  0.23193227  0.88137883  1
  Te  Te102  1  0.08490185  0.54439849  0.22979899  1
  Te  Te103  1  0.10808333  0.55175044  0.60520682  1
  Te  Te104  1  0.09529909  0.55795827  0.87991974  1
  Te  Te105  1  0.07032064  0.92961654  0.24849858  1
  Te  Te106  1  0.10718282  0.94320860  0.58468985  1
  Te  Te107  1  0.07620477  0.91615001  0.92299458  1
  Te  Te108  1  0.44709884  0.26821402  0.21496446  1
  Te  Te109  1  0.43146449  0.23558865  0.60001813  1
  Te  Te110  1  0.42758925  0.24828817  0.94128176  1
  Te  Te111  1  0.42338304  0.57572613  0.25496401  1
  Te  Te112  1  0.39694045  0.59575409  0.60469120  1
  Te  Te113  1  0.42190860  0.57353101  0.91911529  1
  Te  Te114  1  0.42539301  0.93383429  0.23103750  1
  Te  Te115  1  0.42241135  0.93319172  0.57536267  1
  Te  Te116  1  0.43351266  0.95009031  0.92408687  1
  Te  Te117  1  0.78867437  0.23764005  0.23585031  1
  Te  Te118  1  0.74955601  0.25355737  0.59143576  1
  Te  Te119  1  0.73129323  0.23539687  0.91021296  1
  Te  Te120  1  0.74800384  0.58594542  0.24746114  1
  Te  Te121  1  0.75936750  0.53202339  0.60061998  1
  Te  Te122  1  0.74033750  0.59583612  0.92651494  1
  Te  Te123  1  0.74753272  0.89638902  0.24558970  1
  Te  Te124  1  0.75786780  0.94019944  0.56433477  1
  Te  Te125  1  0.72328098  0.94590456  0.92526188  1
  Te  Te126  1  0.25500042  0.24272134  0.07231511  1
  Te  Te127  1  0.27110953  0.25893785  0.41071711  1
  Te  Te128  1  0.23443384  0.24994530  0.76367609  1
  Te  Te129  1  0.26562016  0.59517967  0.06455168  1
  Te  Te130  1  0.26248844  0.59505813  0.41713713  1
  Te  Te131  1  0.23726575  0.60477962  0.75759629  1
  Te  Te132  1  0.25177492  0.92510121  0.06821557  1
  Te  Te133  1  0.24575264  0.94135635  0.42923468  1
  Te  Te134  1  0.26974042  0.91393772  0.76164692  1
  Te  Te135  1  0.55685631  0.24596282  0.09512713  1
  Te  Te136  1  0.58187819  0.24766556  0.38957263  1
  Te  Te137  1  0.57768753  0.21372148  0.75074055  1
  Te  Te138  1  0.58713290  0.57345579  0.08113355  1
  Te  Te139  1  0.59793422  0.56387173  0.44214503  1
  Te  Te140  1  0.59075239  0.57187919  0.75690217  1
  Te  Te141  1  0.53553733  0.93778347  0.04568227  1
  Te  Te142  1  0.57354668  0.94214839  0.42406187  1
  Te  Te143  1  0.55804236  0.93038087  0.76006354  1
  Te  Te144  1  0.91663340  0.26129861  0.07878225  1
  Te  Te145  1  0.90423533  0.25082539  0.42679299  1
  Te  Te146  1  0.93437090  0.27432086  0.74395864  1
  Te  Te147  1  0.92853468  0.57124354  0.08139873  1
  Te  Te148  1  0.91489171  0.59157293  0.42138918  1
  Te  Te149  1  0.92152773  0.55527412  0.73679955  1
  Te  Te150  1  0.90547120  0.92328032  0.08565871  1
  Te  Te151  1  0.92022584  0.94557432  0.42371106  1
  Te  Te152  1  0.90570047  0.91266439  0.73066154  1
  Te  Te153  1  0.26073260  0.10143547  0.25287551  1
  Te  Te154  1  0.23233384  0.10688359  0.60061695  1
  Te  Te155  1  0.26125120  0.07632417  0.93563350  1
  Te  Te156  1  0.26915451  0.39169361  0.26942676  1
  Te  Te157  1  0.25701391  0.42658246  0.58546291  1
  Te  Te158  1  0.23345522  0.39605242  0.89455383  1
  Te  Te159  1  0.26877318  0.73696464  0.24941794  1
  Te  Te160  1  0.24530398  0.75033372  0.58577103  1
  Te  Te161  1  0.27673778  0.71612341  0.88390666  1
  Te  Te162  1  0.56328500  0.08775071  0.23966144  1
  Te  Te163  1  0.56312183  0.08856215  0.58049328  1
  Te  Te164  1  0.52135318  0.06803859  0.93253795  1
  Te  Te165  1  0.58310388  0.37087638  0.27247255  1
  Te  Te166  1  0.57973791  0.39995094  0.58219368  1
  Te  Te167  1  0.60824094  0.41600921  0.90667288  1
  Te  Te168  1  0.57796890  0.75846976  0.23366607  1
  Te  Te169  1  0.58451593  0.75156895  0.59656335  1
  Te  Te170  1  0.55200320  0.75533775  0.93894391  1
  Te  Te171  1  0.88293001  0.11780370  0.25940864  1
  Te  Te172  1  0.91528046  0.08962503  0.58152022  1
  Te  Te173  1  0.92006536  0.11216628  0.89881689  1
  Te  Te174  1  0.91925790  0.41349346  0.23692533  1
  Te  Te175  1  0.94089536  0.38330240  0.60146778  1
  Te  Te176  1  0.93424412  0.42047543  0.91902450  1
  Te  Te177  1  0.92462688  0.73034423  0.25242366  1
  Te  Te178  1  0.92765390  0.74754546  0.58440682  1
  Te  Te179  1  0.92146572  0.75873699  0.91875091  1
