# generated using pymatgen
data_In2Te3
_symmetry_space_group_name_H-M   'P 1'
_cell_length_a   18.76830803
_cell_length_b   18.76365775
_cell_length_c   18.76303557
_cell_angle_alpha   90.03408361
_cell_angle_beta   89.95225852
_cell_angle_gamma   89.96786539
_symmetry_Int_Tables_number   1
_chemical_formula_structural   In2Te3
_chemical_formula_sum   'In72 Te108'
_cell_volume   6607.62566216
_cell_formula_units_Z   36
loop_
 _symmetry_equiv_pos_site_id
 _symmetry_equiv_pos_as_xyz
  1  'x, y, z'
loop_
 _atom_site_type_symbol
 _atom_site_label
 _atom_site_symmetry_multiplicity
 _atom_site_fract_x
 _atom_site_fract_y
 _atom_site_fract_z
 _atom_site_occupancy
  In  In0  1  0.63386444  0.31811370  0.67064171  1
  In  In1  1  0.04586432  0.68614130  0.00654743  1
  In  In2  1  0.63082773  0.64116739  0.36404995  1
  In  In3  1  0.67332094  0.32491740  0.34721840  1
  In  In4  1  0.65627052  0.15819008  0.50140870  1
  In  In5  1  0.15901496  0.17095428  0.34034539  1
  In  In6  1  0.82871555  0.15814638  0.66898455  1
  In  In7  1  0.32994694  -0.01159153  0.35218753  1
  In  In8  1  -0.00032954  0.31443777  0.33548306  1
  In  In9  1  0.48008729  0.86025345  0.00647867  1
  In  In10  1  0.48404262  0.64279068  0.50855255  1
  In  In11  1  0.84084551  0.82461165  0.33582106  1
  In  In12  1  0.16707756  0.32502993  0.50352951  1
  In  In13  1  0.67218417  0.69150896  0.00330646  1
  In  In14  1  0.02296323  0.35125270  0.03201514  1
  In  In15  1  0.49892563  0.01617711  0.83092925  1
  In  In16  1  0.50803313  0.85427185  0.36608983  1
  In  In17  1  0.32286733  0.48462179  0.82189225  1
  In  In18  1  0.03038059  0.66486572  0.34589659  1
  In  In19  1  -0.00279296  0.85100159  0.80878141  1
  In  In20  1  0.50093204  -0.00468994  0.51476028  1
  In  In21  1  0.84434962  0.51968642  -0.01317571  1
  In  In22  1  0.35003740  0.17683126  0.83440249  1
  In  In23  1  0.86865615  0.65497163  0.15904997  1
  In  In24  1  0.51581586  0.49103452  -0.02256273  1
  In  In25  1  0.27835984  0.67351751  -0.02250496  1
  In  In26  1  0.47183679  0.82808885  0.66127848  1
  In  In27  1  0.67730600  0.18079423  0.15492169  1
  In  In28  1  0.82965393  0.00954053  0.49443472  1
  In  In29  1  0.16336853  0.82727299  0.66969512  1
  In  In30  1  0.67735006  0.86081671  0.52150380  1
  In  In31  1  0.17066706  0.35365317  0.83362071  1
  In  In32  1  0.17543887  0.14649982  0.63177471  1
  In  In33  1  0.84689702  0.68591725  0.52114676  1
  In  In34  1  0.15825834  0.52366741  0.67059194  1
  In  In35  1  0.31023361  0.83772837  0.16808048  1
  In  In36  1  0.00343494  0.16137442  0.48590478  1
  In  In37  1  0.68863958  0.50314108  0.18319717  1
  In  In38  1  0.33908018  0.50302212  0.50059116  1
  In  In39  1  0.65414930  0.86384653  0.15660102  1
  In  In40  1  0.00844212  -0.00630016  -0.02552956  1
  In  In41  1  0.67283827  0.84652785  0.84105680  1
  In  In42  1  0.00959385  0.83902908  0.51288560  1
  In  In43  1  -0.00762699  0.17749476  0.17158973  1
  In  In44  1  0.17726584  0.17520755  0.00356291  1
  In  In45  1  0.85004410  0.01661680  0.17326295  1
  In  In46  1  0.18333637  0.50151673  0.32918244  1
  In  In47  1  0.49454522  0.67113054  0.17365573  1
  In  In48  1  0.49328063  0.01972184  0.15279120  1
  In  In49  1  0.31161938  0.83694490  0.49972585  1
  In  In50  1  0.83162274  0.48131559  0.33621348  1
  In  In51  1  0.66826409  0.65627301  0.67396214  1
  In  In52  1  -0.00960677  0.49701920  0.53015174  1
  In  In53  1  0.85156613  0.32771420  0.16418829  1
  In  In54  1  0.00007231  0.15079637  0.82489017  1
  In  In55  1  0.50840643  0.32339273  0.15818875  1
  In  In56  1  0.83476098  0.85509327  -0.01896288  1
  In  In57  1  0.66432654  0.46769885  0.82005481  1
  In  In58  1  0.31480029  0.49047201  0.15833953  1
  In  In59  1  0.80354977  0.32243965  0.82722518  1
  In  In60  1  0.65784238  0.31471785  -0.00315710  1
  In  In61  1  0.85428310  0.65400777  0.81810751  1
  In  In62  1  0.17079641  -0.02487789  0.16322805  1
  In  In63  1  0.50869266  0.16417782  0.34110081  1
  In  In64  1  0.67376319  0.00866776  0.64588164  1
  In  In65  1  0.35216347  0.30566353  0.65986819  1
  In  In66  1  0.00334355  0.51180812  0.84068309  1
  In  In67  1  0.30023154  0.67240787  0.32183552  1
  In  In68  1  0.48727501  0.65751804  0.81273845  1
  In  In69  1  0.33560220  0.16929491  0.14599100  1
  In  In70  1  0.48401983  0.48857160  0.37018391  1
  In  In71  1  0.16060778  -0.00935218  0.83383064  1
  Te  Te72  1  0.08151826  0.08331803  0.08268794  1
  Te  Te73  1  0.09854731  0.06584190  0.42351630  1
  Te  Te74  1  0.08113027  0.06462146  0.72826121  1
  Te  Te75  1  0.10200180  0.46005274  0.08874333  1
  Te  Te76  1  0.07527340  0.42096425  0.42138297  1
  Te  Te77  1  0.07130342  0.41611843  0.73873120  1
  Te  Te78  1  0.09813905  0.78169445  0.11268629  1
  Te  Te79  1  0.10744426  0.76865417  0.42065792  1
  Te  Te80  1  0.07951506  0.74005873  0.75904401  1
  Te  Te81  1  0.40123932  0.07455181  0.05157859  1
  Te  Te82  1  0.40928651  0.09014930  0.43277892  1
  Te  Te83  1  0.40550450  0.08303812  0.73338449  1
  Te  Te84  1  0.42224017  0.41597669  0.07361184  1
  Te  Te85  1  0.39743552  0.38539005  0.43030606  1
  Te  Te86  1  0.41966173  0.41583431  0.73292216  1
  Te  Te87  1  0.40299911  0.74281821  0.07685989  1
  Te  Te88  1  0.41522728  0.74121455  0.40708461  1
  Te  Te89  1  0.38611786  0.74440574  0.74860535  1
  Te  Te90  1  0.76092643  0.08705913  0.07745253  1
  Te  Te91  1  0.75131896  0.09774835  0.40570624  1
  Te  Te92  1  0.73827041  0.08011082  0.75761114  1
  Te  Te93  1  0.75365430  0.41882863  0.07303446  1
  Te  Te94  1  0.76050384  0.40285865  0.43788147  1
  Te  Te95  1  0.77423874  0.43157832  0.72170531  1
  Te  Te96  1  0.76396664  0.75997705  0.10141662  1
  Te  Te97  1  0.73561897  0.75480702  0.42507126  1
  Te  Te98  1  0.75681088  0.75277914  0.75311829  1
  Te  Te99  1  0.10171019  0.26457597  0.23273121  1
  Te  Te100  1  0.06928445  0.25173553  0.59313019  1
  Te  Te101  1  0.07683954  0.25182252  0.91451952  1
  Te  Te102  1  0.08363660  0.57049677  0.24279557  1
  Te  Te103  1  0.07874400  0.60502015  0.57579617  1
  Te  Te104  1  0.11060516  0.59606148  0.90331582  1
  Te  Te105  1  0.07348160  0.88438283  0.22695135  1
  Te  Te106  1  0.09715123  0.93373220  0.58865010  1
  Te  Te107  1  0.10062087  0.87812955  0.92857323  1
  Te  Te108  1  0.41618035  0.24809274  0.25303312  1
  Te  Te109  1  0.44213556  0.21667542  0.58693927  1
  Te  Te110  1  0.43441766  0.27131294  0.90662443  1
  Te  Te111  1  0.41094917  0.57538963  0.25983528  1
  Te  Te112  1  0.39699589  0.58398545  0.61096746  1
  Te  Te113  1  0.41059973  0.59085154  0.92884614  1
  Te  Te114  1  0.42890291  0.91124001  0.24673391  1
  Te  Te115  1  0.37743658  0.94032437  0.59486540  1
  Te  Te116  1  0.41044475  0.90945082  0.88660274  1
  Te  Te117  1  0.77007070  0.24313295  0.26078449  1
  Te  Te118  1  0.74322190  0.25230170  0.58402814  1
  Te  Te119  1  0.74321379  0.22129312  0.91882125  1
  Te  Te120  1  0.76038257  0.60990979  0.26268044  1
  Te  Te121  1  0.75851597  0.58347246  0.58221778  1
  Te  Te122  1  0.72784768  0.58383788  0.90108845  1
  Te  Te123  1  0.75502049  0.92354403  0.25469217  1
  Te  Te124  1  0.79235085  0.90654697  0.61318511  1
  Te  Te125  1  0.74916882  0.95295763  0.91006760  1
  Te  Te126  1  0.25473600  0.27477611  0.07945954  1
  Te  Te127  1  0.25944846  0.24680246  0.41921140  1
  Te  Te128  1  0.23183765  0.24278192  0.74619300  1
  Te  Te129  1  0.22066229  0.58197566  0.08446811  1
  Te  Te130  1  0.23542382  0.59688247  0.43696835  1
  Te  Te131  1  0.23993937  0.59777557  0.77135865  1
  Te  Te132  1  0.26695659  0.92835801  0.05932412  1
  Te  Te133  1  0.22373182  0.89045531  0.39033997  1
  Te  Te134  1  0.25796610  0.89754847  0.76814971  1
  Te  Te135  1  0.55923510  0.21715977  0.06185245  1
  Te  Te136  1  0.56554831  0.26745498  0.43830669  1
  Te  Te137  1  0.56362274  0.23616923  0.77481389  1
  Te  Te138  1  0.58666534  0.57859648  0.08986960  1
  Te  Te139  1  0.59291328  0.53027894  0.47360371  1
  Te  Te140  1  0.56920051  0.55552820  0.73355544  1
  Te  Te141  1  0.59355412  0.95314791  0.05079279  1
  Te  Te142  1  0.61188498  0.95258034  0.41656327  1
  Te  Te143  1  0.58185220  0.91030835  0.73085539  1
  Te  Te144  1  0.91417528  0.24112154  0.05732450  1
  Te  Te145  1  0.90381598  0.25775128  0.43126345  1
  Te  Te146  1  0.91866648  0.25416560  0.74757119  1
  Te  Te147  1  0.96009641  0.56748973  0.07395309  1
  Te  Te148  1  0.91289943  0.58876325  0.41421425  1
  Te  Te149  1  0.92647850  0.56583996  0.72203230  1
  Te  Te150  1  0.92851500  0.91806170  0.08250311  1
  Te  Te151  1  0.92637304  0.92341744  0.41207294  1
  Te  Te152  1  0.88643055  0.91477217  0.73987082  1
  Te  Te153  1  0.25907351  0.07690865  0.24736560  1
  Te  Te154  1  0.27777317  0.06083779  0.57317555  1
  Te  Te155  1  0.25479574  0.08126743  0.91261123  1
  Te  Te156  1  0.26623046  0.39864760  0.26310131  1
  Te  Te157  1  0.24782393  0.41373393  0.59911255  1
  Te  Te158  1  0.25737366  0.41411057  0.93530787  1
  Te  Te159  1  0.20964489  0.73713088  0.22108477  1
  Te  Te160  1  0.25513664  0.73704853  0.59076502  1
  Te  Te161  1  0.23505633  0.79659054  0.90818938  1
  Te  Te162  1  0.59544107  0.08353333  0.24593777  1
  Te  Te163  1  0.55258097  0.10700559  0.61300901  1
  Te  Te164  1  0.58333275  0.12672370  0.88319150  1
  Te  Te165  1  0.58134744  0.42250538  0.25666983  1
  Te  Te166  1  0.57045139  0.42074548  0.58731071  1
  Te  Te167  1  0.55545435  0.36980183  0.88553014  1
  Te  Te168  1  0.58960472  0.75910763  0.25387395  1
  Te  Te169  1  0.57967236  0.75201036  0.57559513  1
  Te  Te170  1  0.56810041  0.75592367  0.91117525  1
  Te  Te171  1  0.93827087  0.08473361  0.27158538  1
  Te  Te172  1  0.92832028  0.07441071  0.58948556  1
  Te  Te173  1  0.90445463  0.07333478  0.90689713  1
  Te  Te174  1  0.93691585  0.42444810  0.24215581  1
  Te  Te175  1  0.89299670  0.42861970  0.61632981  1
  Te  Te176  1  0.91283485  0.40578266  0.91396089  1
  Te  Te177  1  0.94396154  0.75549663  0.24643180  1
  Te  Te178  1  0.93704603  0.75617144  0.61431268  1
  Te  Te179  1  0.91422228  0.73305977  0.93482810  1
