# generated using pymatgen
data_In2Te3
_symmetry_space_group_name_H-M   'P 1'
_cell_length_a   18.80831804
_cell_length_b   18.80609726
_cell_length_c   18.80928698
_cell_angle_alpha   90.04728577
_cell_angle_beta   89.98916603
_cell_angle_gamma   89.93254068
_symmetry_Int_Tables_number   1
_chemical_formula_structural   In2Te3
_chemical_formula_sum   'In72 Te108'
_cell_volume   6653.04580639
_cell_formula_units_Z   36
loop_
 _symmetry_equiv_pos_site_id
 _symmetry_equiv_pos_as_xyz
  1  'x, y, z'
loop_
 _atom_site_type_symbol
 _atom_site_label
 _atom_site_symmetry_multiplicity
 _atom_site_fract_x
 _atom_site_fract_y
 _atom_site_fract_z
 _atom_site_occupancy
  In  In0  1  -0.00590082  0.52400338  0.15211806  1
  In  In1  1  0.31432219  0.32355407  0.34665334  1
  In  In2  1  0.01635906  0.50738469  0.84880909  1
  In  In3  1  0.16999723  0.33211880  0.15792406  1
  In  In4  1  0.51348365  0.15612774  0.00631776  1
  In  In5  1  0.83894510  0.13800896  0.00938679  1
  In  In6  1  0.33337285  0.67184743  0.00391238  1
  In  In7  1  0.31870021  0.33308129  0.65945145  1
  In  In8  1  0.32788294  -0.01620489  0.30484473  1
  In  In9  1  0.65744078  0.35581108  0.65372495  1
  In  In10  1  -0.00549462  0.68348618  0.65984932  1
  In  In11  1  0.49616953  -0.00801321  0.49258133  1
  In  In12  1  0.66685223  -0.01687393  0.32138593  1
  In  In13  1  0.32585805  0.81579792  0.83082906  1
  In  In14  1  0.16433612  0.50259113  0.32953975  1
  In  In15  1  0.16630496  0.66464175  0.16189939  1
  In  In16  1  -0.00952534  0.00811078  0.68583454  1
  In  In17  1  0.50379530  0.34745207  0.84976692  1
  In  In18  1  0.50414334  0.83928528  0.32853398  1
  In  In19  1  0.51375463  -0.02258655  0.81657999  1
  In  In20  1  0.49392334  0.68172796  0.17751022  1
  In  In21  1  0.65026746  0.67408453  0.36784114  1
  In  In22  1  0.51351174  0.52792579  0.67645486  1
  In  In23  1  0.66347526  0.33159281  0.00025915  1
  In  In24  1  0.17049902  0.50940547  0.00013419  1
  In  In25  1  0.65578409  0.15361346  0.49462686  1
  In  In26  1  0.52015086  0.83689401  0.00153839  1
  In  In27  1  0.32033942  0.12918004  0.85115858  1
  In  In28  1  0.85280758  0.17012541  0.68400856  1
  In  In29  1  0.01258945  -0.02415082  0.32563967  1
  In  In30  1  0.00868168  0.34085911  0.32094820  1
  In  In31  1  0.81624051  0.52011735  0.65033656  1
  In  In32  1  0.01171022  0.00233880  -0.00216173  1
  In  In33  1  0.12389858  0.30959101  0.85218357  1
  In  In34  1  0.30375633  -0.02680706  0.02377247  1
  In  In35  1  0.68432979  0.34821623  0.32583731  1
  In  In36  1  0.66647622  0.49089645  0.16296507  1
  In  In37  1  0.16784254  -0.00886839  0.49245322  1
  In  In38  1  0.84995570  0.53449755  0.33233272  1
  In  In39  1  0.16782641  0.83583883  0.67249552  1
  In  In40  1  0.01273075  0.17637574  0.16144669  1
  In  In41  1  0.82733610  0.30077461  0.15810219  1
  In  In42  1  0.81567358  -0.01443238  0.16627957  1
  In  In43  1  0.82487338  0.68933793  0.84175723  1
  In  In44  1  0.32683261  0.52059262  0.83790269  1
  In  In45  1  0.67367022  0.67850042  -0.01433307  1
  In  In46  1  0.48996889  0.35500086  0.51784280  1
  In  In47  1  0.33642179  -0.02143495  0.65463423  1
  In  In48  1  0.68556749  -0.04118652  0.64345807  1
  In  In49  1  0.81810551  0.15845156  0.33194852  1
  In  In50  1  0.83604368  0.68670737  0.14963086  1
  In  In51  1  -0.00688594  0.83914110  0.84909536  1
  In  In52  1  0.32431532  0.15895781  0.16116119  1
  In  In53  1  0.81708124  -0.03370618  0.85696852  1
  In  In54  1  -0.01457555  0.50173957  0.49931691  1
  In  In55  1  0.47851645  0.19423951  0.64263487  1
  In  In56  1  0.32588680  0.67953321  0.31674680  1
  In  In57  1  0.35929652  0.85079579  0.48544008  1
  In  In58  1  0.65959250  0.68958352  0.64388533  1
  In  In59  1  0.48161764  0.49986544  -0.00644992  1
  In  In60  1  0.00644199  0.81981799  0.15798058  1
  In  In61  1  0.86041377  0.34238458  0.82531625  1
  In  In62  1  0.83579549  0.34781280  0.50192947  1
  In  In63  1  0.15648998  0.16215650  0.66828219  1
  In  In64  1  0.49769447  0.15531330  0.33473023  1
  In  In65  1  -0.01963502  0.82135847  0.47992453  1
  In  In66  1  0.00630146  0.15663353  0.52033754  1
  In  In67  1  0.34414749  0.48997290  0.51317706  1
  In  In68  1  0.34044243  0.33876701  0.01911441  1
  In  In69  1  0.66341359  0.15463747  0.83711615  1
  In  In70  1  0.14503226  0.68447433  0.49858084  1
  In  In71  1  0.33593507  0.66086418  0.67677002  1
  Te  Te72  1  0.09885788  0.07762599  0.09333592  1
  Te  Te73  1  0.08261313  0.08585910  0.40862475  1
  Te  Te74  1  0.09568948  0.07054240  0.76639205  1
  Te  Te75  1  0.07436043  0.41791082  0.07603565  1
  Te  Te76  1  0.08939007  0.41260194  0.42751408  1
  Te  Te77  1  0.09782695  0.41977740  0.76079194  1
  Te  Te78  1  0.07781303  0.72909810  0.06077555  1
  Te  Te79  1  0.08977824  0.77114224  0.39357110  1
  Te  Te80  1  0.08799407  0.74486955  0.76194857  1
  Te  Te81  1  0.41563334  0.06613799  0.08116469  1
  Te  Te82  1  0.39704281  0.07370222  0.41540107  1
  Te  Te83  1  0.42174476  0.08488439  0.74375294  1
  Te  Te84  1  0.44019940  0.40768358  0.10121357  1
  Te  Te85  1  0.42048660  0.42396577  0.39988159  1
  Te  Te86  1  0.42391301  0.41959562  0.74038943  1
  Te  Te87  1  0.41185008  0.77300415  0.08778807  1
  Te  Te88  1  0.43039705  0.73731728  0.41367006  1
  Te  Te89  1  0.42874571  0.75398659  0.74499344  1
  Te  Te90  1  0.73139558  0.08273553  0.09201565  1
  Te  Te91  1  0.75333010  0.06050670  0.42826695  1
  Te  Te92  1  0.75007448  0.07054446  0.74300838  1
  Te  Te93  1  0.76725103  0.41580261  0.07598069  1
  Te  Te94  1  0.75711177  0.44598405  0.41759505  1
  Te  Te95  1  0.74806462  0.42433648  0.75184027  1
  Te  Te96  1  0.74298212  0.78362292  0.07367705  1
  Te  Te97  1  0.74775249  0.74960627  0.45204672  1
  Te  Te98  1  0.73633081  0.76929520  0.75122018  1
  Te  Te99  1  0.10892014  0.24213891  0.26489050  1
  Te  Te100  1  0.08894917  0.26108099  0.58085737  1
  Te  Te101  1  0.04034644  0.22963800  0.93855242  1
  Te  Te102  1  0.06743590  0.59893504  0.26196295  1
  Te  Te103  1  0.08336087  0.58089440  0.59032193  1
  Te  Te104  1  0.08702555  0.61100781  0.93213088  1
  Te  Te105  1  0.10084887  0.92689844  0.21402232  1
  Te  Te106  1  0.06999574  0.91367561  0.58335150  1
  Te  Te107  1  0.10070410  0.91098777  0.92137462  1
  Te  Te108  1  0.40997246  0.24845790  0.25148469  1
  Te  Te109  1  0.37605149  0.24660138  0.53512924  1
  Te  Te110  1  0.41846544  0.23740998  0.91314039  1
  Te  Te111  1  0.41890396  0.58291923  0.25620052  1
  Te  Te112  1  0.43060215  0.60076871  0.57239076  1
  Te  Te113  1  0.43081262  0.61000732  0.90062913  1
  Te  Te114  1  0.44401364  0.93067308  0.22809974  1
  Te  Te115  1  0.45381597  0.88774863  0.60890867  1
  Te  Te116  1  0.41092750  0.92207092  0.91577311  1
  Te  Te117  1  0.71902189  0.22691007  0.23897709  1
  Te  Te118  1  0.74988023  0.24660926  0.58338268  1
  Te  Te119  1  0.75944695  0.24477920  0.91298406  1
  Te  Te120  1  0.74222896  0.59788754  0.24388221  1
  Te  Te121  1  0.75664753  0.61606869  0.55185218  1
  Te  Te122  1  0.76674090  0.58004665  0.92495610  1
  Te  Te123  1  0.77298990  0.88909640  0.27193689  1
  Te  Te124  1  0.76610347  0.86767189  0.55632616  1
  Te  Te125  1  0.73400992  0.90137171  0.96129011  1
  Te  Te126  1  0.23663083  0.23657157  0.05974943  1
  Te  Te127  1  0.24540411  0.25005067  0.45235500  1
  Te  Te128  1  0.25516496  0.24237142  0.76544993  1
  Te  Te129  1  0.27053924  0.56950649  0.09793535  1
  Te  Te130  1  0.24930298  0.58941657  0.42345727  1
  Te  Te131  1  0.23117120  0.58699008  0.74910265  1
  Te  Te132  1  0.22664288  0.89288509  0.12214533  1
  Te  Te133  1  0.24231122  0.89594657  0.39886500  1
  Te  Te134  1  0.24413951  0.93034305  0.76426801  1
  Te  Te135  1  0.57138454  0.26135805  0.09112575  1
  Te  Te136  1  0.58026056  0.26318714  0.42335618  1
  Te  Te137  1  0.58516142  0.25421910  0.74929580  1
  Te  Te138  1  0.57664140  0.59288556  0.07957524  1
  Te  Te139  1  0.58764558  0.56153391  0.43656172  1
  Te  Te140  1  0.61710353  0.59561486  0.75328363  1
  Te  Te141  1  0.63016417  0.90133528  0.08024978  1
  Te  Te142  1  0.59909307  0.89973759  0.43270004  1
  Te  Te143  1  0.62271962  0.88950182  0.76169806  1
  Te  Te144  1  0.93648254  0.25845235  0.05404041  1
  Te  Te145  1  0.91295643  0.25102963  0.41060398  1
  Te  Te146  1  0.95399184  0.24730091  0.75856383  1
  Te  Te147  1  0.90543754  0.59385943  0.05660721  1
  Te  Te148  1  0.92914981  0.61614948  0.42580853  1
  Te  Te149  1  0.91394283  0.58714976  0.74805812  1
  Te  Te150  1  0.91523683  0.91382751  0.07610656  1
  Te  Te151  1  0.89839802  0.91596545  0.39830401  1
  Te  Te152  1  0.89935060  0.90188976  0.74473809  1
  Te  Te153  1  0.23661680  0.08943704  0.25756854  1
  Te  Te154  1  0.25455179  0.08134667  0.57937521  1
  Te  Te155  1  0.22239625  0.06973765  0.94332220  1
  Te  Te156  1  0.25883707  0.42302727  0.24086942  1
  Te  Te157  1  0.23498482  0.43532760  0.59531066  1
  Te  Te158  1  0.25537170  0.40839807  0.91213938  1
  Te  Te159  1  0.25362012  0.77286173  0.22329072  1
  Te  Te160  1  0.26055587  0.76267790  0.57507253  1
  Te  Te161  1  0.23504076  0.75084612  0.92700914  1
  Te  Te162  1  0.56408581  0.05810318  0.24259364  1
  Te  Te163  1  0.58104954  0.07384207  0.60170797  1
  Te  Te164  1  0.59390363  0.05345662  0.92491100  1
  Te  Te165  1  0.57665555  0.41775364  0.25415102  1
  Te  Te166  1  0.60184633  0.45884270  0.55515835  1
  Te  Te167  1  0.60058114  0.44293372  0.91329464  1
  Te  Te168  1  0.60581944  0.75858391  0.24694124  1
  Te  Te169  1  0.55583672  0.77180688  0.57897667  1
  Te  Te170  1  0.57592576  0.74755744  0.89768957  1
  Te  Te171  1  0.91997170  0.08460392  0.24509010  1
  Te  Te172  1  0.89810686  0.06753865  0.57774488  1
  Te  Te173  1  0.91515867  0.07572432  0.89538467  1
  Te  Te174  1  0.90290396  0.41352035  0.24046493  1
  Te  Te175  1  0.92227083  0.41211824  0.60660114  1
  Te  Te176  1  0.91813054  0.42989598  0.92820073  1
  Te  Te177  1  0.91218618  0.75713845  0.25485362  1
  Te  Te178  1  0.89095876  0.76457533  0.58852656  1
  Te  Te179  1  0.91328311  0.75503803  0.94103742  1
