# generated using pymatgen
data_In2Te3
_symmetry_space_group_name_H-M   'P 1'
_cell_length_a   18.79265021
_cell_length_b   18.78626246
_cell_length_c   18.79289352
_cell_angle_alpha   90.05443005
_cell_angle_beta   89.98445246
_cell_angle_gamma   90.05305127
_symmetry_Int_Tables_number   1
_chemical_formula_structural   In2Te3
_chemical_formula_sum   'In72 Te108'
_cell_volume   6634.70581573
_cell_formula_units_Z   36
loop_
 _symmetry_equiv_pos_site_id
 _symmetry_equiv_pos_as_xyz
  1  'x, y, z'
loop_
 _atom_site_type_symbol
 _atom_site_label
 _atom_site_symmetry_multiplicity
 _atom_site_fract_x
 _atom_site_fract_y
 _atom_site_fract_z
 _atom_site_occupancy
  In  In0  1  0.33816214  0.16054022  0.51091269  1
  In  In1  1  -0.01353748  0.32745603  0.33107564  1
  In  In2  1  0.34966572  -0.00121873  0.33450891  1
  In  In3  1  0.66812819  0.65388074  0.66372059  1
  In  In4  1  -0.00595914  0.00808914  0.67100019  1
  In  In5  1  0.82351459  0.17185843  -0.00446022  1
  In  In6  1  0.16548310  0.18091105  0.67119560  1
  In  In7  1  0.33505306  0.32699183  0.68488023  1
  In  In8  1  0.36103916  0.83112153  0.51877233  1
  In  In9  1  0.18850527  0.85975220  0.71143001  1
  In  In10  1  -0.00903144  0.18590986  0.17544590  1
  In  In11  1  0.68521595  0.65486694  -0.01358647  1
  In  In12  1  -0.00034922  0.83954813  0.50316745  1
  In  In13  1  0.18041406  -0.00680728  0.14608613  1
  In  In14  1  0.16802874  0.33966525  0.82497057  1
  In  In15  1  0.31328620  0.34458442  0.29975338  1
  In  In16  1  0.18141131  0.67618286  0.50372856  1
  In  In17  1  0.50638537  0.50386879  0.33611736  1
  In  In18  1  0.16051256  0.50254365  -0.01624696  1
  In  In19  1  -0.00825313  0.34494609  0.68249858  1
  In  In20  1  0.50123292  0.67351401  0.82997654  1
  In  In21  1  0.83949619  0.65856954  0.83636406  1
  In  In22  1  0.31570202  0.67414783  0.00190127  1
  In  In23  1  0.17049099  0.02506213  0.49382773  1
  In  In24  1  -0.01014677  0.84234807  0.14337429  1
  In  In25  1  0.67216180  0.00777205  0.67966998  1
  In  In26  1  0.49355956  0.01834696  0.83503644  1
  In  In27  1  0.17093592  0.66332242  0.17311867  1
  In  In28  1  0.51470897  -0.00347436  0.51224704  1
  In  In29  1  0.82602458  0.47577752  0.34814502  1
  In  In30  1  0.64752880  0.84430129  0.14738411  1
  In  In31  1  0.53193252  0.33591760  0.50841906  1
  In  In32  1  0.35169102  0.15108871  0.13248342  1
  In  In33  1  0.36081121  0.52082654  0.49787797  1
  In  In34  1  -0.00567795  0.17995440  0.82605845  1
  In  In35  1  0.68895018  -0.01480396  -0.02576774  1
  In  In36  1  0.15627138  0.33985992  0.50569145  1
  In  In37  1  0.66002422  0.65338541  0.35344122  1
  In  In38  1  0.82400187  0.81167534  0.31348884  1
  In  In39  1  0.18602199  0.84768518  -0.02073988  1
  In  In40  1  0.84146984  0.00704572  0.51842208  1
  In  In41  1  0.17794648  0.81087616  0.33238806  1
  In  In42  1  0.82576513  0.64271760  0.51430609  1
  In  In43  1  0.15560676  0.49250114  0.68996091  1
  In  In44  1  0.65310728  0.48024129  0.15996921  1
  In  In45  1  -0.00421022  0.67431387  -0.02748394  1
  In  In46  1  0.66709860  0.16672195  0.51551548  1
  In  In47  1  0.31918709  0.50784688  0.83265066  1
  In  In48  1  0.01583538  0.67060519  0.69696079  1
  In  In49  1  0.82662200  0.84681740  0.68128774  1
  In  In50  1  0.48155552  0.86132565  0.32594428  1
  In  In51  1  0.32124452  0.66281970  0.31524020  1
  In  In52  1  0.84067250  0.66002673  0.15308027  1
  In  In53  1  0.64815622  0.17111764  0.16990690  1
  In  In54  1  -0.01333445  0.01680699  0.30677239  1
  In  In55  1  -0.00477235  0.48813378  0.48469468  1
  In  In56  1  0.19533652  0.15748192  -0.02134359  1
  In  In57  1  0.65603547  0.01058681  0.32627804  1
  In  In58  1  0.48000134  0.66652425  0.17870768  1
  In  In59  1  0.67109264  0.32801826  -0.00680879  1
  In  In60  1  0.13969705  0.16920555  0.33084681  1
  In  In61  1  0.81751818  0.31136237  0.15852677  1
  In  In62  1  0.50323821  0.85928587  -0.01609352  1
  In  In63  1  0.02265931  0.51266506  0.14932903  1
  In  In64  1  0.49741280  0.64782536  0.52137151  1
  In  In65  1  0.49176171  0.33500542  0.17300577  1
  In  In66  1  0.82102812  0.31150428  0.50433769  1
  In  In67  1  0.51079286  0.46544942  -0.00434311  1
  In  In68  1  0.50569545  0.83777499  0.68546941  1
  In  In69  1  -0.00030336  -0.00389912  -0.00334094  1
  In  In70  1  0.66191846  0.16867231  0.81703069  1
  In  In71  1  0.50606128  0.48183838  0.65681875  1
  Te  Te72  1  0.08314265  0.09421005  0.08537007  1
  Te  Te73  1  0.05089593  0.09062714  0.42880874  1
  Te  Te74  1  0.09345262  0.08183225  0.76198597  1
  Te  Te75  1  0.07320176  0.40861271  0.05853364  1
  Te  Te76  1  0.09462873  0.41946594  0.39197066  1
  Te  Te77  1  0.05308173  0.43566154  0.78931877  1
  Te  Te78  1  0.08969234  0.74890190  0.07159561  1
  Te  Te79  1  0.07260943  0.73764869  0.41526091  1
  Te  Te80  1  0.07558128  0.78261728  0.77272420  1
  Te  Te81  1  0.43500443  0.05084479  0.06547356  1
  Te  Te82  1  0.43768500  0.09025808  0.41881591  1
  Te  Te83  1  0.42269390  0.13098721  0.76519092  1
  Te  Te84  1  0.40461847  0.39764384  0.07083098  1
  Te  Te85  1  0.41256926  0.40349245  0.41602324  1
  Te  Te86  1  0.42446877  0.41565139  0.76971653  1
  Te  Te87  1  0.42336758  0.75813717  0.07167709  1
  Te  Te88  1  0.42193108  0.73351555  0.40982021  1
  Te  Te89  1  0.40374981  0.75667389  0.75618497  1
  Te  Te90  1  0.73985482  0.08092396  0.08306567  1
  Te  Te91  1  0.75384930  0.08354496  0.41914544  1
  Te  Te92  1  0.76629850  0.07325189  0.77236060  1
  Te  Te93  1  0.76291349  0.42566390  0.07289144  1
  Te  Te94  1  0.72888350  0.39450013  0.42019506  1
  Te  Te95  1  0.80114999  0.45530017  0.76996431  1
  Te  Te96  1  0.75468038  0.75923471  0.07564981  1
  Te  Te97  1  0.74958869  0.74929353  0.43148639  1
  Te  Te98  1  0.74022524  0.74811500  0.75938936  1
  Te  Te99  1  0.09945093  0.27688774  0.23293397  1
  Te  Te100  1  0.06347983  0.24805035  0.58078186  1
  Te  Te101  1  0.08753258  0.25219935  0.92232691  1
  Te  Te102  1  0.08414902  0.58507195  0.26236104  1
  Te  Te103  1  0.08070183  0.57865152  0.57832504  1
  Te  Te104  1  0.08240798  0.58790580  0.88907983  1
  Te  Te105  1  0.09036767  0.91534632  0.25321494  1
  Te  Te106  1  0.09952172  0.91777333  0.58681332  1
  Te  Te107  1  0.08091505  0.91668109  0.90074492  1
  Te  Te108  1  0.40685342  0.23644496  0.25363618  1
  Te  Te109  1  0.42834916  0.25207257  0.59135631  1
  Te  Te110  1  0.45801282  0.21534205  0.88535286  1
  Te  Te111  1  0.40052426  0.54820793  0.23535146  1
  Te  Te112  1  0.40010947  0.59407419  0.62401872  1
  Te  Te113  1  0.42256764  0.58195185  0.92919963  1
  Te  Te114  1  0.40128570  0.92120019  0.21900202  1
  Te  Te115  1  0.41323906  0.93872013  0.61173407  1
  Te  Te116  1  0.40429352  0.89976734  0.87732586  1
  Te  Te117  1  0.73934729  0.24443209  0.26239786  1
  Te  Te118  1  0.73418800  0.25673508  0.61500542  1
  Te  Te119  1  0.76907199  0.26869077  0.88851059  1
  Te  Te120  1  0.74417858  0.58160590  0.24680597  1
  Te  Te121  1  0.73969015  0.54878076  0.58721169  1
  Te  Te122  1  0.75836693  0.54904690  0.90729650  1
  Te  Te123  1  0.74637364  0.91843064  0.23914446  1
  Te  Te124  1  0.73663928  0.91331763  0.57754006  1
  Te  Te125  1  0.78995632  0.89039226  0.92770148  1
  Te  Te126  1  0.25725828  0.24853341  0.07728858  1
  Te  Te127  1  0.24588837  0.24560231  0.42129436  1
  Te  Te128  1  0.26509564  0.22823659  0.77898770  1
  Te  Te129  1  0.25491453  0.56407591  0.09148856  1
  Te  Te130  1  0.24555297  0.57164680  0.41247788  1
  Te  Te131  1  0.23142904  0.60003599  0.75761984  1
  Te  Te132  1  0.28302889  0.94513996  0.04616723  1
  Te  Te133  1  0.25456020  0.90721912  0.42623827  1
  Te  Te134  1  0.27131927  0.95151783  0.79501849  1
  Te  Te135  1  0.56444076  0.24858191  0.06833434  1
  Te  Te136  1  0.58440777  0.23690171  0.41396010  1
  Te  Te137  1  0.55102048  0.25990754  0.77617349  1
  Te  Te138  1  0.58045566  0.59272511  0.08528152  1
  Te  Te139  1  0.59567719  0.55440703  0.45006787  1
  Te  Te140  1  0.58553637  0.56845180  0.75943145  1
  Te  Te141  1  0.56003995  0.95576175  0.08928400  1
  Te  Te142  1  0.59260458  0.90371942  0.41973546  1
  Te  Te143  1  0.59792538  0.91682998  0.77662093  1
  Te  Te144  1  0.92575268  0.26458362  0.06145551  1
  Te  Te145  1  0.91193833  0.23343001  0.41493130  1
  Te  Te146  1  0.89671318  0.24230320  0.73313522  1
  Te  Te147  1  0.91601683  0.57304104  0.05457073  1
  Te  Te148  1  0.91405619  0.58841108  0.40213396  1
  Te  Te149  1  0.90507634  0.57478081  0.72825784  1
  Te  Te150  1  0.89504792  0.93759831  0.08600475  1
  Te  Te151  1  0.90926916  0.91309019  0.40443223  1
  Te  Te152  1  0.92488707  0.91666307  0.76498877  1
  Te  Te153  1  0.24285891  0.08319092  0.25678654  1
  Te  Te154  1  0.25859770  0.07482074  0.60832930  1
  Te  Te155  1  0.27338424  0.04555690  0.92233792  1
  Te  Te156  1  0.25613312  0.45354769  0.22420601  1
  Te  Te157  1  0.25515087  0.42259147  0.58856074  1
  Te  Te158  1  0.26411279  0.40176992  0.92661921  1
  Te  Te159  1  0.27099523  0.77164530  0.21846030  1
  Te  Te160  1  0.25339326  0.76300001  0.60369900  1
  Te  Te161  1  0.24146800  0.73961681  0.89336724  1
  Te  Te162  1  0.55569586  0.08457744  0.24897292  1
  Te  Te163  1  0.56943511  0.09699956  0.61251401  1
  Te  Te164  1  0.59026394  0.09374274  0.92999509  1
  Te  Te165  1  0.59358466  0.39592805  0.27032963  1
  Te  Te166  1  0.61637582  0.38712670  0.62110464  1
  Te  Te167  1  0.59911352  0.41148208  0.89187071  1
  Te  Te168  1  0.58552841  0.74865692  0.25613947  1
  Te  Te169  1  0.58490689  0.75596936  0.58298364  1
  Te  Te170  1  0.59599472  0.75775178  0.91571279  1
  Te  Te171  1  0.88827162  0.09839501  0.23547168  1
  Te  Te172  1  0.90241419  0.10677235  0.60875182  1
  Te  Te173  1  0.90845210  0.08127392  0.90664601  1
  Te  Te174  1  0.91137193  0.42132955  0.23418771  1
  Te  Te175  1  0.90339714  0.41887032  0.58108412  1
  Te  Te176  1  0.85978968  0.40815185  0.89146550  1
  Te  Te177  1  0.93754983  0.73815706  0.24259047  1
  Te  Te178  1  0.91750583  0.74693859  0.59303560  1
  Te  Te179  1  0.89765636  0.77536406  0.91773152  1
