# generated using pymatgen
data_In2Te3
_symmetry_space_group_name_H-M   'P 1'
_cell_length_a   18.78105149
_cell_length_b   18.79354544
_cell_length_c   18.79596515
_cell_angle_alpha   90.05633909
_cell_angle_beta   90.03194848
_cell_angle_gamma   89.95829279
_symmetry_Int_Tables_number   1
_chemical_formula_structural   In2Te3
_chemical_formula_sum   'In72 Te108'
_cell_volume   6634.26569424
_cell_formula_units_Z   36
loop_
 _symmetry_equiv_pos_site_id
 _symmetry_equiv_pos_as_xyz
  1  'x, y, z'
loop_
 _atom_site_type_symbol
 _atom_site_label
 _atom_site_symmetry_multiplicity
 _atom_site_fract_x
 _atom_site_fract_y
 _atom_site_fract_z
 _atom_site_occupancy
  In  In0  1  -0.00696519  0.83068215  0.82999378  1
  In  In1  1  0.31259634  0.83912766  0.50664097  1
  In  In2  1  0.36989872  0.83694987  0.14716673  1
  In  In3  1  0.34473024  0.48590963  0.49925568  1
  In  In4  1  0.00161607  0.18939135  0.85549821  1
  In  In5  1  0.00817282  0.83480865  0.14780528  1
  In  In6  1  0.67692183  0.51421810  0.83201850  1
  In  In7  1  0.65551174  0.00211690  0.65644659  1
  In  In8  1  -0.02963675  -0.00588329  0.67746333  1
  In  In9  1  0.17520446  0.48026595  0.66828521  1
  In  In10  1  0.34966186  0.65010076  0.34213673  1
  In  In11  1  0.13802556  0.82398395  0.31097965  1
  In  In12  1  -0.00848092  0.00515602  0.30540128  1
  In  In13  1  0.37299314  0.83070602  0.84844264  1
  In  In14  1  0.81951809  0.49333548  0.65990940  1
  In  In15  1  0.66997963  0.81591741  0.48954069  1
  In  In16  1  0.66200636  0.16266301  0.16400944  1
  In  In17  1  -0.01059320  0.17762992  0.16472925  1
  In  In18  1  0.17881955  0.66742915  0.16314257  1
  In  In19  1  0.00176779  0.33065266  0.33603297  1
  In  In20  1  0.78740034  0.84203563  0.31603861  1
  In  In21  1  0.52515471  0.49248675  0.67796234  1
  In  In22  1  -0.00166886  0.01293415  0.00935276  1
  In  In23  1  0.49406473  0.02541599  0.49415522  1
  In  In24  1  0.17612919  0.82904613  0.01995121  1
  In  In25  1  0.15753297  0.34443765  0.48080229  1
  In  In26  1  -0.01484262  0.82693123  0.51953874  1
  In  In27  1  0.50995370  0.33643017  0.15732125  1
  In  In28  1  0.34418259  0.35724775  0.32396525  1
  In  In29  1  0.33663462  0.50573685  0.17615312  1
  In  In30  1  0.53085658  0.80414305  0.30120384  1
  In  In31  1  0.18539369  0.02765845  0.85679246  1
  In  In32  1  0.82723626  0.67123095  0.14669416  1
  In  In33  1  0.84819970  0.37540977  0.86289275  1
  In  In34  1  0.84821926  0.49562095  0.32842398  1
  In  In35  1  0.01424136  0.33103188  0.66575291  1
  In  In36  1  0.49711941  0.65689726  0.49589160  1
  In  In37  1  0.17895012  0.03035279  0.49328771  1
  In  In38  1  0.67392329  0.33349573  0.00962719  1
  In  In39  1  0.32633334  0.17202301  0.85725632  1
  In  In40  1  0.64455893  0.81839006  0.87521966  1
  In  In41  1  0.16887625  0.50043676  0.01355553  1
  In  In42  1  0.32085013  0.02586219  0.68953082  1
  In  In43  1  -0.01766895  0.64285553  0.31773694  1
  In  In44  1  0.19118828  0.65977039  0.50474295  1
  In  In45  1  0.67657896  0.49611014  0.15600576  1
  In  In46  1  0.18222780  0.17087430  0.32762432  1
  In  In47  1  0.64314486  0.17129809  0.83410860  1
  In  In48  1  0.18109281  0.83434891  0.65018173  1
  In  In49  1  0.16158790  0.32171060  0.85058588  1
  In  In50  1  0.82441685  0.83955698  -0.00040068  1
  In  In51  1  0.84882595  0.32147110  0.48848735  1
  In  In52  1  0.34967388  0.15755825  0.13271084  1
  In  In53  1  0.82615316  0.16037086  0.02200486  1
  In  In54  1  0.66413614  0.17320444  0.47947547  1
  In  In55  1  0.16478008  0.65172031  0.86167046  1
  In  In56  1  0.35504537  0.00483812  0.32926494  1
  In  In57  1  0.17260129  0.16346401  0.66320015  1
  In  In58  1  0.82091390  0.65918475  0.84974205  1
  In  In59  1  0.49328916  0.50709759  0.01946087  1
  In  In60  1  0.49032065  0.00686207  0.85871178  1
  In  In61  1  0.65424063  0.00941594  0.31425804  1
  In  In62  1  0.81734713  0.16407895  0.66004492  1
  In  In63  1  0.64605578  0.50192974  0.50148989  1
  In  In64  1  0.65898212  0.31403802  0.31990351  1
  In  In65  1  -0.01234888  0.65985875  0.65965104  1
  In  In66  1  0.82588559  0.00611401  0.48982610  1
  In  In67  1  0.84850391  0.81094595  0.68603132  1
  In  In68  1  0.35215237  0.50259433  0.84222226  1
  In  In69  1  0.49152671  0.32435164  0.83348173  1
  In  In70  1  -0.00054629  0.50098947  0.15556441  1
  In  In71  1  0.48966124  0.82461170  0.67124800  1
  Te  Te72  1  0.08996849  0.09509266  0.08887128  1
  Te  Te73  1  0.07310825  0.09271374  0.40333690  1
  Te  Te74  1  0.07629298  0.08277760  0.75376320  1
  Te  Te75  1  0.09454388  0.40319015  0.09592485  1
  Te  Te76  1  0.06573600  0.43893239  0.41572230  1
  Te  Te77  1  0.07718319  0.42180858  0.77026319  1
  Te  Te78  1  0.07386386  0.72368851  0.06830310  1
  Te  Te79  1  0.08465804  0.74516515  0.43086026  1
  Te  Te80  1  0.08631513  0.74562805  0.74291699  1
  Te  Te81  1  0.45573672  0.05607775  0.07863403  1
  Te  Te82  1  0.42424472  0.11558694  0.40001152  1
  Te  Te83  1  0.43576539  0.10979449  0.75165871  1
  Te  Te84  1  0.39855351  0.40348810  0.07752958  1
  Te  Te85  1  0.44587489  0.41346297  0.41832388  1
  Te  Te86  1  0.40856831  0.40839032  0.73698771  1
  Te  Te87  1  0.46230166  0.74679465  0.07513329  1
  Te  Te88  1  0.41884225  0.77267848  0.41675061  1
  Te  Te89  1  0.42669713  0.72452060  0.75983271  1
  Te  Te90  1  0.72737122  0.06220816  0.07389082  1
  Te  Te91  1  0.75893811  0.09578420  0.38788103  1
  Te  Te92  1  0.74134599  0.07722936  0.75807395  1
  Te  Te93  1  0.77431898  0.41416645  0.08099291  1
  Te  Te94  1  0.74873141  0.41130836  0.41129050  1
  Te  Te95  1  0.74292367  0.40085319  0.75339201  1
  Te  Te96  1  0.72338059  0.76136105  0.08358913  1
  Te  Te97  1  0.74265565  0.72791060  0.39686861  1
  Te  Te98  1  0.73355954  0.75146737  0.76350901  1
  Te  Te99  1  0.10053131  0.26259701  0.24025150  1
  Te  Te100  1  0.08201031  0.23888648  0.56565346  1
  Te  Te101  1  0.09807119  0.23849449  0.95854413  1
  Te  Te102  1  0.09968100  0.57319368  0.25235801  1
  Te  Te103  1  0.09016017  0.57512726  0.58285265  1
  Te  Te104  1  0.06263008  0.56334664  0.92378991  1
  Te  Te105  1  0.09771386  0.93723308  0.21841945  1
  Te  Te106  1  0.08405920  0.93524847  0.58181189  1
  Te  Te107  1  0.08645097  0.91416818  0.91771662  1
  Te  Te108  1  0.41460012  0.24917920  0.23759592  1
  Te  Te109  1  0.40985740  0.18881736  0.62433078  1
  Te  Te110  1  0.42487906  0.24600656  0.94005728  1
  Te  Te111  1  0.44022652  0.58593743  0.24650736  1
  Te  Te112  1  0.41820453  0.57580146  0.59597199  1
  Te  Te113  1  0.43827719  0.60086649  0.91492191  1
  Te  Te114  1  0.45219193  0.92492758  0.24284749  1
  Te  Te115  1  0.40845898  0.93164437  0.58984239  1
  Te  Te116  1  0.40289235  0.93193450  0.95831937  1
  Te  Te117  1  0.75680233  0.25790861  0.22577800  1
  Te  Te118  1  0.73888196  0.26457506  0.57848217  1
  Te  Te119  1  0.76097839  0.25493166  0.90771209  1
  Te  Te120  1  0.75418122  0.58891091  0.25256059  1
  Te  Te121  1  0.72558107  0.58543685  0.59483627  1
  Te  Te122  1  0.73629156  0.58675718  0.94623579  1
  Te  Te123  1  0.71742199  0.91973560  0.21343386  1
  Te  Te124  1  0.75857133  0.90967426  0.58888774  1
  Te  Te125  1  0.72561387  0.92776767  0.93178127  1
  Te  Te126  1  0.24197877  0.22141868  0.04919013  1
  Te  Te127  1  0.26723308  0.26008134  0.41637815  1
  Te  Te128  1  0.25618904  0.25637570  0.74996672  1
  Te  Te129  1  0.27499095  0.59788529  0.06948210  1
  Te  Te130  1  0.24667609  0.55804372  0.40535688  1
  Te  Te131  1  0.24973686  0.58059919  0.75696391  1
  Te  Te132  1  0.25939615  0.92250057  0.09721930  1
  Te  Te133  1  0.23596806  0.92069135  0.40072782  1
  Te  Te134  1  0.25369942  0.90796947  0.76544812  1
  Te  Te135  1  0.56840068  0.23716290  0.05813211  1
  Te  Te136  1  0.56033558  0.26002772  0.41770231  1
  Te  Te137  1  0.59066032  0.26909612  0.73761679  1
  Te  Te138  1  0.57899873  0.59876041  0.10257571  1
  Te  Te139  1  0.58370824  0.59011581  0.39826277  1
  Te  Te140  1  0.58003648  0.60126080  0.76168424  1
  Te  Te141  1  0.51658578  0.92004909  0.06793489  1
  Te  Te142  1  0.58292135  0.92004054  0.42101928  1
  Te  Te143  1  0.57570096  0.91933211  0.75790297  1
  Te  Te144  1  0.92074676  0.26424481  0.06450726  1
  Te  Te145  1  0.91724794  0.22651237  0.40004871  1
  Te  Te146  1  0.91117965  0.25339038  0.74815638  1
  Te  Te147  1  0.89793525  0.56649191  0.06450025  1
  Te  Te148  1  0.91789047  0.57650696  0.43210146  1
  Te  Te149  1  0.90915331  0.57377822  0.75674450  1
  Te  Te150  1  0.90251388  0.93035092  0.09548513  1
  Te  Te151  1  0.91514314  0.90884117  0.40999587  1
  Te  Te152  1  0.88336893  0.92519938  0.78172629  1
  Te  Te153  1  0.26093548  0.07959897  0.23483597  1
  Te  Te154  1  0.28794764  0.11711609  0.56105899  1
  Te  Te155  1  0.26470865  0.08835480  0.97071043  1
  Te  Te156  1  0.23941086  0.40939113  0.23290153  1
  Te  Te157  1  0.26284400  0.38841213  0.58434880  1
  Te  Te158  1  0.25994404  0.41308241  0.92421060  1
  Te  Te159  1  0.26358498  0.75482493  0.25529486  1
  Te  Te160  1  0.28239342  0.72798041  0.60660492  1
  Te  Te161  1  0.26381523  0.74844069  0.92500357  1
  Te  Te162  1  0.56049000  0.10874360  0.25843114  1
  Te  Te163  1  0.57477276  0.11297593  0.59208767  1
  Te  Te164  1  0.59135715  0.08064811  0.94042107  1
  Te  Te165  1  0.58034034  0.42826050  0.25414168  1
  Te  Te166  1  0.56282561  0.39851012  0.56882959  1
  Te  Te167  1  0.58146933  0.42249132  0.92168535  1
  Te  Te168  1  0.61030363  0.74087815  0.19362038  1
  Te  Te169  1  0.58736357  0.73886628  0.59087472  1
  Te  Te170  1  0.53768898  0.73783915  0.93691781  1
  Te  Te171  1  0.89342898  0.08458695  0.23127703  1
  Te  Te172  1  0.92123628  0.09359461  0.57186646  1
  Te  Te173  1  0.90795497  0.08352132  0.91001005  1
  Te  Te174  1  0.91180116  0.39925130  0.23167406  1
  Te  Te175  1  0.92590788  0.41923115  0.57801150  1
  Te  Te176  1  0.94392721  0.45002178  0.94506102  1
  Te  Te177  1  0.91587016  0.76196076  0.24886892  1
  Te  Te178  1  0.88366701  0.72267115  0.56590813  1
  Te  Te179  1  0.92143244  0.74252336  0.93073090  1
