# generated using pymatgen
data_In2Te3
_symmetry_space_group_name_H-M   'P 1'
_cell_length_a   18.85271476
_cell_length_b   18.84322172
_cell_length_c   18.85806434
_cell_angle_alpha   89.85859262
_cell_angle_beta   89.83932922
_cell_angle_gamma   89.97248217
_symmetry_Int_Tables_number   1
_chemical_formula_structural   In2Te3
_chemical_formula_sum   'In72 Te108'
_cell_volume   6699.20224634
_cell_formula_units_Z   36
loop_
 _symmetry_equiv_pos_site_id
 _symmetry_equiv_pos_as_xyz
  1  'x, y, z'
loop_
 _atom_site_type_symbol
 _atom_site_label
 _atom_site_symmetry_multiplicity
 _atom_site_fract_x
 _atom_site_fract_y
 _atom_site_fract_z
 _atom_site_occupancy
  In  In0  1  0.51476585  0.32626581  0.84521398  1
  In  In1  1  0.66385111  0.83332135  0.14841891  1
  In  In2  1  0.81960006  0.35309669  0.51499760  1
  In  In3  1  0.01263394  0.48865866  0.82549603  1
  In  In4  1  0.33963305  0.50161408  0.84055167  1
  In  In5  1  0.17743685  0.33788791  0.16384099  1
  In  In6  1  0.02017251  0.00371567  0.69504832  1
  In  In7  1  0.50878888  0.16744415  -0.00651079  1
  In  In8  1  0.15232283  0.51780511  0.35929799  1
  In  In9  1  0.00677100  0.68872137  0.33808728  1
  In  In10  1  0.66295934  0.84443998  0.51467998  1
  In  In11  1  0.65895520  0.83567029  0.83767590  1
  In  In12  1  0.34296800  0.50813242  0.16406019  1
  In  In13  1  0.30748006  0.16432643  0.16216917  1
  In  In14  1  0.01949559  0.82918915  0.51446396  1
  In  In15  1  0.48902631  0.68642235  0.83519907  1
  In  In16  1  0.67207749  0.32979909  0.67918394  1
  In  In17  1  0.66255876  -0.00088520  0.67855603  1
  In  In18  1  0.30354115  0.50295123  0.51011837  1
  In  In19  1  -0.00584531  0.65833127  0.65977244  1
  In  In20  1  0.51341144  0.29554087  0.14089690  1
  In  In21  1  0.34722442  0.21220490  0.66253453  1
  In  In22  1  -0.00571804  0.71430898  -0.03003655  1
  In  In23  1  0.85385269  0.50745122  -0.00929951  1
  In  In24  1  0.17369598  -0.01890198  0.16621951  1
  In  In25  1  0.84390635  0.31951495  0.15715861  1
  In  In26  1  0.65435404  0.01608069  0.30904077  1
  In  In27  1  0.67309752  0.02776458  0.01918077  1
  In  In28  1  0.82887293  -0.01222067  0.83034845  1
  In  In29  1  0.35801488  0.68749457  0.66990103  1
  In  In30  1  0.65788610  0.28729565  0.35789463  1
  In  In31  1  0.32552435  0.69222458  -0.01016578  1
  In  In32  1  0.50875927  0.69107755  0.49527232  1
  In  In33  1  0.03196146  0.15601237  0.52709389  1
  In  In34  1  0.85524958  -0.00810249  0.51422216  1
  In  In35  1  0.15556009  0.12111550  -0.02595953  1
  In  In36  1  0.00355035  0.84559875  0.16103712  1
  In  In37  1  -0.01859768  0.17778452  0.80493081  1
  In  In38  1  0.48906773  0.68852417  0.15202613  1
  In  In39  1  0.48494785  -0.01046216  0.49723412  1
  In  In40  1  -0.00313572  0.51600923  0.13991576  1
  In  In41  1  0.00199565  0.33297765  0.35639478  1
  In  In42  1  0.67534993  0.48082942  0.84547998  1
  In  In43  1  0.17973723  0.84508126  0.66269284  1
  In  In44  1  0.35349538  -0.02820426  -0.02655417  1
  In  In45  1  0.47944758  0.48915855  0.31298531  1
  In  In46  1  -0.03120119  0.17454866  0.16201143  1
  In  In47  1  0.46010445  0.12321088  0.33678624  1
  In  In48  1  0.69575117  0.67733949  0.66853262  1
  In  In49  1  0.52708791  0.49438368  0.66700802  1
  In  In50  1  0.31515551  0.31378016  0.36040151  1
  In  In51  1  0.31223942  0.85831727  0.49008838  1
  In  In52  1  -0.01584611  0.30298591  0.01815205  1
  In  In53  1  0.16644490  0.67659142  0.83599985  1
  In  In54  1  0.80945018  0.83259272  0.33880497  1
  In  In55  1  0.16674757  0.16172267  0.35606978  1
  In  In56  1  -0.00607949  0.48691640  0.50833370  1
  In  In57  1  0.20920703  0.49065679  -0.02463001  1
  In  In58  1  0.33751795  0.34903889  -0.02912300  1
  In  In59  1  0.46844104  -0.02021426  0.18722717  1
  In  In60  1  0.67222084  0.65903351  0.00322978  1
  In  In61  1  0.83897973  0.15748332  0.32256356  1
  In  In62  1  0.83523468  0.51708321  0.33269471  1
  In  In63  1  0.67206474  0.16362689  0.84302591  1
  In  In64  1  0.67236634  0.49493533  0.18551849  1
  In  In65  1  0.15668132  0.47925967  0.66852852  1
  In  In66  1  0.32722667  0.00695639  0.66888010  1
  In  In67  1  0.66302478  0.51664326  0.53175011  1
  In  In68  1  0.66043474  0.67284810  0.33174006  1
  In  In69  1  0.18777083  0.71746652  0.19436972  1
  In  In70  1  0.00145607  -0.05877606  -0.04793898  1
  In  In71  1  0.64736109  0.16307077  0.49149993  1
  Te  Te72  1  0.08267513  0.08577863  0.10035471  1
  Te  Te73  1  0.05322589  0.07990123  0.40300421  1
  Te  Te74  1  0.10075738  0.11833588  0.74079628  1
  Te  Te75  1  0.08778697  0.41598171  0.06673839  1
  Te  Te76  1  0.10827395  0.39813024  0.44533452  1
  Te  Te77  1  0.06225356  0.38042258  0.73264751  1
  Te  Te78  1  0.09499651  0.75702684  0.07722649  1
  Te  Te79  1  0.11106767  0.75155519  0.42266133  1
  Te  Te80  1  0.08171279  0.75647347  0.73991599  1
  Te  Te81  1  0.40739089  0.08425726  0.08069773  1
  Te  Te82  1  0.36733373  0.06920507  0.44292987  1
  Te  Te83  1  0.40802989  0.10421290  0.74532533  1
  Te  Te84  1  0.42357550  0.40792523  0.08280649  1
  Te  Te85  1  0.40448412  0.41866383  0.42540736  1
  Te  Te86  1  0.42986832  0.41439796  0.75180682  1
  Te  Te87  1  0.39719838  0.78406011  0.08302506  1
  Te  Te88  1  0.41996923  0.77737106  0.41490125  1
  Te  Te89  1  0.38162684  0.78157052  0.78498970  1
  Te  Te90  1  0.76522671  0.09877847  0.10731409  1
  Te  Te91  1  0.75136089  0.06540662  0.42404123  1
  Te  Te92  1  0.76312762  0.09390810  0.74305316  1
  Te  Te93  1  0.76145818  0.42591774  0.08304354  1
  Te  Te94  1  0.74320079  0.41362862  0.39649438  1
  Te  Te95  1  0.76683001  0.41601959  0.75060459  1
  Te  Te96  1  0.76078411  0.75636070  0.06909895  1
  Te  Te97  1  0.74478389  0.73714390  0.44008291  1
  Te  Te98  1  0.76616124  0.75669228  0.77115197  1
  Te  Te99  1  0.08461808  0.25210496  0.24841383  1
  Te  Te100  1  0.11719689  0.26995792  0.55913893  1
  Te  Te101  1  0.07587487  0.23688991  0.91639301  1
  Te  Te102  1  0.08589598  0.58962849  0.24033883  1
  Te  Te103  1  0.09496875  0.58074359  0.57363677  1
  Te  Te104  1  0.08498870  0.58359398  0.92622956  1
  Te  Te105  1  0.09012867  0.90727767  0.26678560  1
  Te  Te106  1  0.09887678  0.94277626  0.57840787  1
  Te  Te107  1  0.12809999  0.90467684  0.88641786  1
  Te  Te108  1  0.39816988  0.25615347  0.24446423  1
  Te  Te109  1  0.44721597  0.24450098  0.56010473  1
  Te  Te110  1  0.40698034  0.23259203  0.90105126  1
  Te  Te111  1  0.40574176  0.61105962  0.25687717  1
  Te  Te112  1  0.43163938  0.58380783  0.58360410  1
  Te  Te113  1  0.42222981  0.58818708  0.93436900  1
  Te  Te114  1  0.40381729  0.90093172  0.29387447  1
  Te  Te115  1  0.41258150  0.90005873  0.59868163  1
  Te  Te116  1  0.43520462  0.90145350  0.87148130  1
  Te  Te117  1  0.73961121  0.23705821  0.23852755  1
  Te  Te118  1  0.74613407  0.23652713  0.58153236  1
  Te  Te119  1  0.72561268  0.26884715  0.92790094  1
  Te  Te120  1  0.76052206  0.60854262  0.23621646  1
  Te  Te121  1  0.77713500  0.57147821  0.60278935  1
  Te  Te122  1  0.76490138  0.59206943  0.90120681  1
  Te  Te123  1  0.75173183  0.92680188  0.23364277  1
  Te  Te124  1  0.76451651  0.90999697  0.60626128  1
  Te  Te125  1  0.74351750  0.92048510  0.93570099  1
  Te  Te126  1  0.24312706  0.25324765  0.05530192  1
  Te  Te127  1  0.24116204  0.23570173  0.46906763  1
  Te  Te128  1  0.24684982  0.26988107  0.75263114  1
  Te  Te129  1  0.24456939  0.59306059  0.08559918  1
  Te  Te130  1  0.26183277  0.60133329  0.40904835  1
  Te  Te131  1  0.25619984  0.59039572  0.74576882  1
  Te  Te132  1  0.27422601  0.90640215  0.08377741  1
  Te  Te133  1  0.20448835  0.88870860  0.38954068  1
  Te  Te134  1  0.22909180  0.94113893  0.76877269  1
  Te  Te135  1  0.62355512  0.25416458  0.04478962  1
  Te  Te136  1  0.52390187  0.23654457  0.42267972  1
  Te  Te137  1  0.57639043  0.23168245  0.74388636  1
  Te  Te138  1  0.57997809  0.57823313  0.09716168  1
  Te  Te139  1  0.57712309  0.56944385  0.40865711  1
  Te  Te140  1  0.59025432  0.59656029  0.76080302  1
  Te  Te141  1  0.56742577  0.93040771  0.08275566  1
  Te  Te142  1  0.58575680  0.91883450  0.40697921  1
  Te  Te143  1  0.56346973  0.92066828  0.75871930  1
  Te  Te144  1  0.86054376  0.20666478  0.04722271  1
  Te  Te145  1  0.90081554  0.24800267  0.42924913  1
  Te  Te146  1  0.91650340  0.28649815  0.72762058  1
  Te  Te147  1  0.91495611  0.62184502  0.07053730  1
  Te  Te148  1  0.92164946  0.59631963  0.42732744  1
  Te  Te149  1  0.91745959  0.57609998  0.75615688  1
  Te  Te150  1  0.91822203  0.92500601  0.07098247  1
  Te  Te151  1  0.92204557  0.90187021  0.41317341  1
  Te  Te152  1  0.92874497  0.90037825  0.75665478  1
  Te  Te153  1  0.25222007  0.07086695  0.26706155  1
  Te  Te154  1  0.26420102  0.08896496  0.56004140  1
  Te  Te155  1  0.26908349  0.06869037  0.89632623  1
  Te  Te156  1  0.25091854  0.42626134  0.26277844  1
  Te  Te157  1  0.27628462  0.40587875  0.61886873  1
  Te  Te158  1  0.23126311  0.38345254  0.86018760  1
  Te  Te159  1  0.27792297  0.80958758  0.27220475  1
  Te  Te160  1  0.25291389  0.74228429  0.57658169  1
  Te  Te161  1  0.22702429  0.78442133  0.92160053  1
  Te  Te162  1  0.56210540  0.10112318  0.22590946  1
  Te  Te163  1  0.56618952  0.07894901  0.58985851  1
  Te  Te164  1  0.57539424  0.06383973  0.90502065  1
  Te  Te165  1  0.57945376  0.39059222  0.25014309  1
  Te  Te166  1  0.58275944  0.39423250  0.56698007  1
  Te  Te167  1  0.57164230  0.42830077  0.93463289  1
  Te  Te168  1  0.57298993  0.76723955  0.25306276  1
  Te  Te169  1  0.57821174  0.75996056  0.61046855  1
  Te  Te170  1  0.57341079  0.75734209  0.93930400  1
  Te  Te171  1  0.92875739  0.06507713  0.25239888  1
  Te  Te172  1  0.92087498  0.09087677  0.60684488  1
  Te  Te173  1  0.93198556  0.06897677  0.90658118  1
  Te  Te174  1  0.92768395  0.42187169  0.24691084  1
  Te  Te175  1  0.93358699  0.38898187  0.60795362  1
  Te  Te176  1  0.92108598  0.39586401  0.91481709  1
  Te  Te177  1  0.90856880  0.75785319  0.24738073  1
  Te  Te178  1  0.91329336  0.75902587  0.58756029  1
  Te  Te179  1  0.91621322  0.79516299  0.87519768  1
