# generated using pymatgen
data_In2Te3
_symmetry_space_group_name_H-M   'P 1'
_cell_length_a   18.94674301
_cell_length_b   18.95621267
_cell_length_c   18.96825789
_cell_angle_alpha   90.01664558
_cell_angle_beta   89.81958394
_cell_angle_gamma   89.96216487
_symmetry_Int_Tables_number   1
_chemical_formula_structural   In2Te3
_chemical_formula_sum   'In72 Te108'
_cell_volume   6812.57530901
_cell_formula_units_Z   36
loop_
 _symmetry_equiv_pos_site_id
 _symmetry_equiv_pos_as_xyz
  1  'x, y, z'
loop_
 _atom_site_type_symbol
 _atom_site_label
 _atom_site_symmetry_multiplicity
 _atom_site_fract_x
 _atom_site_fract_y
 _atom_site_fract_z
 _atom_site_occupancy
  In  In0  1  0.82140462  0.17386117  -0.01096930  1
  In  In1  1  -0.01807086  -0.00992333  0.65022893  1
  In  In2  1  0.17699834  0.34247526  0.82388449  1
  In  In3  1  -0.04116538  0.13154538  0.18491286  1
  In  In4  1  0.67775572  0.34217189  0.67489183  1
  In  In5  1  0.66333177  -0.01153363  0.33537836  1
  In  In6  1  -0.01990633  0.64654552  0.66539440  1
  In  In7  1  0.49715724  0.17872225  0.34187119  1
  In  In8  1  0.50396171  0.66043583  0.53161350  1
  In  In9  1  0.51174971  0.15450915  0.00718228  1
  In  In10  1  -0.01460864  -0.00072443  -0.01508140  1
  In  In11  1  0.32162139  0.68192313  0.31759982  1
  In  In12  1  0.34998994  0.17448234  0.86408644  1
  In  In13  1  0.69129503  0.47596835  0.15067546  1
  In  In14  1  0.00181776  0.13680952  0.47046663  1
  In  In15  1  0.49912302  0.85343529  0.31377913  1
  In  In16  1  0.81422330  0.86100987  0.64927611  1
  In  In17  1  0.67035215  0.48596187  0.85288070  1
  In  In18  1  0.84179953  0.49966726  0.33758388  1
  In  In19  1  -0.01692904  0.82140327  0.81256401  1
  In  In20  1  -0.03543219  0.29938483  0.66586138  1
  In  In21  1  0.53336239  0.17894443  0.69015874  1
  In  In22  1  0.52400560  -0.03349050  0.84346105  1
  In  In23  1  0.79699633  0.12837979  0.68558806  1
  In  In24  1  -0.01550903  0.50843336  0.15016824  1
  In  In25  1  0.52503603  0.50091317  0.33437370  1
  In  In26  1  0.32565008  0.84299545  0.84865702  1
  In  In27  1  0.30496015  0.68321325  0.67649564  1
  In  In28  1  0.82991549  0.66777905  0.16002620  1
  In  In29  1  -0.00390006  0.34285819  0.32373038  1
  In  In30  1  0.71307842  0.18737847  0.19832541  1
  In  In31  1  0.17205241  0.63341366  0.15146516  1
  In  In32  1  0.66841820  0.68454714  0.35840069  1
  In  In33  1  0.17335845  0.84870608  0.63891383  1
  In  In34  1  0.48561145  0.34901789  0.13572608  1
  In  In35  1  0.67755411  0.82925625  0.85206680  1
  In  In36  1  0.00858415  0.82270994  0.15703641  1
  In  In37  1  -0.00471158  0.47978885  0.83795444  1
  In  In38  1  0.54183102  0.82274841  0.69218831  1
  In  In39  1  0.33513341  0.17073276  0.48872222  1
  In  In40  1  -0.00526988  0.83911455  0.47846323  1
  In  In41  1  0.17394130  0.30942819  0.17477218  1
  In  In42  1  0.13873505  0.66024429  0.85092197  1
  In  In43  1  0.32963058  0.48289551  0.87542805  1
  In  In44  1  0.34821032  0.84712147  0.46607254  1
  In  In45  1  0.50574649  0.83786039  0.03365714  1
  In  In46  1  0.15356933  0.50554376  0.32044564  1
  In  In47  1  0.81949779  0.84729785  0.32415390  1
  In  In48  1  0.83595032  0.82248595  -0.00297463  1
  In  In49  1  0.71674725  0.64693776  0.65155227  1
  In  In50  1  0.16016753  0.84894489  0.02039850  1
  In  In51  1  0.65617338  0.65353779  -0.00132249  1
  In  In52  1  0.37734677  0.01838539  0.64192906  1
  In  In53  1  0.51682995  0.00330062  0.50251930  1
  In  In54  1  0.01225990  0.32359259  -0.00025649  1
  In  In55  1  0.34514908  0.33712783  0.66560482  1
  In  In56  1  0.16120503  0.17487874  -0.00590012  1
  In  In57  1  0.34115351  0.33651932  0.34083959  1
  In  In58  1  0.49502941  0.65693659  0.16918085  1
  In  In59  1  0.48563549  0.00828294  0.16548774  1
  In  In60  1  0.17390565  0.49888132  0.65807883  1
  In  In61  1  0.65595349  0.33710213  -0.00560526  1
  In  In62  1  0.17455701  0.02105446  0.18988696  1
  In  In63  1  0.33011594  0.49995092  0.48584526  1
  In  In64  1  0.51462358  0.48531318  0.68272558  1
  In  In65  1  0.84072789  0.34770137  0.48871680  1
  In  In66  1  0.48413952  0.63112651  0.84057905  1
  In  In67  1  0.16231086  0.01227560  0.80933400  1
  In  In68  1  -0.01914302  0.51010101  0.50516012  1
  In  In69  1  0.68745043  0.18177302  0.46312139  1
  In  In70  1  0.15889815  0.83959920  0.33631160  1
  In  In71  1  0.15487894  0.17784341  0.64152409  1
  Te  Te72  1  0.07161089  0.08068208  0.08098503  1
  Te  Te73  1  0.10863838  0.08567780  0.38258614  1
  Te  Te74  1  0.06394568  0.09292094  0.72959125  1
  Te  Te75  1  0.08886059  0.41162461  0.09664756  1
  Te  Te76  1  0.07707085  0.42348482  0.42244760  1
  Te  Te77  1  0.07568948  0.40134090  0.71947654  1
  Te  Te78  1  0.08216128  0.72643744  0.06679691  1
  Te  Te79  1  0.08603707  0.74202160  0.41829253  1
  Te  Te80  1  0.10048207  0.75206779  0.73127377  1
  Te  Te81  1  0.40088367  0.10311539  0.09036156  1
  Te  Te82  1  0.41673781  0.06804854  0.40946562  1
  Te  Te83  1  0.43391334  0.07811073  0.76876894  1
  Te  Te84  1  0.37648601  0.43801091  0.09657144  1
  Te  Te85  1  0.43911976  0.41308138  0.42880377  1
  Te  Te86  1  0.42186783  0.40810211  0.77284802  1
  Te  Te87  1  0.40827563  0.74833483  0.09425600  1
  Te  Te88  1  0.43599329  0.73110682  0.41350980  1
  Te  Te89  1  0.41352489  0.75150940  0.75847452  1
  Te  Te90  1  0.77297809  0.09263322  0.10404434  1
  Te  Te91  1  0.77013403  0.07779785  0.39266748  1
  Te  Te92  1  0.69931787  0.07297713  0.78359438  1
  Te  Te93  1  0.77374404  0.41088796  0.04773411  1
  Te  Te94  1  0.74156044  0.39959136  0.38905722  1
  Te  Te95  1  0.75904555  0.44128417  0.74557234  1
  Te  Te96  1  0.73029289  0.75338778  0.08419170  1
  Te  Te97  1  0.75942309  0.76880330  0.43440736  1
  Te  Te98  1  0.76166971  0.75812679  0.75027642  1
  Te  Te99  1  0.06128493  0.23282345  0.24255865  1
  Te  Te100  1  0.05848557  0.25353160  0.55451694  1
  Te  Te101  1  0.07949182  0.24444344  0.88662999  1
  Te  Te102  1  0.05634760  0.59568967  0.25097759  1
  Te  Te103  1  0.09120545  0.59385290  0.57596374  1
  Te  Te104  1  0.10377654  0.53729222  0.91985886  1
  Te  Te105  1  0.07018971  0.92590593  0.24830414  1
  Te  Te106  1  0.08693834  0.93778426  0.55479375  1
  Te  Te107  1  0.08696387  0.91038552  0.89411241  1
  Te  Te108  1  0.41754412  0.25530200  0.23877920  1
  Te  Te109  1  0.42907261  0.23624247  0.59135850  1
  Te  Te110  1  0.44234142  0.26208991  0.93347875  1
  Te  Te111  1  0.41134770  0.57028636  0.26288427  1
  Te  Te112  1  0.39790797  0.57672170  0.60477655  1
  Te  Te113  1  0.39139267  0.59588725  0.95003922  1
  Te  Te114  1  0.39411761  0.91477230  0.23488465  1
  Te  Te115  1  0.43965714  0.89039675  0.58886806  1
  Te  Te116  1  0.41406614  0.92461095  0.93805239  1
  Te  Te117  1  0.77579118  0.27643073  0.29651680  1
  Te  Te118  1  0.76422406  0.24894385  0.58042413  1
  Te  Te119  1  0.72618020  0.24716200  0.89810553  1
  Te  Te120  1  0.73701077  0.58341274  0.25585139  1
  Te  Te121  1  0.80692491  0.58116354  0.55687746  1
  Te  Te122  1  0.75110659  0.59752757  0.90377838  1
  Te  Te123  1  0.72194597  0.90455071  0.22956819  1
  Te  Te124  1  0.72175930  0.96239159  0.60017198  1
  Te  Te125  1  0.75872407  0.92505968  0.92479736  1
  Te  Te126  1  0.26099643  0.22250751  0.09187831  1
  Te  Te127  1  0.23944776  0.24580356  0.40276890  1
  Te  Te128  1  0.25915324  0.23071952  0.74375086  1
  Te  Te129  1  0.28418023  0.56276778  0.08676608  1
  Te  Te130  1  0.23857957  0.59331101  0.41093522  1
  Te  Te131  1  0.25191192  0.57125882  0.76682319  1
  Te  Te132  1  0.25018472  0.93631967  0.09456086  1
  Te  Te133  1  0.24836155  0.93363989  0.40658885  1
  Te  Te134  1  0.26944756  0.92798439  0.73327271  1
  Te  Te135  1  0.60289382  0.24335143  0.10438623  1
  Te  Te136  1  0.57389012  0.26763256  0.42872283  1
  Te  Te137  1  0.60579309  0.26774348  0.78296028  1
  Te  Te138  1  0.57853795  0.55903089  0.08674332  1
  Te  Te139  1  0.59827424  0.57763183  0.44362405  1
  Te  Te140  1  0.59474745  0.59999321  0.74006908  1
  Te  Te141  1  0.59226448  0.94040270  0.08929648  1
  Te  Te142  1  0.59013398  0.89341149  0.42890733  1
  Te  Te143  1  0.61757519  0.95825624  0.71488284  1
  Te  Te144  1  0.91766294  0.24128964  0.08859061  1
  Te  Te145  1  0.91019313  0.24260017  0.40132286  1
  Te  Te146  1  0.87820400  0.22816708  0.76015137  1
  Te  Te147  1  0.89884262  0.58606117  0.06058046  1
  Te  Te148  1  0.89435394  0.60597487  0.42946539  1
  Te  Te149  1  0.91710806  0.59428760  0.78540221  1
  Te  Te150  1  0.91187443  0.91822144  0.08983616  1
  Te  Te151  1  0.91217901  0.93854900  0.40202387  1
  Te  Te152  1  0.89629110  0.93260697  0.76096839  1
  Te  Te153  1  0.22242399  0.12341808  0.28724672  1
  Te  Te154  1  0.25261081  0.07782805  0.57835582  1
  Te  Te155  1  0.24822591  0.07370351  0.91754287  1
  Te  Te156  1  0.25372297  0.41952417  0.24739566  1
  Te  Te157  1  0.24779672  0.39999789  0.56805987  1
  Te  Te158  1  0.25746833  0.37402732  0.94172463  1
  Te  Te159  1  0.22883782  0.75350797  0.22559553  1
  Te  Te160  1  0.25766476  0.75513335  0.55378281  1
  Te  Te161  1  0.23842404  0.74824462  0.92615709  1
  Te  Te162  1  0.59051590  0.09621630  0.25489489  1
  Te  Te163  1  0.59757057  0.11070106  0.56878180  1
  Te  Te164  1  0.60005495  0.07265619  0.91569392  1
  Te  Te165  1  0.58747358  0.40349756  0.23597366  1
  Te  Te166  1  0.59099830  0.41580466  0.58085226  1
  Te  Te167  1  0.56175184  0.43569678  0.93676955  1
  Te  Te168  1  0.58682887  0.75018167  0.24735831  1
  Te  Te169  1  0.61776882  0.74564132  0.58563181  1
  Te  Te170  1  0.56409449  0.74838388  0.91081549  1
  Te  Te171  1  0.89414706  0.05829533  0.29740684  1
  Te  Te172  1  0.89898107  0.08822234  0.57327955  1
  Te  Te173  1  0.92048610  0.10147792  0.90372019  1
  Te  Te174  1  0.89976104  0.40982447  0.22815019  1
  Te  Te175  1  0.90054242  0.42743720  0.60430147  1
  Te  Te176  1  0.90839220  0.40003603  0.92763801  1
  Te  Te177  1  0.91542109  0.75046227  0.25254664  1
  Te  Te178  1  0.92477192  0.76885089  0.59496900  1
  Te  Te179  1  0.93422994  0.73959490  0.92292155  1
