# generated using pymatgen
data_In2Te3
_symmetry_space_group_name_H-M   'P 1'
_cell_length_a   18.79973328
_cell_length_b   18.80464602
_cell_length_c   18.80280310
_cell_angle_alpha   90.01685556
_cell_angle_beta   89.99345225
_cell_angle_gamma   90.01159287
_symmetry_Int_Tables_number   1
_chemical_formula_structural   In2Te3
_chemical_formula_sum   'In72 Te108'
_cell_volume   6647.21029066
_cell_formula_units_Z   36
loop_
 _symmetry_equiv_pos_site_id
 _symmetry_equiv_pos_as_xyz
  1  'x, y, z'
loop_
 _atom_site_type_symbol
 _atom_site_label
 _atom_site_symmetry_multiplicity
 _atom_site_fract_x
 _atom_site_fract_y
 _atom_site_fract_z
 _atom_site_occupancy
  In  In0  1  0.34848123  0.63461086  0.32421071  1
  In  In1  1  0.34978513  0.80843374  0.82440492  1
  In  In2  1  0.85763084  0.68556894  0.86375090  1
  In  In3  1  0.66793843  0.51314058  0.82035474  1
  In  In4  1  -0.00278269  0.49960523  0.15631014  1
  In  In5  1  0.33283102  0.20037207  0.84610601  1
  In  In6  1  0.33504006  0.34930375  0.34019654  1
  In  In7  1  0.16710101  0.84251034  -0.00047240  1
  In  In8  1  0.33258568  0.51956510  0.83671400  1
  In  In9  1  0.34433932  0.18336397  0.17933118  1
  In  In10  1  0.82871812  0.49295853  0.00377826  1
  In  In11  1  0.16796981  0.50868545  -0.00541555  1
  In  In12  1  0.68278498  0.81644262  0.50683598  1
  In  In13  1  0.35430488  0.17022571  0.50459951  1
  In  In14  1  -0.01001450  0.17818786  0.83261429  1
  In  In15  1  0.17841873  0.48248376  0.32186515  1
  In  In16  1  0.51347638  -0.00901417  0.51011580  1
  In  In17  1  0.18336818  0.49531055  0.67140716  1
  In  In18  1  0.65771669  0.18455550  0.15569419  1
  In  In19  1  0.51100727  0.01113339  0.85314518  1
  In  In20  1  0.01001524  0.65648222  0.68678270  1
  In  In21  1  0.49636168  0.18167886  0.32708637  1
  In  In22  1  0.83536924  0.16310372  0.66720540  1
  In  In23  1  0.82382397  0.83356320  0.67864343  1
  In  In24  1  0.01449653  0.32781031  0.31482886  1
  In  In25  1  0.82252945  0.66124226  0.50568275  1
  In  In26  1  0.16291586  0.18020702  0.69055446  1
  In  In27  1  -0.03472162  0.64631176  0.33122574  1
  In  In28  1  0.81805845  -0.04107273  0.85987043  1
  In  In29  1  -0.02522115  0.86123415  0.13196980  1
  In  In30  1  0.81709100  0.83222832  0.33602085  1
  In  In31  1  0.81084782  0.32667919  0.16184199  1
  In  In32  1  0.33381826  0.65819016  0.00315723  1
  In  In33  1  0.81203352  0.65630329  0.16680412  1
  In  In34  1  0.01048055  0.83883077  0.48961789  1
  In  In35  1  0.32909133  0.01343825  0.01543775  1
  In  In36  1  0.83195231  0.31594145  0.84278656  1
  In  In37  1  0.18517941  0.66323221  0.14833176  1
  In  In38  1  0.52651009  0.81104507  -0.01035340  1
  In  In39  1  0.84409950  0.36334857  0.51066412  1
  In  In40  1  0.66647883  0.16229559  0.86812025  1
  In  In41  1  -0.02251857  0.00554661  0.31866465  1
  In  In42  1  0.15482931  0.80783556  0.66390173  1
  In  In43  1  0.16646747  0.16385792  0.02700712  1
  In  In44  1  0.50344007  0.34370964  0.48603724  1
  In  In45  1  0.64305677  0.51821617  0.49228096  1
  In  In46  1  0.17355697  0.35358857  0.84290814  1
  In  In47  1  0.17859542  0.65691417  0.52014895  1
  In  In48  1  0.67200887  0.01391455  0.32590919  1
  In  In49  1  0.14231181  0.19617963  0.30597880  1
  In  In50  1  0.79997378  0.51092629  0.33235551  1
  In  In51  1  0.33365805  -0.00844418  0.66043934  1
  In  In52  1  -0.01216848  0.16580247  0.50747453  1
  In  In53  1  0.64218533  0.00341693  0.67075277  1
  In  In54  1  0.50711529  0.17215458  0.65714778  1
  In  In55  1  0.48032420  0.81860549  0.32715793  1
  In  In56  1  0.14070736  -0.01063493  0.84301321  1
  In  In57  1  0.83826362  0.14933300  0.31120482  1
  In  In58  1  0.50731214  0.49158736  0.02398957  1
  In  In59  1  -0.00488031  0.50611721  0.83980787  1
  In  In60  1  0.15764471  0.00360049  0.15299096  1
  In  In61  1  0.16503523  -0.01703106  0.48789010  1
  In  In62  1  0.49428176  0.65106501  0.16651788  1
  In  In63  1  0.18121044  0.82198201  0.33110290  1
  In  In64  1  0.66672387  0.83972724  0.15803873  1
  In  In65  1  0.18531022  0.35189349  0.51371922  1
  In  In66  1  0.32891792  -0.03183003  0.31916173  1
  In  In67  1  0.66366972  0.66080939  0.67428179  1
  In  In68  1  0.51549208  0.81762440  0.69372176  1
  In  In69  1  0.48084166  0.35550808  0.84961090  1
  In  In70  1  0.82541680  0.17079574  0.00844885  1
  In  In71  1  0.66435494  0.33913636  0.66190384  1
  Te  Te72  1  0.06071213  0.06636069  0.06204686  1
  Te  Te73  1  0.08370634  0.08313221  0.40664277  1
  Te  Te74  1  0.06477156  0.07742629  0.74402926  1
  Te  Te75  1  0.08794902  0.41574575  0.07787970  1
  Te  Te76  1  0.08214741  0.41608966  0.41952694  1
  Te  Te77  1  0.07513303  0.41538894  0.74569616  1
  Te  Te78  1  0.07812475  0.75347234  0.08862424  1
  Te  Te79  1  0.08625728  0.73110573  0.41264773  1
  Te  Te80  1  0.06943084  0.75933911  0.77338677  1
  Te  Te81  1  0.42362075  0.10134356  0.08535528  1
  Te  Te82  1  0.41737413  0.06477487  0.41380441  1
  Te  Te83  1  0.41825780  0.08496544  0.74765738  1
  Te  Te84  1  0.44494376  0.37889795  0.09847456  1
  Te  Te85  1  0.44329404  0.44234073  0.39021642  1
  Te  Te86  1  0.41690964  0.43718407  0.74535111  1
  Te  Te87  1  0.41815994  0.75561836  0.08304179  1
  Te  Te88  1  0.40672738  0.73278684  0.42694410  1
  Te  Te89  1  0.42876793  0.70890284  0.74736758  1
  Te  Te90  1  0.74711281  0.08199690  0.09694322  1
  Te  Te91  1  0.76587369  0.07821972  0.41878966  1
  Te  Te92  1  0.74216179  0.08134834  0.75979798  1
  Te  Te93  1  0.73004302  0.44428419  0.10868340  1
  Te  Te94  1  0.72745853  0.41059415  0.42040647  1
  Te  Te95  1  0.76383151  0.41534489  0.74868657  1
  Te  Te96  1  0.75145216  0.75256424  0.06752177  1
  Te  Te97  1  0.73396159  0.72061025  0.39695234  1
  Te  Te98  1  0.74342173  0.74700436  0.77336359  1
  Te  Te99  1  0.06307385  0.25347972  0.19517899  1
  Te  Te100  1  0.08517827  0.25669932  0.58341410  1
  Te  Te101  1  0.09213143  0.24972321  0.91937551  1
  Te  Te102  1  0.08982610  0.59132695  0.25156596  1
  Te  Te103  1  0.07023984  0.56653873  0.57905103  1
  Te  Te104  1  0.08238839  0.59817630  0.91467262  1
  Te  Te105  1  0.08033457  0.90613591  0.25385544  1
  Te  Te106  1  0.07737303  0.92359992  0.59694565  1
  Te  Te107  1  0.04883845  0.90803518  0.92889990  1
  Te  Te108  1  0.43969926  0.29295168  0.23925591  1
  Te  Te109  1  0.41479240  0.27536723  0.59353153  1
  Te  Te110  1  0.44608450  0.23633339  0.93147222  1
  Te  Te111  1  0.43412792  0.53904388  0.24682735  1
  Te  Te112  1  0.46196183  0.61323996  0.51549283  1
  Te  Te113  1  0.44028682  0.58830671  0.92303019  1
  Te  Te114  1  0.43464549  0.91991733  0.22989977  1
  Te  Te115  1  0.42726855  0.89469874  0.59086269  1
  Te  Te116  1  0.40667108  0.91583719  0.91743622  1
  Te  Te117  1  0.73386739  0.25284215  0.27063604  1
  Te  Te118  1  0.75569433  0.25491590  0.57381556  1
  Te  Te119  1  0.72987438  0.27602793  0.94803414  1
  Te  Te120  1  0.70742534  0.58198764  0.24188797  1
  Te  Te121  1  0.74936496  0.56297671  0.59457426  1
  Te  Te122  1  0.74822006  0.59366895  0.92326099  1
  Te  Te123  1  0.76426784  0.93186913  0.23463090  1
  Te  Te124  1  0.74704351  0.92864882  0.58630887  1
  Te  Te125  1  0.73811418  0.87799536  0.95699591  1
  Te  Te126  1  0.26067268  0.26053691  0.08468251  1
  Te  Te127  1  0.24916676  0.23979643  0.41682919  1
  Te  Te128  1  0.26435889  0.28222103  0.73898790  1
  Te  Te129  1  0.27744030  0.55467064  0.09931738  1
  Te  Te130  1  0.25605896  0.56456609  0.42486534  1
  Te  Te131  1  0.23756053  0.60168339  0.75751905  1
  Te  Te132  1  0.26200750  0.90547307  0.10112559  1
  Te  Te133  1  0.27009768  0.88715252  0.43758316  1
  Te  Te134  1  0.24675359  0.91401319  0.75883849  1
  Te  Te135  1  0.57099968  0.28208580  0.08127392  1
  Te  Te136  1  0.59031247  0.24306106  0.42169353  1
  Te  Te137  1  0.58876885  0.24865957  0.76116560  1
  Te  Te138  1  0.59486965  0.60179749  0.06952533  1
  Te  Te139  1  0.55156135  0.59176646  0.40014720  1
  Te  Te140  1  0.55894852  0.58107927  0.74478588  1
  Te  Te141  1  0.57474442  0.92320366  0.07460494  1
  Te  Te142  1  0.59239218  0.90382977  0.41194987  1
  Te  Te143  1  0.60340526  0.90615488  0.78476744  1
  Te  Te144  1  0.91744117  0.26389724  0.08090714  1
  Te  Te145  1  0.91368452  0.25720991  0.40912809  1
  Te  Te146  1  0.92512591  0.26972955  0.72934878  1
  Te  Te147  1  0.91852812  0.59824871  0.07180957  1
  Te  Te148  1  0.91203145  0.55363094  0.43857990  1
  Te  Te149  1  0.89456666  0.58380904  0.75386882  1
  Te  Te150  1  0.86457923  0.90771759  0.03887512  1
  Te  Te151  1  0.90200096  0.92367653  0.42454068  1
  Te  Te152  1  0.91666031  0.91382738  0.75951536  1
  Te  Te153  1  0.24468323  0.08045480  0.25722594  1
  Te  Te154  1  0.24301780  0.08906740  0.58421857  1
  Te  Te155  1  0.24516766  0.08793166  0.90201588  1
  Te  Te156  1  0.24113311  0.38577285  0.23028113  1
  Te  Te157  1  0.28398375  0.44242985  0.57480414  1
  Te  Te158  1  0.27620986  0.41533821  0.93489138  1
  Te  Te159  1  0.27530231  0.74318985  0.24205300  1
  Te  Te160  1  0.26869390  0.73507575  0.60585991  1
  Te  Te161  1  0.24349551  0.74197293  0.91319059  1
  Te  Te162  1  0.56917507  0.08337551  0.23802751  1
  Te  Te163  1  0.60316366  0.10399750  0.56027723  1
  Te  Te164  1  0.59689545  0.06833413  0.96031355  1
  Te  Te165  1  0.60822060  0.38310340  0.18679265  1
  Te  Te166  1  0.56560218  0.43272565  0.59495242  1
  Te  Te167  1  0.59949807  0.42012778  0.91923606  1
  Te  Te168  1  0.58679516  0.74509109  0.24827592  1
  Te  Te169  1  0.57488322  0.73238724  0.57137568  1
  Te  Te170  1  0.59894404  0.76205571  0.87208673  1
  Te  Te171  1  0.92895138  0.09151008  0.20952195  1
  Te  Te172  1  0.91666540  0.06700569  0.58911121  1
  Te  Te173  1  0.90135909  0.08277850  0.90940988  1
  Te  Te174  1  0.90311594  0.42561395  0.25398417  1
  Te  Te175  1  0.93774856  0.45443974  0.57528920  1
  Te  Te176  1  0.92518918  0.40297756  0.92893891  1
  Te  Te177  1  0.91622792  0.76065471  0.24155425  1
  Te  Te178  1  0.92236603  0.74919662  0.58110570  1
  Te  Te179  1  0.92999338  0.80126175  0.92615883  1
