# generated using pymatgen
data_In2Te3
_symmetry_space_group_name_H-M   'P 1'
_cell_length_a   18.79991686
_cell_length_b   18.78537500
_cell_length_c   18.79423240
_cell_angle_alpha   90.08054830
_cell_angle_beta   89.98491636
_cell_angle_gamma   89.95936015
_symmetry_Int_Tables_number   1
_chemical_formula_structural   In2Te3
_chemical_formula_sum   'In72 Te108'
_cell_volume   6637.42821074
_cell_formula_units_Z   36
loop_
 _symmetry_equiv_pos_site_id
 _symmetry_equiv_pos_as_xyz
  1  'x, y, z'
loop_
 _atom_site_type_symbol
 _atom_site_label
 _atom_site_symmetry_multiplicity
 _atom_site_fract_x
 _atom_site_fract_y
 _atom_site_fract_z
 _atom_site_occupancy
  In  In0  1  0.31751998  0.51528292  0.49768980  1
  In  In1  1  0.16537321  0.49156931  0.67268967  1
  In  In2  1  0.48279130  0.82436403  0.03304131  1
  In  In3  1  -0.00484610  0.00799540  0.69010226  1
  In  In4  1  0.84655394  0.63791269  0.16484877  1
  In  In5  1  0.64138325  0.83757430  0.17249609  1
  In  In6  1  0.01079394  0.50903322  0.49222700  1
  In  In7  1  0.33131705  0.18579382  0.49987551  1
  In  In8  1  0.32340158  0.82474835  0.49253866  1
  In  In9  1  0.87083051  0.66514471  0.84630439  1
  In  In10  1  0.85377071  0.15493466  0.69789902  1
  In  In11  1  0.65814718  0.16534100  0.49452819  1
  In  In12  1  0.64664504  0.49779217  0.49443271  1
  In  In13  1  0.48750022  -0.01511154  0.17739575  1
  In  In14  1  0.16945369  0.83674484  0.67540821  1
  In  In15  1  0.86306855  0.82804044  -0.00254097  1
  In  In16  1  0.46207570  0.66346491  0.82986202  1
  In  In17  1  0.68093078  0.32638619  -0.00749724  1
  In  In18  1  0.48488352  0.51559764  0.32964977  1
  In  In19  1  0.67374174  0.83994796  0.49760198  1
  In  In20  1  0.00610089  0.67024630  0.35133540  1
  In  In21  1  0.29282584  0.31702703  0.03143765  1
  In  In22  1  -0.01454030  0.49056433  0.15236156  1
  In  In23  1  0.67020432  0.50473942  0.84217314  1
  In  In24  1  0.82370355  -0.00378595  0.50732265  1
  In  In25  1  0.03009518  0.17826014  0.83372201  1
  In  In26  1  0.66609967  0.32813639  0.66347403  1
  In  In27  1  0.32235125  -0.01601553  0.67922069  1
  In  In28  1  0.16699411  0.50056366  0.33484900  1
  In  In29  1  0.48575356  0.33934040  0.16236372  1
  In  In30  1  0.66267258  0.30155913  0.34696983  1
  In  In31  1  0.86257910  0.49899164  -0.00107274  1
  In  In32  1  0.30369728  0.82383986  0.85360296  1
  In  In33  1  0.16647213  -0.00812626  0.15337659  1
  In  In34  1  0.49584879  0.81548234  0.68346981  1
  In  In35  1  0.69229520  0.17181426  0.82733586  1
  In  In36  1  0.46887774  0.35005355  0.80569181  1
  In  In37  1  0.65974572  0.67657370  0.65856347  1
  In  In38  1  0.18609213  0.68455554  0.18083226  1
  In  In39  1  0.85795578  -0.00892523  0.84289367  1
  In  In40  1  0.84126555  0.35146473  0.50004808  1
  In  In41  1  0.02371159  0.16500068  0.14557122  1
  In  In42  1  0.49774418  0.01663678  0.48822144  1
  In  In43  1  0.01730487  0.33597832  0.30215931  1
  In  In44  1  0.02069078  0.31836313  0.01105921  1
  In  In45  1  0.83901524  0.16948374  0.34155682  1
  In  In46  1  0.65417093  0.68258345  0.02406707  1
  In  In47  1  0.01306455  0.84201711  0.15089557  1
  In  In48  1  0.47964226  0.16382420  0.64014305  1
  In  In49  1  0.48807768  0.15801821  -0.01393104  1
  In  In50  1  0.82555264  0.83183268  0.34084926  1
  In  In51  1  0.28609296  0.18457280  0.83736254  1
  In  In52  1  0.17909436  0.00560659  0.49263317  1
  In  In53  1  0.66915804  0.51283818  0.16993257  1
  In  In54  1  0.46048205  0.50133626  0.66356712  1
  In  In55  1  0.48345386  0.16999356  0.33644114  1
  In  In56  1  0.04570441  0.19057591  0.52889752  1
  In  In57  1  0.31379187  0.34325548  0.33629365  1
  In  In58  1  0.50820126  0.00877363  0.82443739  1
  In  In59  1  0.67956593  0.15187396  0.17443129  1
  In  In60  1  0.68244226  0.82547319  0.83566002  1
  In  In61  1  0.46238982  0.50975632  -0.02778155  1
  In  In62  1  0.02779182  0.00102043  0.32050038  1
  In  In63  1  0.84615910  0.51238300  0.66955485  1
  In  In64  1  -0.00141915  0.67143223  0.66136827  1
  In  In65  1  0.83181518  -0.02132540  0.15683436  1
  In  In66  1  0.45768644  0.67589418  0.17579342  1
  In  In67  1  0.86835725  0.33765108  0.85360195  1
  In  In68  1  0.01524043  0.80703953  0.49583528  1
  In  In69  1  0.16218829  0.52485415  -0.00015934  1
  In  In70  1  0.47591585  0.82659269  0.33538093  1
  In  In71  1  0.32484001  -0.00006321  -0.00816181  1
  Te  Te72  1  0.09118081  0.07188380  0.04925762  1
  Te  Te73  1  0.09667434  0.10491501  0.40885693  1
  Te  Te74  1  0.10568007  0.09023538  0.74009725  1
  Te  Te75  1  0.10400979  0.41532015  0.09729297  1
  Te  Te76  1  0.09139897  0.40041789  0.42030897  1
  Te  Te77  1  0.11302513  0.37697265  0.75503293  1
  Te  Te78  1  0.11451131  0.76596957  0.06585300  1
  Te  Te79  1  0.12157971  0.73472763  0.42062920  1
  Te  Te80  1  0.10237475  0.72701933  0.75546427  1
  Te  Te81  1  0.40736977  0.08369349  0.09104697  1
  Te  Te82  1  0.38704033  0.07175394  0.40113948  1
  Te  Te83  1  0.39972088  0.09833197  0.76306221  1
  Te  Te84  1  0.39146610  0.42490253  0.07952245  1
  Te  Te85  1  0.41451385  0.41790769  0.42231691  1
  Te  Te86  1  0.35889954  0.44402542  0.76089883  1
  Te  Te87  1  0.38205056  0.71869927  0.05369314  1
  Te  Te88  1  0.40542418  0.72558555  0.41679376  1
  Te  Te89  1  0.37196132  0.74683050  0.73767312  1
  Te  Te90  1  0.76087495  0.07966187  0.07597142  1
  Te  Te91  1  0.73919580  0.07287087  0.40472695  1
  Te  Te92  1  0.75083887  0.05761617  0.74485003  1
  Te  Te93  1  0.75920454  0.42234364  0.08210467  1
  Te  Te94  1  0.74447254  0.41822862  0.40507303  1
  Te  Te95  1  0.76242187  0.40359992  0.75552323  1
  Te  Te96  1  0.76087784  0.76253486  0.09972009  1
  Te  Te97  1  0.75065532  0.73671439  0.42320684  1
  Te  Te98  1  0.76931761  0.73197639  0.75225059  1
  Te  Te99  1  0.11825691  0.24357330  0.23432227  1
  Te  Te100  1  0.13193497  0.28208297  0.61142352  1
  Te  Te101  1  0.12518348  0.26393174  0.91571704  1
  Te  Te102  1  0.07470088  0.59006777  0.23600054  1
  Te  Te103  1  0.10170545  0.59497861  0.57718298  1
  Te  Te104  1  0.11089256  0.60391534  0.88246681  1
  Te  Te105  1  0.10858778  0.88781459  0.26200041  1
  Te  Te106  1  0.07949192  0.92563713  0.57877385  1
  Te  Te107  1  0.09894659  0.85315277  0.94009032  1
  Te  Te108  1  0.39596687  0.24575668  0.23989861  1
  Te  Te109  1  0.39237425  0.27532268  0.60239846  1
  Te  Te110  1  0.39807669  0.26266605  0.92051655  1
  Te  Te111  1  0.37669022  0.57709169  0.25014557  1
  Te  Te112  1  0.41053105  0.60489925  0.57330114  1
  Te  Te113  1  0.35463897  0.58150399  0.89637465  1
  Te  Te114  1  0.38421114  0.88491233  0.22711656  1
  Te  Te115  1  0.42479612  0.92011556  0.58570585  1
  Te  Te116  1  0.42879725  0.90715044  0.90659200  1
  Te  Te117  1  0.76576904  0.25940157  0.24174428  1
  Te  Te118  1  0.76168811  0.24046936  0.58239091  1
  Te  Te119  1  0.78610502  0.23435981  0.93069814  1
  Te  Te120  1  0.74390648  0.59923480  0.26223036  1
  Te  Te121  1  0.74882048  0.58087085  0.57766729  1
  Te  Te122  1  0.75526544  0.59725938  0.93484872  1
  Te  Te123  1  0.73338372  0.92317801  0.25933358  1
  Te  Te124  1  0.76206378  0.90143029  0.59998461  1
  Te  Te125  1  0.75473679  0.91589250  0.93255307  1
  Te  Te126  1  0.22823768  0.20946599  0.11246451  1
  Te  Te127  1  0.22947595  0.24862769  0.41376688  1
  Te  Te128  1  0.23374721  0.27890490  0.73239527  1
  Te  Te129  1  0.26339528  0.59520631  0.08704123  1
  Te  Te130  1  0.24314607  0.60738214  0.40428601  1
  Te  Te131  1  0.26039674  0.56738634  0.76146937  1
  Te  Te132  1  0.25938087  0.90022329  0.07936741  1
  Te  Te133  1  0.25938544  0.92261775  0.40050740  1
  Te  Te134  1  0.22310855  0.93422628  0.78338509  1
  Te  Te135  1  0.58095078  0.24452683  0.08504704  1
  Te  Te136  1  0.55012342  0.25819131  0.44138615  1
  Te  Te137  1  0.57635962  0.24242674  0.75517832  1
  Te  Te138  1  0.56062866  0.57427070  0.07859478  1
  Te  Te139  1  0.57450561  0.59692840  0.41389425  1
  Te  Te140  1  0.57347161  0.58270536  0.74764174  1
  Te  Te141  1  0.58364411  0.93296203  0.06873323  1
  Te  Te142  1  0.57743302  0.91796220  0.40449406  1
  Te  Te143  1  0.59625763  0.91315531  0.74327576  1
  Te  Te144  1  0.91909084  0.25884947  0.09904209  1
  Te  Te145  1  0.93465029  0.25650226  0.42255094  1
  Te  Te146  1  0.94286170  0.26817924  0.73917383  1
  Te  Te147  1  0.94908650  0.61137063  0.05645891  1
  Te  Te148  1  0.90855537  0.57895786  0.41260871  1
  Te  Te149  1  0.94928433  0.56173377  0.76771497  1
  Te  Te150  1  0.94436167  0.94289626  0.05964904  1
  Te  Te151  1  0.92991672  0.92335516  0.41204329  1
  Te  Te152  1  0.92895310  0.89405970  0.75486838  1
  Te  Te153  1  0.22984286  0.10448692  0.22742877  1
  Te  Te154  1  0.25254346  0.08991797  0.59617206  1
  Te  Te155  1  0.21974277  0.08851964  0.93164190  1
  Te  Te156  1  0.24370245  0.42395947  0.23395927  1
  Te  Te157  1  0.24031833  0.40866326  0.56972774  1
  Te  Te158  1  0.21820666  0.39999582  0.93082428  1
  Te  Te159  1  0.26618505  0.78427365  0.25411261  1
  Te  Te160  1  0.24476485  0.74406333  0.58840489  1
  Te  Te161  1  0.19847589  0.73089852  0.91130601  1
  Te  Te162  1  0.57781877  0.07723253  0.26076444  1
  Te  Te163  1  0.59330960  0.07179487  0.59583608  1
  Te  Te164  1  0.60254211  0.08407042  0.91839995  1
  Te  Te165  1  0.58588039  0.40638462  0.25623425  1
  Te  Te166  1  0.56470467  0.41064454  0.58964359  1
  Te  Te167  1  0.57090318  0.40608971  0.92117866  1
  Te  Te168  1  0.57494113  0.73154864  0.25543797  1
  Te  Te169  1  0.56518015  0.74938779  0.56567446  1
  Te  Te170  1  0.57223566  0.74393720  0.90949137  1
  Te  Te171  1  0.92033628  0.08103115  0.24423091  1
  Te  Te172  1  0.92617970  0.09405973  0.56940966  1
  Te  Te173  1  0.93919545  0.09198470  0.91407904  1
  Te  Te174  1  0.90996094  0.42939098  0.26301031  1
  Te  Te175  1  0.94007939  0.41744557  0.59504904  1
  Te  Te176  1  0.96989800  0.43044888  0.91629203  1
  Te  Te177  1  0.92236358  0.75835941  0.24301895  1
  Te  Te178  1  0.90650529  0.74600682  0.57320508  1
  Te  Te179  1  0.96249254  0.77539934  0.89637704  1
