# generated using pymatgen
data_In2Te3
_symmetry_space_group_name_H-M   'P 1'
_cell_length_a   18.94439513
_cell_length_b   18.93490986
_cell_length_c   18.94124031
_cell_angle_alpha   89.89949088
_cell_angle_beta   89.80939642
_cell_angle_gamma   90.12157071
_symmetry_Int_Tables_number   1
_chemical_formula_structural   In2Te3
_chemical_formula_sum   'In72 Te108'
_cell_volume   6794.35672290
_cell_formula_units_Z   36
loop_
 _symmetry_equiv_pos_site_id
 _symmetry_equiv_pos_as_xyz
  1  'x, y, z'
loop_
 _atom_site_type_symbol
 _atom_site_label
 _atom_site_symmetry_multiplicity
 _atom_site_fract_x
 _atom_site_fract_y
 _atom_site_fract_z
 _atom_site_occupancy
  In  In0  1  0.32890977  0.33638636  0.01944426  1
  In  In1  1  0.68837386  0.65630857  0.68485725  1
  In  In2  1  0.48592598  0.65802013  0.48720825  1
  In  In3  1  -0.01329613  0.67425673  0.02273564  1
  In  In4  1  0.14714406  0.29549481  0.88557637  1
  In  In5  1  0.50519619  0.47715405  0.32456884  1
  In  In6  1  0.16264557  -0.01776871  0.50894999  1
  In  In7  1  0.01761013  0.85588873  0.82679437  1
  In  In8  1  0.66680244  0.46798432  0.14232013  1
  In  In9  1  0.15225175  0.50801232  0.65846541  1
  In  In10  1  -0.01781074  0.49095610  0.82832338  1
  In  In11  1  0.67036763  0.66653598  0.30252354  1
  In  In12  1  0.32501246  0.16146395  0.15617667  1
  In  In13  1  0.50572835  0.66384305  0.83668996  1
  In  In14  1  0.84000683  0.50579175  0.66332629  1
  In  In15  1  0.64267088  0.83084988  0.16004197  1
  In  In16  1  0.67796845  0.83886881  0.81974179  1
  In  In17  1  0.31704359  0.32795342  0.69799743  1
  In  In18  1  0.33122662  0.50924042  0.50389127  1
  In  In19  1  0.82347863  0.16534446  0.69240678  1
  In  In20  1  0.84084584  0.32449250  0.84373494  1
  In  In21  1  0.02808307  0.82939276  0.15829187  1
  In  In22  1  -0.00996825  0.48548776  0.48791064  1
  In  In23  1  0.30383030  0.87094956  0.13588122  1
  In  In24  1  0.31418237  0.66735479  0.64553812  1
  In  In25  1  0.66643589  0.01579188  0.34459610  1
  In  In26  1  0.90436991  0.65715796  0.53847731  1
  In  In27  1  0.69444072  0.46796401  0.46976244  1
  In  In28  1  0.67287379  0.84628685  0.49869765  1
  In  In29  1  0.83237234  0.31873763  0.16415606  1
  In  In30  1  0.48909835  0.65459085  0.17385215  1
  In  In31  1  0.01485907  0.03897562  0.01167781  1
  In  In32  1  0.84255284  0.00021547  0.50011142  1
  In  In33  1  0.33005981  0.17630298  0.48843865  1
  In  In34  1  0.49619095  0.32121541  0.84061415  1
  In  In35  1  0.01525407  -0.00769239  0.68939783  1
  In  In36  1  -0.00017960  0.00896817  0.31674025  1
  In  In37  1  0.16887172  0.66968659  0.83850854  1
  In  In38  1  0.16106941  0.83722554  0.31995608  1
  In  In39  1  0.00274195  0.50515639  0.14978396  1
  In  In40  1  0.82345029  0.84210578  -0.00383325  1
  In  In41  1  0.16584917  0.49032707  0.00647419  1
  In  In42  1  0.02293334  0.34966408  0.33083020  1
  In  In43  1  0.51557020  0.83178414  -0.02190115  1
  In  In44  1  0.83232322  0.83895896  0.31645895  1
  In  In45  1  0.14836782  0.17619272  0.67998561  1
  In  In46  1  0.33729680  0.84778037  0.83450736  1
  In  In47  1  0.48828031  -0.00130795  0.52059186  1
  In  In48  1  0.50600788  0.49879938  0.00539387  1
  In  In49  1  0.85148443  0.03893658  0.15827166  1
  In  In50  1  0.52976642  0.03675658  0.85779825  1
  In  In51  1  0.30853462  0.66969452  0.34572143  1
  In  In52  1  -0.01781300  0.19221937  0.49357888  1
  In  In53  1  0.67376647  -0.00836214  0.66575636  1
  In  In54  1  0.34099957  -0.00005928  0.68157983  1
  In  In55  1  0.01809942  0.64163703  0.33639835  1
  In  In56  1  0.16995324  0.15887741  0.31976285  1
  In  In57  1  0.82560165  0.15604438  -0.01313875  1
  In  In58  1  0.69332370  0.51003584  0.86144719  1
  In  In59  1  0.48750207  0.01204515  0.13970073  1
  In  In60  1  0.50621224  0.13979746  0.66851133  1
  In  In61  1  0.50529422  0.17764288  0.33242719  1
  In  In62  1  0.50900508  0.32744285  0.49289269  1
  In  In63  1  0.51517921  0.29234018  0.13629593  1
  In  In64  1  0.28334822  0.34690872  0.29341810  1
  In  In65  1  0.17948627  0.01346671  0.90261626  1
  In  In66  1  0.49205643  0.83932280  0.63931463  1
  In  In67  1  0.17416784  0.81925307  0.65846135  1
  In  In68  1  0.83659229  0.64408153  0.16962799  1
  In  In69  1  0.32031897  0.65160480  0.00932079  1
  In  In70  1  0.66699879  0.32737858  0.64476080  1
  In  In71  1  -0.00727582  0.34287520  0.67283292  1
  Te  Te72  1  0.10472014  0.13188757  0.08783769  1
  Te  Te73  1  0.07873860  0.08482600  0.43282202  1
  Te  Te74  1  0.09648051  0.07897491  0.78341215  1
  Te  Te75  1  0.05613721  0.40333047  0.05644890  1
  Te  Te76  1  0.10861095  0.44039119  0.41306105  1
  Te  Te77  1  0.09727354  0.40435102  0.76545660  1
  Te  Te78  1  0.10685816  0.73158849  0.08368699  1
  Te  Te79  1  0.07541846  0.75521883  0.40804238  1
  Te  Te80  1  0.07582233  0.74096000  0.74372074  1
  Te  Te81  1  0.42872685  0.11999188  0.05351402  1
  Te  Te82  1  0.41719848  0.08045276  0.41265669  1
  Te  Te83  1  0.40990971  0.09318852  0.77755588  1
  Te  Te84  1  0.42908718  0.41446482  0.10430922  1
  Te  Te85  1  0.40399967  0.40626977  0.41566161  1
  Te  Te86  1  0.42550393  0.41046099  0.74760044  1
  Te  Te87  1  0.42656711  0.74644838  0.06827348  1
  Te  Te88  1  0.40526684  0.75558662  0.41728897  1
  Te  Te89  1  0.41457375  0.75083248  0.74676621  1
  Te  Te90  1  0.73727861  0.11302320  0.10222885  1
  Te  Te91  1  0.78344658  0.08703922  0.39738715  1
  Te  Te92  1  0.73058998  0.07974797  0.76756019  1
  Te  Te93  1  0.75033573  0.38317365  0.05720629  1
  Te  Te94  1  0.75121654  0.36371282  0.38416863  1
  Te  Te95  1  0.75383207  0.41250732  0.74725403  1
  Te  Te96  1  0.75196914  0.74832800  0.09541939  1
  Te  Te97  1  0.74655176  0.75038284  0.40557374  1
  Te  Te98  1  0.77455524  0.75073478  0.75415928  1
  Te  Te99  1  0.07344531  0.23993563  0.24371985  1
  Te  Te100  1  0.08537762  0.26831839  0.57691282  1
  Te  Te101  1  0.04847235  0.20745925  0.96335431  1
  Te  Te102  1  0.10431932  0.57637774  0.23320188  1
  Te  Te103  1  0.04280492  0.58343603  0.58926948  1
  Te  Te104  1  0.07337950  0.58487924  0.92132677  1
  Te  Te105  1  0.09884751  0.94524088  0.22255846  1
  Te  Te106  1  0.05636170  0.89095797  0.57804890  1
  Te  Te107  1  0.08047645  0.91137563  0.95336307  1
  Te  Te108  1  0.40532146  0.26191822  0.25288724  1
  Te  Te109  1  0.41909869  0.24266551  0.59281686  1
  Te  Te110  1  0.41445757  0.24345029  0.93919667  1
  Te  Te111  1  0.40319304  0.57291133  0.26750362  1
  Te  Te112  1  0.42752011  0.57703580  0.60114499  1
  Te  Te113  1  0.41048185  0.57356788  0.91391210  1
  Te  Te114  1  0.41173385  0.91673625  0.22273644  1
  Te  Te115  1  0.37611818  0.90422343  0.56878565  1
  Te  Te116  1  0.42525386  0.93746828  0.91764883  1
  Te  Te117  1  0.72238108  0.27878487  0.25747988  1
  Te  Te118  1  0.76469470  0.23956997  0.58132560  1
  Te  Te119  1  0.73661588  0.23267231  0.89466480  1
  Te  Te120  1  0.74719909  0.54966280  0.24785001  1
  Te  Te121  1  0.75209950  0.58305111  0.56454509  1
  Te  Te122  1  0.79913119  0.58877311  0.91933591  1
  Te  Te123  1  0.73663140  0.92465936  0.23863431  1
  Te  Te124  1  0.77397743  0.90104343  0.59665787  1
  Te  Te125  1  0.72631253  0.92861112  0.92620891  1
  Te  Te126  1  0.23256004  0.26945035  0.11042866  1
  Te  Te127  1  0.23404596  0.26430397  0.41220306  1
  Te  Te128  1  0.24430397  0.22794430  0.78643969  1
  Te  Te129  1  0.26509461  0.54852822  0.10244310  1
  Te  Te130  1  0.22541058  0.57072286  0.42160284  1
  Te  Te131  1  0.25213499  0.57785214  0.75197862  1
  Te  Te132  1  0.25310597  0.96856125  0.03441584  1
  Te  Te133  1  0.24446154  0.93056853  0.40015919  1
  Te  Te134  1  0.23129289  0.92401473  0.75719107  1
  Te  Te135  1  0.63130071  0.24039527  0.05916111  1
  Te  Te136  1  0.60255561  0.23884794  0.42439599  1
  Te  Te137  1  0.58699937  0.24303570  0.74318640  1
  Te  Te138  1  0.59534531  0.59204961  0.08486575  1
  Te  Te139  1  0.58791079  0.57751035  0.40532832  1
  Te  Te140  1  0.59149759  0.56633928  0.75871475  1
  Te  Te141  1  0.59384065  0.93378966  0.06035481  1
  Te  Te142  1  0.57048353  0.91949254  0.41701349  1
  Te  Te143  1  0.55803415  0.92204488  0.74759046  1
  Te  Te144  1  0.91887360  0.24368164  0.06501768  1
  Te  Te145  1  0.90854474  0.28305426  0.40429798  1
  Te  Te146  1  0.93741760  0.23593981  0.76469332  1
  Te  Te147  1  0.87979422  0.56193138  0.04968553  1
  Te  Te148  1  0.89924609  0.58020558  0.40773655  1
  Te  Te149  1  0.90852773  0.59606112  0.75742874  1
  Te  Te150  1  0.91250595  0.91434669  0.09925459  1
  Te  Te151  1  0.92688709  0.91178700  0.40819377  1
  Te  Te152  1  0.90760015  0.94363901  0.77973160  1
  Te  Te153  1  0.26855106  0.06996357  0.25726923  1
  Te  Te154  1  0.24869953  0.09191707  0.59345741  1
  Te  Te155  1  0.22826641  0.12172115  0.99356580  1
  Te  Te156  1  0.20908296  0.45193563  0.22522669  1
  Te  Te157  1  0.24882957  0.41106732  0.59160348  1
  Te  Te158  1  0.24975626  0.40790470  0.91000421  1
  Te  Te159  1  0.25621016  0.75924980  0.22897172  1
  Te  Te160  1  0.22433363  0.73265196  0.55170627  1
  Te  Te161  1  0.25176932  0.76161865  0.92578503  1
  Te  Te162  1  0.58016328  0.08458504  0.23980048  1
  Te  Te163  1  0.60519007  0.08345865  0.56685521  1
  Te  Te164  1  0.57739630  0.14036071  0.95273069  1
  Te  Te165  1  0.58894440  0.38033954  0.24429994  1
  Te  Te166  1  0.58573510  0.43313292  0.57063068  1
  Te  Te167  1  0.59370756  0.41091329  0.91996456  1
  Te  Te168  1  0.55690945  0.75871601  0.26275848  1
  Te  Te169  1  0.59418170  0.74229078  0.58590967  1
  Te  Te170  1  0.61307901  0.73426287  0.91484958  1
  Te  Te171  1  0.91968005  0.11888762  0.25994222  1
  Te  Te172  1  0.93118991  0.08466685  0.59737242  1
  Te  Te173  1  0.90687530  0.05232584  0.91298048  1
  Te  Te174  1  0.91962319  0.42381761  0.24342942  1
  Te  Te175  1  0.89601118  0.39922131  0.57195640  1
  Te  Te176  1  0.93840520  0.39442283  0.93146607  1
  Te  Te177  1  0.92633317  0.74165026  0.24394275  1
  Te  Te178  1  0.93580730  0.78967797  0.58375950  1
  Te  Te179  1  0.92786273  0.76539145  0.91805464  1
