# generated using pymatgen
data_In2Te3
_symmetry_space_group_name_H-M   'P 1'
_cell_length_a   18.91554754
_cell_length_b   18.91673061
_cell_length_c   18.93012573
_cell_angle_alpha   90.00420202
_cell_angle_beta   90.04800821
_cell_angle_gamma   89.91169331
_symmetry_Int_Tables_number   1
_chemical_formula_structural   In2Te3
_chemical_formula_sum   'In72 Te108'
_cell_volume   6773.57315033
_cell_formula_units_Z   36
loop_
 _symmetry_equiv_pos_site_id
 _symmetry_equiv_pos_as_xyz
  1  'x, y, z'
loop_
 _atom_site_type_symbol
 _atom_site_label
 _atom_site_symmetry_multiplicity
 _atom_site_fract_x
 _atom_site_fract_y
 _atom_site_fract_z
 _atom_site_occupancy
  In  In0  1  0.88031285  0.21132125  0.32172927  1
  In  In1  1  0.33276888  0.67795928  -0.01885795  1
  In  In2  1  0.17753468  0.01587048  0.47842263  1
  In  In3  1  0.66718497  0.32824608  0.64170348  1
  In  In4  1  0.64121071  0.48417935  0.21267327  1
  In  In5  1  0.66448503  0.51949876  0.84247644  1
  In  In6  1  0.84809020  0.46886452  0.32334808  1
  In  In7  1  0.81767597  0.80545882  0.66021306  1
  In  In8  1  0.17654089  0.48656228  0.67547696  1
  In  In9  1  0.85486281  0.48667961  0.66085552  1
  In  In10  1  0.34762416  0.33707636  0.67414038  1
  In  In11  1  0.01494397  0.02237032  0.29709719  1
  In  In12  1  0.47097416  0.33354798  0.85037471  1
  In  In13  1  0.00150013  0.64342389  0.66638006  1
  In  In14  1  0.47821212  0.86252550  0.00784225  1
  In  In15  1  0.69240163  0.66816617  -0.02662301  1
  In  In16  1  0.02105729  0.17582168  0.84469795  1
  In  In17  1  0.81976823  0.64972174  0.47515166  1
  In  In18  1  0.64208197  0.86114279  0.52056566  1
  In  In19  1  0.67582910  0.48864448  0.49042676  1
  In  In20  1  0.17403117  0.64465353  0.50345641  1
  In  In21  1  0.47921585  0.18671842  0.31955202  1
  In  In22  1  0.51266481  0.01330664  0.84657676  1
  In  In23  1  0.17716435  0.01986561  0.14737677  1
  In  In24  1  0.66449960  0.32742838  0.02778428  1
  In  In25  1  0.67402217  0.01711023  -0.01254285  1
  In  In26  1  0.00685609  0.33344092  0.65197672  1
  In  In27  1  0.31229294  0.33705050  0.31579994  1
  In  In28  1  0.32113192  0.82874790  0.18158073  1
  In  In29  1  0.51084627  0.32605882  0.49215431  1
  In  In30  1  0.34437850  0.50403807  0.49311405  1
  In  In31  1  0.47473997  0.68616204  0.48404845  1
  In  In32  1  0.19097201  0.83878196  0.64120786  1
  In  In33  1  0.16711536  0.65015444  0.82375368  1
  In  In34  1  0.65191213  0.67267684  0.33448506  1
  In  In35  1  0.64324988  0.81509542  0.16197535  1
  In  In36  1  0.84786620  0.00259851  0.49135348  1
  In  In37  1  0.49872607  0.81827493  0.67652204  1
  In  In38  1  0.85696824  0.00788510  0.83558281  1
  In  In39  1  0.00833408  0.83990269  0.48539578  1
  In  In40  1  0.67466044  0.17551178  0.84937177  1
  In  In41  1  0.81429159  0.17528364  0.66235321  1
  In  In42  1  0.34132826  -0.01050894  0.32958235  1
  In  In43  1  0.86896644  0.44713548  0.03281338  1
  In  In44  1  0.83618704  0.64902170  0.14709673  1
  In  In45  1  0.84034800  0.35028685  0.84571102  1
  In  In46  1  0.16247784  0.33562890  0.84911077  1
  In  In47  1  0.50122726  0.01664403  0.50678684  1
  In  In48  1  0.32834311  0.49668536  0.17863650  1
  In  In49  1  0.82885345  0.81050036  0.30877661  1
  In  In50  1  0.32166311  0.18280998  0.85704688  1
  In  In51  1  0.17256491  0.84516745  0.32649981  1
  In  In52  1  -0.00756035  0.66092409  -0.00336498  1
  In  In53  1  0.16238642  0.47510911  0.01621410  1
  In  In54  1  0.14737940  0.84990220  -0.01433828  1
  In  In55  1  0.49724284  0.66929579  0.83882308  1
  In  In56  1  -0.01032007  0.02385835  0.68041267  1
  In  In57  1  0.83178059  -0.01399087  0.16280100  1
  In  In58  1  0.51785740  0.16142297  0.65653602  1
  In  In59  1  0.00295824  0.01590762  0.01488917  1
  In  In60  1  0.13229605  0.31957596  0.48758127  1
  In  In61  1  -0.00317591  0.62426116  0.32596911  1
  In  In62  1  0.34779816  0.04663944  0.00374053  1
  In  In63  1  0.15870609  0.66740427  0.18272227  1
  In  In64  1  0.66713460  0.01479409  0.36769917  1
  In  In65  1  0.67418308  0.17801626  0.18797404  1
  In  In66  1  0.00488042  0.81515481  0.84643802  1
  In  In67  1  0.13796432  0.19874341  0.31206697  1
  In  In68  1  0.66525811  0.84106964  0.81742224  1
  In  In69  1  0.49392311  0.63056041  0.17859174  1
  In  In70  1  0.50338913  0.51104219  0.02467358  1
  In  In71  1  0.32919318  0.00542309  0.66615490  1
  Te  Te72  1  0.08425168  0.11738754  0.08607968  1
  Te  Te73  1  0.06785420  0.10024487  0.41269496  1
  Te  Te74  1  0.09720414  0.09664677  0.74637590  1
  Te  Te75  1  0.07895618  0.36862457  0.07904279  1
  Te  Te76  1  0.05488143  0.38760188  0.38155296  1
  Te  Te77  1  0.06984353  0.41969199  0.75918221  1
  Te  Te78  1  0.08220490  0.75140911  0.07971287  1
  Te  Te79  1  0.08465721  0.73866162  0.40275467  1
  Te  Te80  1  0.08525110  0.75465745  0.72957429  1
  Te  Te81  1  0.41013060  0.09136519  0.13115932  1
  Te  Te82  1  0.40623568  0.09384810  0.41843760  1
  Te  Te83  1  0.42186713  0.10530440  0.76276373  1
  Te  Te84  1  0.41821236  0.41547672  0.09419395  1
  Te  Te85  1  0.42885734  0.40781493  0.39015623  1
  Te  Te86  1  0.43043988  0.43051279  0.74952252  1
  Te  Te87  1  0.42471296  0.73997116  0.08549236  1
  Te  Te88  1  0.36664923  0.76897175  0.42959470  1
  Te  Te89  1  0.40402628  0.75973920  0.77043974  1
  Te  Te90  1  0.75679245  0.09515741  0.08710437  1
  Te  Te91  1  0.79148538  0.09785166  0.38764312  1
  Te  Te92  1  0.74572395  0.07805226  0.75730862  1
  Te  Te93  1  0.74017197  0.42254559  0.11859211  1
  Te  Te94  1  0.73690621  0.39610280  0.39075925  1
  Te  Te95  1  0.74012436  0.41306787  0.74775033  1
  Te  Te96  1  0.75791844  0.76066653  0.07791243  1
  Te  Te97  1  0.73808226  0.77299203  0.42686195  1
  Te  Te98  1  0.74265990  0.72971577  0.75999044  1
  Te  Te99  1  0.04893826  0.27354577  0.21620915  1
  Te  Te100  1  0.09803136  0.23162413  0.59856919  1
  Te  Te101  1  0.12096393  0.22644115  0.94383237  1
  Te  Te102  1  0.09989872  0.54976633  0.25049058  1
  Te  Te103  1  0.07836914  0.55017166  0.57607883  1
  Te  Te104  1  0.08449111  0.56890899  0.91915179  1
  Te  Te105  1  0.08667591  0.91279032  0.22292739  1
  Te  Te106  1  0.07913539  0.93715338  0.57601634  1
  Te  Te107  1  0.06980636  0.94226728  0.89488100  1
  Te  Te108  1  0.37542565  0.23731407  0.21997863  1
  Te  Te109  1  0.41666468  0.24205881  0.57733855  1
  Te  Te110  1  0.39514307  0.26576830  0.95671662  1
  Te  Te111  1  0.40546572  0.57378636  0.27905340  1
  Te  Te112  1  0.41107307  0.59782395  0.58405883  1
  Te  Te113  1  0.41305071  0.56732546  0.91624751  1
  Te  Te114  1  0.42410168  0.92188367  0.22855446  1
  Te  Te115  1  0.42106339  0.91540252  0.58654516  1
  Te  Te116  1  0.39997857  0.93037180  0.90100253  1
  Te  Te117  1  0.75310535  0.27392756  0.27147265  1
  Te  Te118  1  0.75086265  0.24953443  0.55151646  1
  Te  Te119  1  0.76607998  0.25565803  0.93965082  1
  Te  Te120  1  0.75987983  0.58982261  0.26703877  1
  Te  Te121  1  0.75329029  0.57664740  0.58884877  1
  Te  Te122  1  0.77605287  0.54795632  0.94026180  1
  Te  Te123  1  0.72619383  0.91244137  0.25751885  1
  Te  Te124  1  0.75874045  0.92861179  0.59029312  1
  Te  Te125  1  0.75927658  0.91802908  0.91100126  1
  Te  Te126  1  0.30112410  0.17663697  0.08061387  1
  Te  Te127  1  0.24319307  0.24465085  0.41266833  1
  Te  Te128  1  0.24486916  0.25425022  0.74756525  1
  Te  Te129  1  0.24877549  0.59729042  0.07808155  1
  Te  Te130  1  0.23599809  0.55314500  0.40718539  1
  Te  Te131  1  0.26523472  0.58470463  0.73762890  1
  Te  Te132  1  0.25816393  0.91326620  0.07142925  1
  Te  Te133  1  0.27002941  0.89308581  0.43610945  1
  Te  Te134  1  0.23892916  0.92446570  0.74850256  1
  Te  Te135  1  0.57184572  0.25326840  0.11211740  1
  Te  Te136  1  0.58752267  0.23378852  0.40726490  1
  Te  Te137  1  0.58385531  0.25941228  0.75965140  1
  Te  Te138  1  0.61523043  0.59536107  0.09186172  1
  Te  Te139  1  0.57497758  0.58084826  0.42308731  1
  Te  Te140  1  0.58454709  0.59547516  0.74688578  1
  Te  Te141  1  0.58745939  0.93517064  0.08367084  1
  Te  Te142  1  0.55786268  0.91444750  0.40774223  1
  Te  Te143  1  0.58100307  0.93621738  0.73552038  1
  Te  Te144  1  0.93023639  0.31830637  0.09799298  1
  Te  Te145  1  0.95543068  0.28769210  0.42909785  1
  Te  Te146  1  0.91101352  0.24895399  0.75351737  1
  Te  Te147  1  0.94837619  0.55975711  0.10127811  1
  Te  Te148  1  0.92275054  0.54782122  0.43328747  1
  Te  Te149  1  0.91792516  0.57289975  0.76221927  1
  Te  Te150  1  0.92175429  0.91034319  0.07656827  1
  Te  Te151  1  0.92240924  0.91467868  0.38411631  1
  Te  Te152  1  0.91446488  0.89953613  0.73531576  1
  Te  Te153  1  0.23058106  0.07852269  0.27595633  1
  Te  Te154  1  0.25722079  0.09366586  0.57265792  1
  Te  Te155  1  0.23092548  0.08531516  0.92282903  1
  Te  Te156  1  0.21837273  0.40971630  0.22703454  1
  Te  Te157  1  0.25229254  0.40376192  0.56946714  1
  Te  Te158  1  0.25737018  0.42492686  0.91700234  1
  Te  Te159  1  0.26234239  0.72799217  0.27672099  1
  Te  Te160  1  0.26963840  0.72950249  0.57944458  1
  Te  Te161  1  0.23810136  0.76289577  0.89920458  1
  Te  Te162  1  0.58246440  0.08224222  0.26383702  1
  Te  Te163  1  0.61128097  0.09627489  0.56359973  1
  Te  Te164  1  0.56799796  0.11792535  0.94206033  1
  Te  Te165  1  0.53134571  0.41343766  0.27213202  1
  Te  Te166  1  0.57033136  0.43021689  0.58571876  1
  Te  Te167  1  0.58676490  0.41679637  0.92514593  1
  Te  Te168  1  0.54727764  0.75253665  0.26196012  1
  Te  Te169  1  0.58738778  0.73774426  0.58333196  1
  Te  Te170  1  0.58114229  0.76917710  0.93116181  1
  Te  Te171  1  0.91666887  0.10328455  0.21815079  1
  Te  Te172  1  0.92032280  0.10690380  0.57400232  1
  Te  Te173  1  0.91282259  0.10977741  0.93092856  1
  Te  Te174  1  0.94605929  0.39137821  0.23980694  1
  Te  Te175  1  0.89580748  0.37999375  0.56404631  1
  Te  Te176  1  0.95720184  0.38574417  0.92908451  1
  Te  Te177  1  0.93338871  0.73229703  0.23603196  1
  Te  Te178  1  0.92208033  0.73822782  0.56005555  1
  Te  Te179  1  0.90040192  0.73684174  0.91036621  1
