# generated using pymatgen
data_In2Te3
_symmetry_space_group_name_H-M   'P 1'
_cell_length_a   18.77594087
_cell_length_b   18.77129484
_cell_length_c   18.78153648
_cell_angle_alpha   90.05693466
_cell_angle_beta   90.08445268
_cell_angle_gamma   90.00162012
_symmetry_Int_Tables_number   1
_chemical_formula_structural   In2Te3
_chemical_formula_sum   'In72 Te108'
_cell_volume   6619.51806609
_cell_formula_units_Z   36
loop_
 _symmetry_equiv_pos_site_id
 _symmetry_equiv_pos_as_xyz
  1  'x, y, z'
loop_
 _atom_site_type_symbol
 _atom_site_label
 _atom_site_symmetry_multiplicity
 _atom_site_fract_x
 _atom_site_fract_y
 _atom_site_fract_z
 _atom_site_occupancy
  In  In0  1  0.49077987  0.18548708  0.64053685  1
  In  In1  1  0.67834440  0.49009046  0.18947005  1
  In  In2  1  -0.02576128  0.80834861  0.48248100  1
  In  In3  1  -0.01247419  0.17285841  0.49212377  1
  In  In4  1  0.34300168  0.84099222  0.84122003  1
  In  In5  1  0.17828842  0.02149728  0.84848388  1
  In  In6  1  -0.00382312  0.16712769  0.17008894  1
  In  In7  1  0.84088965  0.01076531  0.13712356  1
  In  In8  1  0.65257085  0.66162031  0.61848054  1
  In  In9  1  0.30102921  0.78752502  0.14893677  1
  In  In10  1  0.33469476  0.50214014  0.49915510  1
  In  In11  1  0.15800117  0.80591740  0.02426237  1
  In  In12  1  0.18018215  0.01480881  0.53018929  1
  In  In13  1  0.83419296  0.65001608  0.50348116  1
  In  In14  1  -0.01859363  -0.00397565  0.65419438  1
  In  In15  1  0.00124542  0.35565479  0.32329404  1
  In  In16  1  0.63923069  0.63703990  0.38230745  1
  In  In17  1  0.16584057  0.82254942  0.68089293  1
  In  In18  1  0.02439970  0.20893191  0.83101544  1
  In  In19  1  0.32478856  0.65956629  0.67198266  1
  In  In20  1  0.34130397  0.36391378  0.32706172  1
  In  In21  1  0.34209220  0.33411991  -0.00470600  1
  In  In22  1  0.47625396  0.66356350  0.17016951  1
  In  In23  1  0.81250442  0.82166606  0.66857954  1
  In  In24  1  0.34555676  0.18159225  0.83235021  1
  In  In25  1  0.34115603  0.50583408  0.82832917  1
  In  In26  1  0.87250764  0.63372292  0.82542575  1
  In  In27  1  0.33076696  0.17042410  0.15544171  1
  In  In28  1  0.81947389  0.17496924  -0.00780569  1
  In  In29  1  0.50150763  -0.00050659  0.15770221  1
  In  In30  1  0.00732137  0.80095776  0.84390669  1
  In  In31  1  0.67000161  0.66435426  -0.00778080  1
  In  In32  1  0.52710981  0.20817717  0.35834060  1
  In  In33  1  0.18962319  0.17611386  0.68829113  1
  In  In34  1  0.84001837  0.64704827  0.16000233  1
  In  In35  1  0.82304874  0.33692209  0.18114583  1
  In  In36  1  0.67433244  0.34129754  0.66432584  1
  In  In37  1  0.15530931  0.21192292  0.33705333  1
  In  In38  1  0.86228310  0.47851902  0.00815463  1
  In  In39  1  0.49398549  0.64964988  0.84355528  1
  In  In40  1  0.67346549  0.18365062  0.83906115  1
  In  In41  1  0.69019684  0.82756751  0.84723255  1
  In  In42  1  0.01101605  -0.02566141  0.33657894  1
  In  In43  1  0.17065542  0.19507050  -0.03270162  1
  In  In44  1  0.35284675  -0.00433634  0.62901653  1
  In  In45  1  0.34831720  0.82488775  0.47190372  1
  In  In46  1  0.53695279  0.31423218  0.14444036  1
  In  In47  1  0.50036088  0.49597295  -0.01171667  1
  In  In48  1  0.30705827  0.51413044  0.16318656  1
  In  In49  1  0.81853646  0.81225639  0.33656680  1
  In  In50  1  0.81526272  0.18854537  0.33998365  1
  In  In51  1  0.35668375  0.00290654  0.33662914  1
  In  In52  1  0.84378602  0.19606420  0.65362772  1
  In  In53  1  0.81992547  -0.00266303  0.84784374  1
  In  In54  1  0.17013532  0.82062722  0.30701410  1
  In  In55  1  0.82537437  0.47115800  0.35091337  1
  In  In56  1  -0.01426750  0.35252563  0.65087410  1
  In  In57  1  0.15642134  0.33752043  0.83325099  1
  In  In58  1  0.14192338  0.63366461  0.86427782  1
  In  In59  1  0.16734096  0.36025587  0.50689932  1
  In  In60  1  0.65735989  0.01141777  0.33645603  1
  In  In61  1  0.65104477  0.83964278  0.16525125  1
  In  In62  1  0.65444269  0.47191111  0.83812886  1
  In  In63  1  0.52186543  0.00526547  0.84689304  1
  In  In64  1  0.65769026  -0.00441774  0.66380877  1
  In  In65  1  0.47656586  0.49916914  0.66224004  1
  In  In66  1  0.01752301  0.64722225  0.31272196  1
  In  In67  1  0.49116534  0.82255448  0.34006446  1
  In  In68  1  0.14650831  0.61800683  0.52876821  1
  In  In69  1  -0.00708161  -0.00031321  0.00385940  1
  In  In70  1  0.17945673  -0.00600018  0.16880695  1
  In  In71  1  0.50478582  0.00341552  0.50362267  1
  Te  Te72  1  0.09445675  0.09266526  0.07627644  1
  Te  Te73  1  0.08721718  0.08562422  0.41449569  1
  Te  Te74  1  0.07645212  0.07857335  0.74223144  1
  Te  Te75  1  0.12222077  0.48695394  0.07545157  1
  Te  Te76  1  0.08423466  0.44039459  0.41350127  1
  Te  Te77  1  0.07854567  0.42881242  0.74206678  1
  Te  Te78  1  0.09876026  0.70104660  0.11235463  1
  Te  Te79  1  0.09122351  0.73677041  0.41743652  1
  Te  Te80  1  0.07941416  0.71409639  0.74273998  1
  Te  Te81  1  0.42119557  0.09078170  0.07179583  1
  Te  Te82  1  0.42649056  0.10647261  0.42139458  1
  Te  Te83  1  0.42327067  0.07632446  0.74343240  1
  Te  Te84  1  0.42193067  0.41940795  0.09945861  1
  Te  Te85  1  0.43961849  0.42287635  0.42461118  1
  Te  Te86  1  0.43416633  0.40744474  0.76973524  1
  Te  Te87  1  0.41730914  0.74901620  0.06640393  1
  Te  Te88  1  0.40877533  0.71180489  0.39557998  1
  Te  Te89  1  0.42203803  0.74829457  0.75020265  1
  Te  Te90  1  0.73400106  0.10899866  0.09828610  1
  Te  Te91  1  0.74160364  0.09320628  0.42597262  1
  Te  Te92  1  0.76051313  0.09112831  0.74246700  1
  Te  Te93  1  0.74045225  0.41190934  0.07399257  1
  Te  Te94  1  0.71180441  0.40003008  0.41066416  1
  Te  Te95  1  0.76189999  0.42838595  0.74733409  1
  Te  Te96  1  0.75145202  0.74999356  0.08837525  1
  Te  Te97  1  0.73149507  0.74641701  0.44223749  1
  Te  Te98  1  0.75075361  0.71642848  0.75916273  1
  Te  Te99  1  0.08642221  0.28086404  0.21926676  1
  Te  Te100  1  0.08273551  0.24127524  0.59039824  1
  Te  Te101  1  0.05986101  0.29734054  0.95469223  1
  Te  Te102  1  0.09668959  0.57294909  0.20834714  1
  Te  Te103  1  0.03428073  0.54209479  0.59244008  1
  Te  Te104  1  0.04506701  0.53579709  0.93288762  1
  Te  Te105  1  0.07066318  0.89863497  0.21819342  1
  Te  Te106  1  0.07349059  0.90321878  0.57407611  1
  Te  Te107  1  0.09183974  0.91282801  0.91294141  1
  Te  Te108  1  0.42048102  0.25195563  0.24865280  1
  Te  Te109  1  0.38770056  0.25507828  0.56580422  1
  Te  Te110  1  0.44118275  0.25420618  0.91985408  1
  Te  Te111  1  0.41554725  0.56169194  0.25636346  1
  Te  Te112  1  0.42718735  0.61108324  0.57193779  1
  Te  Te113  1  0.39225001  0.59480349  0.94319215  1
  Te  Te114  1  0.40569496  0.89872125  0.23663016  1
  Te  Te115  1  0.44563035  0.87733751  0.58281693  1
  Te  Te116  1  0.42093039  0.93065290  0.92743407  1
  Te  Te117  1  0.72114914  0.25194149  0.24544551  1
  Te  Te118  1  0.75621746  0.27049866  0.55835963  1
  Te  Te119  1  0.76211074  0.28126145  0.90709475  1
  Te  Te120  1  0.75210075  0.59499584  0.27613830  1
  Te  Te121  1  0.75261107  0.55599285  0.58661929  1
  Te  Te122  1  0.75894014  0.56506584  0.91827680  1
  Te  Te123  1  0.75534640  0.92310139  0.24696483  1
  Te  Te124  1  0.74673577  0.91563931  0.57735997  1
  Te  Te125  1  0.74387383  0.92335574  0.94869343  1
  Te  Te126  1  0.23771389  0.26916314  0.08627112  1
  Te  Te127  1  0.26351333  0.26877426  0.42586605  1
  Te  Te128  1  0.27474286  0.28613120  0.74576483  1
  Te  Te129  1  0.21936467  0.60064429  0.07055391  1
  Te  Te130  1  0.23281386  0.57632606  0.41790852  1
  Te  Te131  1  0.22850409  0.57226569  0.74891382  1
  Te  Te132  1  0.25835374  0.91569758  0.06803853  1
  Te  Te133  1  0.24169259  0.92368586  0.41273287  1
  Te  Te134  1  0.25177125  0.93655024  0.73797899  1
  Te  Te135  1  0.61206372  0.21243783  0.06831549  1
  Te  Te136  1  0.62265472  0.27654634  0.45004855  1
  Te  Te137  1  0.57499859  0.25632587  0.74564083  1
  Te  Te138  1  0.58958680  0.57783359  0.09045659  1
  Te  Te139  1  0.57370549  0.52502752  0.45432832  1
  Te  Te140  1  0.58753616  0.58081731  0.74491706  1
  Te  Te141  1  0.58663390  0.92296989  0.06261851  1
  Te  Te142  1  0.59000955  0.90480393  0.42232239  1
  Te  Te143  1  0.58764473  0.89909738  0.75706848  1
  Te  Te144  1  0.91225457  0.25909946  0.08262273  1
  Te  Te145  1  0.90932609  0.28139257  0.42112334  1
  Te  Te146  1  0.90512207  0.27996734  0.76412152  1
  Te  Te147  1  0.93630109  0.60137602  0.05580110  1
  Te  Te148  1  0.92601658  0.57261264  0.40936474  1
  Te  Te149  1  0.94304256  0.54990850  0.72197631  1
  Te  Te150  1  0.91904349  0.89884311  0.08110110  1
  Te  Te151  1  0.89403448  0.92056109  0.41969703  1
  Te  Te152  1  0.91732533  0.90601436  0.76078342  1
  Te  Te153  1  0.24512711  0.09267990  0.26632047  1
  Te  Te154  1  0.28192844  0.12505248  0.57458171  1
  Te  Te155  1  0.27788824  0.08995130  0.93801826  1
  Te  Te156  1  0.22858137  0.42530242  0.25387340  1
  Te  Te157  1  0.25443658  0.43179246  0.60242513  1
  Te  Te158  1  0.24730979  0.42695398  0.92111105  1
  Te  Te159  1  0.26678030  0.71397731  0.27287858  1
  Te  Te160  1  0.24768971  0.75173096  0.57255082  1
  Te  Te161  1  0.23667841  0.75019536  0.90213453  1
  Te  Te162  1  0.56739345  0.09921487  0.25294581  1
  Te  Te163  1  0.59980440  0.10309929  0.57188789  1
  Te  Te164  1  0.59448600  0.10229237  0.93734221  1
  Te  Te165  1  0.58042246  0.40224095  0.25584728  1
  Te  Te166  1  0.57638410  0.42321104  0.57780793  1
  Te  Te167  1  0.57710791  0.38413572  0.92914902  1
  Te  Te168  1  0.59401336  0.73277976  0.25852732  1
  Te  Te169  1  0.55903381  0.76264834  0.57340333  1
  Te  Te170  1  0.57210925  0.75579422  0.92075902  1
  Te  Te171  1  0.91578802  0.08016345  0.26477587  1
  Te  Te172  1  0.89162326  0.07867492  0.56408287  1
  Te  Te173  1  0.93100492  0.09842154  0.90454915  1
  Te  Te174  1  0.91981655  0.44481334  0.22924537  1
  Te  Te175  1  0.89752506  0.45490364  0.58472701  1
  Te  Te176  1  0.94819720  0.42590079  0.89719077  1
  Te  Te177  1  0.92193554  0.74745517  0.24598813  1
  Te  Te178  1  0.91964448  0.73365935  0.60157285  1
  Te  Te179  1  0.90384896  0.73903161  0.92665904  1
