# generated using pymatgen
data_In2Te3
_symmetry_space_group_name_H-M   'P 1'
_cell_length_a   18.77827597
_cell_length_b   18.78765710
_cell_length_c   18.78625730
_cell_angle_alpha   89.97720386
_cell_angle_beta   90.03687638
_cell_angle_gamma   90.00982488
_symmetry_Int_Tables_number   1
_chemical_formula_structural   In2Te3
_chemical_formula_sum   'In72 Te108'
_cell_volume   6627.78600786
_cell_formula_units_Z   36
loop_
 _symmetry_equiv_pos_site_id
 _symmetry_equiv_pos_as_xyz
  1  'x, y, z'
loop_
 _atom_site_type_symbol
 _atom_site_label
 _atom_site_symmetry_multiplicity
 _atom_site_fract_x
 _atom_site_fract_y
 _atom_site_fract_z
 _atom_site_occupancy
  In  In0  1  0.01920631  0.67562988  -0.01598000  1
  In  In1  1  0.63192541  0.32265524  -0.03542891  1
  In  In2  1  0.80426901  0.51818178  -0.03327721  1
  In  In3  1  0.00894652  0.01617822  0.68268361  1
  In  In4  1  0.03098624  0.15371996  0.16338114  1
  In  In5  1  0.66425828  0.15704276  0.18671340  1
  In  In6  1  0.50047090  0.66984191  0.82756643  1
  In  In7  1  0.66804622  0.66003509  -0.02233646  1
  In  In8  1  0.66679012  0.83849894  0.80162138  1
  In  In9  1  0.83733992  0.32609968  0.82787038  1
  In  In10  1  -0.00306315  0.84834933  0.84173841  1
  In  In11  1  0.50192662  0.48995618  -0.01025008  1
  In  In12  1  0.82935732  0.17645557  -0.00781137  1
  In  In13  1  0.69359852  0.68940664  0.37428283  1
  In  In14  1  0.63227630  0.86458350  0.15246000  1
  In  In15  1  0.34124827  0.31419670  0.34109900  1
  In  In16  1  0.51813810  0.50657130  0.34840018  1
  In  In17  1  0.18751239  0.67710929  0.51437285  1
  In  In18  1  0.01144869  0.52021080  0.17829450  1
  In  In19  1  0.34897316  0.00305536  0.36008434  1
  In  In20  1  0.84374789  0.49348062  0.65571551  1
  In  In21  1  -0.00173193  0.64398137  0.34685983  1
  In  In22  1  0.48780553  0.68872108  0.18063365  1
  In  In23  1  0.64036042  0.00439236  0.63721872  1
  In  In24  1  0.83637001  0.67731028  0.16360041  1
  In  In25  1  0.83950809  0.32732458  0.51261144  1
  In  In26  1  0.32894977  0.49768484  0.16375912  1
  In  In27  1  0.49004279  0.29569251  0.51450159  1
  In  In28  1  0.67397738  0.48217092  0.14861877  1
  In  In29  1  0.17464200  0.83511327  -0.00443436  1
  In  In30  1  0.15309348  0.35170459  0.48825197  1
  In  In31  1  0.85925824  0.37353030  0.17196239  1
  In  In32  1  0.47549891  0.88582921  -0.02150988  1
  In  In33  1  0.81552696  0.80157251  0.36277714  1
  In  In34  1  0.45522615  0.13205886  -0.05086299  1
  In  In35  1  0.18451177  0.85460936  0.68151156  1
  In  In36  1  0.65271093  0.32090620  0.34746875  1
  In  In37  1  0.33771488  0.48078038  0.82076952  1
  In  In38  1  0.18367990  0.15314494  0.34852012  1
  In  In39  1  0.00897543  -0.01504652  0.33710435  1
  In  In40  1  0.16464876  0.50714115  0.01194639  1
  In  In41  1  0.83473776  0.17959204  0.66500094  1
  In  In42  1  0.33463482  0.83101839  0.17878065  1
  In  In43  1  0.81680340  0.00855563  0.16823895  1
  In  In44  1  0.17589581  0.32179742  0.80932164  1
  In  In45  1  0.01359104  0.87878028  0.18647651  1
  In  In46  1  0.81743765  -0.00180273  0.82921136  1
  In  In47  1  0.19203709  0.15705183  0.66618793  1
  In  In48  1  -0.00031754  0.83314484  0.51325977  1
  In  In49  1  0.17409412  0.47403490  0.66331644  1
  In  In50  1  0.81356238  0.68576553  0.48384751  1
  In  In51  1  -0.00528360  0.64862759  0.65401702  1
  In  In52  1  0.67416474  0.51283798  0.49567516  1
  In  In53  1  0.36598578  0.01743569  0.67035816  1
  In  In54  1  0.81961342  0.82692788  -0.03429108  1
  In  In55  1  0.47656580  0.81955969  0.35683591  1
  In  In56  1  0.00238175  0.16789789  0.51971196  1
  In  In57  1  0.16809975  0.02867823  0.16572771  1
  In  In58  1  0.34098927  0.68448105  0.65589950  1
  In  In59  1  0.50879750  0.83369663  0.64772031  1
  In  In60  1  0.85587535  0.52027333  0.32079930  1
  In  In61  1  0.18567184  0.68402985  0.18845014  1
  In  In62  1  0.20511128  0.29830312  0.15743637  1
  In  In63  1  -0.00168269  0.00805310  -0.00414075  1
  In  In64  1  0.64147930  -0.01026774  0.34707658  1
  In  In65  1  0.16883928  0.67846360  0.84643733  1
  In  In66  1  0.02058576  0.32060925  -0.01547494  1
  In  In67  1  0.48617729  0.50158533  0.66748057  1
  In  In68  1  0.80447088  0.15590141  0.35639687  1
  In  In69  1  0.64787016  0.30757243  0.66793921  1
  In  In70  1  0.49791739  0.32536364  0.83098661  1
  In  In71  1  0.46680941  0.30658229  0.16307143  1
  Te  Te72  1  0.10977567  0.10233622  0.04313988  1
  Te  Te73  1  0.08805149  0.07274772  0.43491300  1
  Te  Te74  1  0.10901172  0.08275555  0.76714354  1
  Te  Te75  1  0.08884095  0.40692327  0.10015962  1
  Te  Te76  1  0.07399241  0.43575583  0.39731965  1
  Te  Te77  1  0.07393087  0.41401562  0.75338036  1
  Te  Te78  1  0.07728222  0.75541669  0.09976382  1
  Te  Te79  1  0.08439377  0.74687502  0.42128374  1
  Te  Te80  1  0.08191022  0.75546406  0.74223870  1
  Te  Te81  1  0.39160016  0.09818799  0.08126312  1
  Te  Te82  1  0.42018756  0.09299458  0.45957178  1
  Te  Te83  1  0.44633838  0.10058853  0.78022897  1
  Te  Te84  1  0.39964189  0.40482126  0.06556068  1
  Te  Te85  1  0.43011301  0.40760829  0.42481926  1
  Te  Te86  1  0.40481783  0.38388000  0.72140420  1
  Te  Te87  1  0.42060009  0.76537597  0.06915577  1
  Te  Te88  1  0.37495425  0.72462883  0.41133911  1
  Te  Te89  1  0.41403157  0.77294749  0.75563127  1
  Te  Te90  1  0.73332023  0.08207771  0.06640928  1
  Te  Te91  1  0.74155649  0.05237553  0.43801702  1
  Te  Te92  1  0.73694598  0.08224813  0.73137051  1
  Te  Te93  1  0.74984289  0.39257899  0.05039396  1
  Te  Te94  1  0.75555596  0.42284103  0.40110556  1
  Te  Te95  1  0.74405609  0.40538298  0.73570343  1
  Te  Te96  1  0.73378744  0.75979602  0.08511863  1
  Te  Te97  1  0.68798868  0.81344389  0.48294015  1
  Te  Te98  1  0.76553319  0.73415362  0.77873997  1
  Te  Te99  1  0.10099544  0.24782173  0.26047886  1
  Te  Te100  1  0.09365481  0.25797678  0.59674537  1
  Te  Te101  1  0.10754825  0.23044110  0.90830044  1
  Te  Te102  1  0.11887502  0.57664297  0.27403650  1
  Te  Te103  1  0.09472069  0.56983256  0.57063042  1
  Te  Te104  1  0.07851034  0.56515214  0.89903472  1
  Te  Te105  1  0.13702551  0.91602077  0.27779251  1
  Te  Te106  1  0.09215524  0.93033337  0.58538171  1
  Te  Te107  1  0.10251667  0.93601276  0.90619278  1
  Te  Te108  1  0.42403400  0.21357943  0.26961444  1
  Te  Te109  1  0.41047794  0.18798837  0.58518590  1
  Te  Te110  1  0.40180979  0.27263932  0.93274072  1
  Te  Te111  1  0.41412968  0.58041674  0.25963706  1
  Te  Te112  1  0.39612772  0.57337000  0.57049181  1
  Te  Te113  1  0.40716797  0.58257564  0.91348708  1
  Te  Te114  1  0.42868802  0.92338338  0.25442265  1
  Te  Te115  1  0.41573118  0.91713336  0.56497775  1
  Te  Te116  1  0.36363006  0.94840214  0.89813823  1
  Te  Te117  1  0.76136897  0.26337736  0.24499091  1
  Te  Te118  1  0.73053371  0.23411802  0.56175052  1
  Te  Te119  1  0.73053079  0.23315488  0.88994124  1
  Te  Te120  1  0.73591493  0.58954905  0.24716839  1
  Te  Te121  1  0.74713548  0.59717032  0.59637307  1
  Te  Te122  1  0.73502509  0.59835766  0.85805524  1
  Te  Te123  1  0.74943942  0.90448744  0.25570219  1
  Te  Te124  1  0.73981449  0.90341746  0.59791426  1
  Te  Te125  1  0.71999389  0.93045267  0.92430764  1
  Te  Te126  1  0.29233543  0.21660095  0.06714910  1
  Te  Te127  1  0.25700500  0.24319761  0.44594098  1
  Te  Te128  1  0.28496282  0.24300440  0.74624582  1
  Te  Te129  1  0.25994239  0.60592380  0.07967744  1
  Te  Te130  1  0.29158105  0.59488173  0.44606827  1
  Te  Te131  1  0.25110307  0.59212278  0.74774510  1
  Te  Te132  1  0.25376005  0.92504668  0.08915801  1
  Te  Te133  1  0.24075640  0.90906551  0.39184561  1
  Te  Te134  1  0.26966910  0.94377694  0.76635795  1
  Te  Te135  1  0.58136404  0.24208810  0.08474048  1
  Te  Te136  1  0.57221443  0.21909570  0.41500578  1
  Te  Te137  1  0.56465676  0.21429281  0.75229240  1
  Te  Te138  1  0.57142497  0.58686321  0.08881557  1
  Te  Te139  1  0.57021831  0.61420966  0.44343938  1
  Te  Te140  1  0.57918238  0.60224957  0.72222253  1
  Te  Te141  1  0.55081485  0.96408749  0.08095305  1
  Te  Te142  1  0.54533087  0.92110128  0.44264142  1
  Te  Te143  1  0.55744800  0.93375728  0.75586895  1
  Te  Te144  1  0.92404286  0.24454463  0.09185185  1
  Te  Te145  1  0.91877913  0.24104077  0.41301785  1
  Te  Te146  1  0.93410105  0.24804749  0.74885586  1
  Te  Te147  1  0.90881665  0.57808735  0.07309320  1
  Te  Te148  1  0.91426498  0.57220314  0.45067129  1
  Te  Te149  1  0.93045338  0.56326468  0.75505285  1
  Te  Te150  1  0.90749624  0.90924585  0.07112370  1
  Te  Te151  1  0.90565695  0.91366420  0.42343632  1
  Te  Te152  1  0.90614843  0.91270616  0.73923717  1
  Te  Te153  1  0.27981341  0.09243031  0.24844000  1
  Te  Te154  1  0.25899898  0.06027400  0.57430952  1
  Te  Te155  1  0.30533078  0.08194623  0.94438699  1
  Te  Te156  1  0.25078353  0.40628563  0.25799426  1
  Te  Te157  1  0.26555423  0.40826401  0.56858477  1
  Te  Te158  1  0.24268423  0.41462586  0.92021929  1
  Te  Te159  1  0.26988760  0.75313690  0.29376509  1
  Te  Te160  1  0.27154085  0.79400206  0.57205771  1
  Te  Te161  1  0.27121114  0.75808390  0.91574346  1
  Te  Te162  1  0.56191633  0.07736395  0.25665069  1
  Te  Te163  1  0.53774677  0.09312883  0.56890521  1
  Te  Te164  1  0.56048722  0.06017284  0.87091017  1
  Te  Te165  1  0.57033197  0.40738477  0.23921663  1
  Te  Te166  1  0.58508543  0.41296306  0.57161885  1
  Te  Te167  1  0.59088815  0.44207158  0.87729166  1
  Te  Te168  1  0.59428721  0.75983342  0.26487867  1
  Te  Te169  1  0.58837107  0.73267824  0.57499465  1
  Te  Te170  1  0.57500386  0.77025961  0.92206276  1
  Te  Te171  1  0.92082447  0.08362641  0.25157903  1
  Te  Te172  1  0.90469471  0.07041333  0.58224993  1
  Te  Te173  1  0.91750335  0.09329273  0.89850360  1
  Te  Te174  1  0.96291842  0.41135565  0.28695774  1
  Te  Te175  1  0.93974068  0.40248791  0.58768724  1
  Te  Te176  1  0.91557260  0.41385322  0.92653870  1
  Te  Te177  1  0.92897057  0.75452170  0.25639232  1
  Te  Te178  1  0.90043131  0.75321224  0.59487711  1
  Te  Te179  1  0.90918676  0.72836897  0.89147185  1
