# generated using pymatgen
data_In2Te3
_symmetry_space_group_name_H-M   'P 1'
_cell_length_a   18.80244717
_cell_length_b   18.79877480
_cell_length_c   18.79201623
_cell_angle_alpha   89.99644797
_cell_angle_beta   90.06110748
_cell_angle_gamma   89.88041655
_symmetry_Int_Tables_number   1
_chemical_formula_structural   In2Te3
_chemical_formula_sum   'In72 Te108'
_cell_volume   6642.26360774
_cell_formula_units_Z   36
loop_
 _symmetry_equiv_pos_site_id
 _symmetry_equiv_pos_as_xyz
  1  'x, y, z'
loop_
 _atom_site_type_symbol
 _atom_site_label
 _atom_site_symmetry_multiplicity
 _atom_site_fract_x
 _atom_site_fract_y
 _atom_site_fract_z
 _atom_site_occupancy
  In  In0  1  0.48953078  0.68855745  0.52079434  1
  In  In1  1  0.68700794  0.65669851  0.31142290  1
  In  In2  1  0.15753429  0.15064118  0.33108891  1
  In  In3  1  0.16906829  0.33866373  0.48907403  1
  In  In4  1  0.35405611  0.83612129  0.83061281  1
  In  In5  1  0.16366608  0.49999299  0.68791216  1
  In  In6  1  0.00676860  0.00482812  -0.00868068  1
  In  In7  1  0.00104662  0.67477893  0.66930038  1
  In  In8  1  0.67702450  0.33739277  0.65829148  1
  In  In9  1  -0.00633648  0.49428231  0.83173100  1
  In  In10  1  0.84045715  0.65266612  0.51125109  1
  In  In11  1  0.50276730  0.32971813  0.85407491  1
  In  In12  1  0.34663007  0.29924981  0.01613454  1
  In  In13  1  0.33742837  0.84874595  0.51497192  1
  In  In14  1  0.50476279  -0.00008233  0.50363504  1
  In  In15  1  0.49815561  0.85064342  -0.01308673  1
  In  In16  1  0.81892147  -0.00996556  0.15299518  1
  In  In17  1  0.64879654  -0.01222662  0.68189122  1
  In  In18  1  0.64105663  0.83925224  0.49026997  1
  In  In19  1  0.14736614  0.67667938  0.81688431  1
  In  In20  1  0.51063385  0.48669007  0.34742184  1
  In  In21  1  0.49482912  0.33471267  0.49868650  1
  In  In22  1  0.53451271  0.69181063  0.83112593  1
  In  In23  1  0.51198719  0.66383089  0.16260475  1
  In  In24  1  0.33376204  0.49284828  0.16778692  1
  In  In25  1  0.14432153  0.47334016  0.03208219  1
  In  In26  1  0.48018117  0.13036507  0.01861326  1
  In  In27  1  0.83865740  0.01511027  0.49701186  1
  In  In28  1  0.31595252  0.16282041  0.51827791  1
  In  In29  1  0.68734208  0.49854391  0.47989406  1
  In  In30  1  0.82446300  0.50714141  0.65785268  1
  In  In31  1  -0.01220249  0.83315006  0.81942281  1
  In  In32  1  0.17249649  0.00879186  0.82287282  1
  In  In33  1  0.33159223  -0.00435637  0.32125616  1
  In  In34  1  0.01601835  0.00793046  0.33108096  1
  In  In35  1  0.14233883  0.75280192  0.50743089  1
  In  In36  1  0.14714918  0.32348075  0.83469960  1
  In  In37  1  0.66946750  0.83013189  0.15323298  1
  In  In38  1  0.66111200  0.16003984  0.83833831  1
  In  In39  1  0.00515065  0.16995845  0.15493729  1
  In  In40  1  -0.01696125  0.66259176  0.01431491  1
  In  In41  1  -0.01441286  0.17406868  0.48138519  1
  In  In42  1  0.01047355  0.33960354  0.01692074  1
  In  In43  1  0.81404667  0.81398824  0.68373275  1
  In  In44  1  0.16236574  0.49789023  0.30898277  1
  In  In45  1  0.15364659  0.15786161  0.65938965  1
  In  In46  1  0.36102733  0.02114890  0.69168539  1
  In  In47  1  0.32351644  0.48981244  0.83098571  1
  In  In48  1  0.85922597  0.30285816  0.79712161  1
  In  In49  1  0.33243337  0.32828258  0.68570985  1
  In  In50  1  0.18945412  0.16341900  -0.00379669  1
  In  In51  1  0.80545736  0.52020413  -0.02492429  1
  In  In52  1  0.67897772  -0.00922340  -0.00640829  1
  In  In53  1  0.81630452  -0.00984852  0.82773868  1
  In  In54  1  0.16430359  0.65814124  0.17197584  1
  In  In55  1  0.66356045  0.34790511  0.01081199  1
  In  In56  1  0.50310527  0.32888253  0.17745847  1
  In  In57  1  0.85223597  0.83021787  0.32810825  1
  In  In58  1  0.79948625  0.81832891  -0.00800882  1
  In  In59  1  0.20767411  0.86835643  0.03007959  1
  In  In60  1  0.15918264  0.82566239  0.33653252  1
  In  In61  1  0.67042755  0.34618906  0.32259481  1
  In  In62  1  0.81174805  0.17554846  0.33692727  1
  In  In63  1  0.67864294  0.17286558  0.50999227  1
  In  In64  1  -0.02181127  0.48768156  0.49990053  1
  In  In65  1  0.53521140  0.52361585  0.00336893  1
  In  In66  1  0.32643152  0.68287693  0.35262826  1
  In  In67  1  0.35926564  0.51719933  0.49130039  1
  In  In68  1  -0.00126585  0.82656972  0.18387887  1
  In  In69  1  0.51097913  0.14245724  0.29607093  1
  In  In70  1  0.84633017  0.17763350  0.01446143  1
  In  In71  1  0.35587588  0.68790256  -0.00714791  1
  Te  Te72  1  0.10127432  0.07141723  0.08801545  1
  Te  Te73  1  0.09429728  0.07189183  0.44527037  1
  Te  Te74  1  0.06269444  0.08630473  0.75584786  1
  Te  Te75  1  0.07083478  0.40319981  0.13815813  1
  Te  Te76  1  0.07086805  0.41437243  0.40214824  1
  Te  Te77  1  0.05982803  0.39783410  0.73348174  1
  Te  Te78  1  0.08989456  0.75537293  0.07418367  1
  Te  Te79  1  0.05902568  0.72954905  0.38730725  1
  Te  Te80  1  0.10212816  0.78832570  0.71779076  1
  Te  Te81  1  0.37726403  0.09322725  0.11974038  1
  Te  Te82  1  0.41314421  0.09231800  0.41987615  1
  Te  Te83  1  0.42743997  0.12195656  0.77355097  1
  Te  Te84  1  0.42882658  0.42095537  0.06307236  1
  Te  Te85  1  0.39758757  0.40030296  0.39995339  1
  Te  Te86  1  0.43436513  0.42232257  0.74975367  1
  Te  Te87  1  0.41984956  0.76975969  0.10147996  1
  Te  Te88  1  0.42755386  0.77826646  0.41155012  1
  Te  Te89  1  0.42760506  0.74310928  0.74338872  1
  Te  Te90  1  0.73636822  0.09984289  0.08598891  1
  Te  Te91  1  0.72733131  0.06978344  0.40767598  1
  Te  Te92  1  0.74953895  0.09193810  0.73467867  1
  Te  Te93  1  0.75754960  0.43184600  0.08626152  1
  Te  Te94  1  0.77489593  0.39867527  0.41532006  1
  Te  Te95  1  0.75895840  0.41400318  0.76201039  1
  Te  Te96  1  0.77374614  0.73046217  0.11005262  1
  Te  Te97  1  0.75483472  0.74892806  0.41997055  1
  Te  Te98  1  0.73629327  0.71740022  0.76662216  1
  Te  Te99  1  0.06021159  0.24601006  0.27050696  1
  Te  Te100  1  0.07526017  0.25910688  0.57655242  1
  Te  Te101  1  0.06869724  0.23102939  0.92601879  1
  Te  Te102  1  0.05765447  0.58159439  0.24080718  1
  Te  Te103  1  0.07809653  0.57368853  0.58451718  1
  Te  Te104  1  0.09194084  0.57378720  0.91738785  1
  Te  Te105  1  0.10147872  0.92699519  0.23366097  1
  Te  Te106  1  0.08778103  0.86594492  0.58342280  1
  Te  Te107  1  0.08904020  0.90384368  0.91174425  1
  Te  Te108  1  0.41027308  0.23878824  0.24634432  1
  Te  Te109  1  0.42118114  0.24214793  0.59529659  1
  Te  Te110  1  0.40610594  0.21753401  0.89796549  1
  Te  Te111  1  0.41419499  0.58586365  0.26040791  1
  Te  Te112  1  0.43849061  0.57412772  0.60031333  1
  Te  Te113  1  0.42391259  0.58148776  0.90681735  1
  Te  Te114  1  0.40336694  0.90855912  0.22631030  1
  Te  Te115  1  0.43747051  0.91515028  0.61022266  1
  Te  Te116  1  0.39575184  0.94257174  0.92714500  1
  Te  Te117  1  0.73220538  0.24530992  0.23391365  1
  Te  Te118  1  0.77582288  0.26599042  0.57231241  1
  Te  Te119  1  0.75364446  0.25423646  0.91571744  1
  Te  Te120  1  0.77362086  0.53657697  0.27906590  1
  Te  Te121  1  0.72266535  0.60052645  0.58977500  1
  Te  Te122  1  0.72959300  0.61886389  0.89063399  1
  Te  Te123  1  0.74414393  0.91407279  0.26040136  1
  Te  Te124  1  0.74931182  0.91860460  0.58051091  1
  Te  Te125  1  0.71108521  0.88686038  0.87794823  1
  Te  Te126  1  0.22838377  0.26620845  0.09664708  1
  Te  Te127  1  0.25425808  0.24498960  0.40597054  1
  Te  Te128  1  0.24326147  0.23049025  0.76082302  1
  Te  Te129  1  0.26049956  0.58687192  0.06883753  1
  Te  Te130  1  0.23927357  0.57745239  0.41864316  1
  Te  Te131  1  0.26167742  0.60181613  0.74495798  1
  Te  Te132  1  0.31205371  0.94943239  0.11020323  1
  Te  Te133  1  0.24189844  0.92328523  0.42069686  1
  Te  Te134  1  0.25868849  0.91446239  0.73980314  1
  Te  Te135  1  0.57229624  0.24144724  0.07284509  1
  Te  Te136  1  0.58157211  0.24681268  0.40876103  1
  Te  Te137  1  0.58297547  0.25408581  0.74614464  1
  Te  Te138  1  0.62639937  0.60149288  0.09086811  1
  Te  Te139  1  0.58153996  0.60161291  0.41661708  1
  Te  Te140  1  0.62906859  0.59433705  0.76883442  1
  Te  Te141  1  0.57199778  0.94098166  0.09960791  1
  Te  Te142  1  0.57335855  0.92811328  0.39437548  1
  Te  Te143  1  0.58443706  0.91579106  0.79199887  1
  Te  Te144  1  0.90202642  0.27672552  0.11357153  1
  Te  Te145  1  0.92089439  0.26510661  0.38220323  1
  Te  Te146  1  0.94142810  0.20149053  0.73095880  1
  Te  Te147  1  0.91264423  0.54956809  0.07621318  1
  Te  Te148  1  0.90419765  0.57546956  0.39795014  1
  Te  Te149  1  0.90694360  0.59362474  0.75632151  1
  Te  Te150  1  0.91377531  0.90638865  0.06578205  1
  Te  Te151  1  0.93288262  0.91875728  0.42318241  1
  Te  Te152  1  0.91384472  0.92784026  0.72727176  1
  Te  Te153  1  0.25698473  0.09495673  0.23284684  1
  Te  Te154  1  0.24414440  0.05376206  0.59355615  1
  Te  Te155  1  0.26976483  0.05893552  0.92443547  1
  Te  Te156  1  0.24888361  0.39762422  0.24027810  1
  Te  Te157  1  0.25672746  0.42111985  0.58712769  1
  Te  Te158  1  0.24359283  0.40133938  0.92629961  1
  Te  Te159  1  0.25778491  0.75769014  0.23873342  1
  Te  Te160  1  0.27170471  0.73004167  0.57391512  1
  Te  Te161  1  0.24305166  0.75439092  0.91339891  1
  Te  Te162  1  0.58536266  0.05352552  0.20904975  1
  Te  Te163  1  0.57956406  0.09551350  0.59645717  1
  Te  Te164  1  0.56984103  0.06281658  0.91057479  1
  Te  Te165  1  0.59164031  0.44157645  0.22831935  1
  Te  Te166  1  0.58540381  0.42862048  0.57611435  1
  Te  Te167  1  0.60399388  0.43472728  0.89972441  1
  Te  Te168  1  0.58415582  0.75797639  0.25970763  1
  Te  Te169  1  0.58395761  0.76627621  0.60410539  1
  Te  Te170  1  0.59114228  0.73676847  0.96128988  1
  Te  Te171  1  0.91001229  0.07604124  0.24347272  1
  Te  Te172  1  0.91069295  0.10514607  0.59234172  1
  Te  Te173  1  0.90703063  0.08469726  0.90969527  1
  Te  Te174  1  0.91285099  0.47925265  0.27395354  1
  Te  Te175  1  0.89932762  0.39793538  0.58824542  1
  Te  Te176  1  0.90952112  0.40068098  0.91630243  1
  Te  Te177  1  0.89620895  0.72821350  0.22729649  1
  Te  Te178  1  0.91652981  0.76504301  0.57937683  1
  Te  Te179  1  0.90510299  0.74156411  0.90878473  1
