# generated using pymatgen
data_In2Te3
_symmetry_space_group_name_H-M   'P 1'
_cell_length_a   18.89127752
_cell_length_b   18.90220612
_cell_length_c   18.88304850
_cell_angle_alpha   90.01180887
_cell_angle_beta   90.05833571
_cell_angle_gamma   89.82356857
_symmetry_Int_Tables_number   1
_chemical_formula_structural   In2Te3
_chemical_formula_sum   'In72 Te108'
_cell_volume   6742.85217044
_cell_formula_units_Z   36
loop_
 _symmetry_equiv_pos_site_id
 _symmetry_equiv_pos_as_xyz
  1  'x, y, z'
loop_
 _atom_site_type_symbol
 _atom_site_label
 _atom_site_symmetry_multiplicity
 _atom_site_fract_x
 _atom_site_fract_y
 _atom_site_fract_z
 _atom_site_occupancy
  In  In0  1  0.00989787  0.66492135  0.03013926  1
  In  In1  1  0.16622119  0.69601519  0.17449128  1
  In  In2  1  0.31737146  0.51451774  0.49776498  1
  In  In3  1  0.81020824  0.67145666  0.84036677  1
  In  In4  1  0.02313180  0.00959287  0.35533276  1
  In  In5  1  0.50260993  0.66162761  0.82104333  1
  In  In6  1  0.01205636  0.32940070  0.66704586  1
  In  In7  1  0.31573839  0.33263095  0.33696182  1
  In  In8  1  0.80452192  0.82948062  -0.01805376  1
  In  In9  1  0.01905699  0.16583701  0.51378948  1
  In  In10  1  0.02063592  0.22458884  0.18869902  1
  In  In11  1  0.36280655  0.86204691  0.52585240  1
  In  In12  1  0.19606665  0.00255082  0.15417221  1
  In  In13  1  0.84525722  0.16563489  -0.00340202  1
  In  In14  1  0.35673016  0.66213987  -0.00035107  1
  In  In15  1  0.63239573  0.50319041  0.83315013  1
  In  In16  1  0.01275914  0.48208235  0.17531006  1
  In  In17  1  0.18570816  0.66580485  0.83559389  1
  In  In18  1  0.49172014  0.15853017  0.36995478  1
  In  In19  1  0.83965997  0.02262375  0.14689590  1
  In  In20  1  0.67537325  0.15867299  0.17103015  1
  In  In21  1  0.33183726  0.15125623  0.52685296  1
  In  In22  1  0.33990412  -0.00269896  -0.01443355  1
  In  In23  1  0.00866047  0.83264526  0.53356124  1
  In  In24  1  0.82859863  0.49727157  0.65435141  1
  In  In25  1  0.79540045  0.14409739  0.68901846  1
  In  In26  1  0.17361746  0.48461401  0.36032725  1
  In  In27  1  0.51634355  0.31744467  0.49854418  1
  In  In28  1  0.51981615  0.15040579  -0.03429139  1
  In  In29  1  0.66593151  0.64513924  0.00059046  1
  In  In30  1  0.47509739  0.67347192  0.49548642  1
  In  In31  1  0.79834897  0.84094059  0.34753097  1
  In  In32  1  0.31983395  0.15801265  0.80740255  1
  In  In33  1  0.02421050  0.14609975  0.80326096  1
  In  In34  1  0.00197911  0.82887341  0.16133250  1
  In  In35  1  0.34391247  0.31389123  0.00219842  1
  In  In36  1  0.63787100  0.84432601  0.49581910  1
  In  In37  1  0.49736706  0.50445147  0.32488922  1
  In  In38  1  0.61783924  0.81888776  0.18669324  1
  In  In39  1  -0.01451836  0.64500878  0.35370778  1
  In  In40  1  0.18177059  0.66653427  0.47106636  1
  In  In41  1  0.82798532  0.17417133  0.33174585  1
  In  In42  1  0.34222757  0.52369109  0.18519517  1
  In  In43  1  0.66662736  0.48308782  0.51979080  1
  In  In44  1  0.33697672  0.67229488  0.68179114  1
  In  In45  1  0.51997049  0.15701483  0.64936344  1
  In  In46  1  0.49352875  0.83599877  -0.01216653  1
  In  In47  1  0.82996645  0.65021803  0.17568939  1
  In  In48  1  0.68070150  0.33854656  0.00317075  1
  In  In49  1  0.64230758  0.87489457  0.80842370  1
  In  In50  1  0.81853153  0.50060153  0.32701770  1
  In  In51  1  0.16387451  0.85593398  0.65462455  1
  In  In52  1  0.00117064  0.67653564  0.63552190  1
  In  In53  1  0.32723538  0.15178410  0.18081716  1
  In  In54  1  0.83596058  0.83868273  0.67504190  1
  In  In55  1  0.49866546  0.35048719  0.16336882  1
  In  In56  1  0.19905073  0.85210593  0.35041370  1
  In  In57  1  0.47347235  -0.03217269  0.17425666  1
  In  In58  1  -0.03125559  0.49302485  0.83991633  1
  In  In59  1  0.01914281  0.01127379  -0.01243481  1
  In  In60  1  0.35146556  0.84952833  0.81280390  1
  In  In61  1  0.64896214  -0.01630687  0.32470800  1
  In  In62  1  0.65443281  0.49669229  0.16143569  1
  In  In63  1  0.16315496  0.47866160  0.00450217  1
  In  In64  1  0.83860306  0.01046443  0.49730095  1
  In  In65  1  0.16652042  0.17893014  0.00552278  1
  In  In66  1  -0.00006333  0.85468102  0.83253030  1
  In  In67  1  0.16388282  0.30672858  0.84230307  1
  In  In68  1  0.84071598  0.32513518  0.85464675  1
  In  In69  1  0.66567362  0.31622482  0.67843312  1
  In  In70  1  0.16360990  0.50704258  0.64929215  1
  In  In71  1  0.83571068  0.31964527  0.52635855  1
  Te  Te72  1  0.07660781  0.09644871  0.10159596  1
  Te  Te73  1  0.11386586  0.11162433  0.41039153  1
  Te  Te74  1  0.11802862  0.07149072  0.71790914  1
  Te  Te75  1  0.08111288  0.38632595  0.08414755  1
  Te  Te76  1  0.07239252  0.38442877  0.38911962  1
  Te  Te77  1  0.08395422  0.42703632  0.76249567  1
  Te  Te78  1  0.10571668  0.77873559  0.06072273  1
  Te  Te79  1  0.08011817  0.76187471  0.40974863  1
  Te  Te80  1  0.09297084  0.74405741  0.74184994  1
  Te  Te81  1  0.42142474  0.09174802  0.07490212  1
  Te  Te82  1  0.40109420  0.06190460  0.42968016  1
  Te  Te83  1  0.40783596  0.07523160  0.71761633  1
  Te  Te84  1  0.40488770  0.43332997  0.07827707  1
  Te  Te85  1  0.41692641  0.41385982  0.42059383  1
  Te  Te86  1  0.48603710  0.46362668  0.80370547  1
  Te  Te87  1  0.42885104  0.75209062  0.08955947  1
  Te  Te88  1  0.40513726  0.77436160  0.40773930  1
  Te  Te89  1  0.44610558  0.77013716  0.72494140  1
  Te  Te90  1  0.73144177  0.07622083  0.05568278  1
  Te  Te91  1  0.73715719  0.07831176  0.40569606  1
  Te  Te92  1  0.70971062  0.05775250  0.77356898  1
  Te  Te93  1  0.76002604  0.41681870  0.09703453  1
  Te  Te94  1  0.75228775  0.39991771  0.42771398  1
  Te  Te95  1  0.75628218  0.41291048  0.75819168  1
  Te  Te96  1  0.74113393  0.74847499  0.09354941  1
  Te  Te97  1  0.71413625  0.74465603  0.41461038  1
  Te  Te98  1  0.72972415  0.75944767  0.74844994  1
  Te  Te99  1  0.10988206  0.26607949  0.29624081  1
  Te  Te100  1  0.11133054  0.24591670  0.59849424  1
  Te  Te101  1  0.05417850  0.23859939  0.92053739  1
  Te  Te102  1  0.08898677  0.59200414  0.25500338  1
  Te  Te103  1  0.07932485  0.58123763  0.54613520  1
  Te  Te104  1  0.08246958  0.58535901  0.91465811  1
  Te  Te105  1  0.08900687  0.91967641  0.24626485  1
  Te  Te106  1  0.07992953  0.95294230  0.57925341  1
  Te  Te107  1  0.10496194  0.92206442  0.90855841  1
  Te  Te108  1  0.42321611  0.25166653  0.25415616  1
  Te  Te109  1  0.41589208  0.25967291  0.59520407  1
  Te  Te110  1  0.41985965  0.24040389  0.89318009  1
  Te  Te111  1  0.44950899  0.61696254  0.23579639  1
  Te  Te112  1  0.41447825  0.57187733  0.59741592  1
  Te  Te113  1  0.40917531  0.56964271  0.89570737  1
  Te  Te114  1  0.42505665  0.89245382  0.29268787  1
  Te  Te115  1  0.45021670  0.96060174  0.60340660  1
  Te  Te116  1  0.44542754  0.94402631  0.88942547  1
  Te  Te117  1  0.76250304  0.26069561  0.23063228  1
  Te  Te118  1  0.72981787  0.22230406  0.57642560  1
  Te  Te119  1  0.73634452  0.23184197  0.91030453  1
  Te  Te120  1  0.71859002  0.59625947  0.26004778  1
  Te  Te121  1  0.72917645  0.59135477  0.60023734  1
  Te  Te122  1  0.75740210  0.55719841  0.92012149  1
  Te  Te123  1  0.75041724  0.92135582  0.22683116  1
  Te  Te124  1  0.74980025  0.91910564  0.57725807  1
  Te  Te125  1  0.76088278  0.92868096  0.88244314  1
  Te  Te126  1  0.24727644  0.25816400  0.10635374  1
  Te  Te127  1  0.25261348  0.23151313  0.42257189  1
  Te  Te128  1  0.24722824  0.26289427  0.73074330  1
  Te  Te129  1  0.23933876  0.58953876  0.07994908  1
  Te  Te130  1  0.27886931  0.59838092  0.37819177  1
  Te  Te131  1  0.26075293  0.56209666  0.75458817  1
  Te  Te132  1  0.27928576  0.90510808  0.08262970  1
  Te  Te133  1  0.24781743  0.93198444  0.46335071  1
  Te  Te134  1  0.25896052  0.93767064  0.73531301  1
  Te  Te135  1  0.57371839  0.24583513  0.08023329  1
  Te  Te136  1  0.60554407  0.23906302  0.41240706  1
  Te  Te137  1  0.57777707  0.23439370  0.76257527  1
  Te  Te138  1  0.56289733  0.57037578  0.07165712  1
  Te  Te139  1  0.57521327  0.57430989  0.43428814  1
  Te  Te140  1  0.59695739  0.59951802  0.72389777  1
  Te  Te141  1  0.58346156  0.92163153  0.07843295  1
  Te  Te142  1  0.54084856  0.90942894  0.39627373  1
  Te  Te143  1  0.58204748  0.94379260  0.68796324  1
  Te  Te144  1  0.89702106  0.24590166  0.11105079  1
  Te  Te145  1  0.92225955  0.24677803  0.42339471  1
  Te  Te146  1  0.90739105  0.24713366  0.74161600  1
  Te  Te147  1  0.91246234  0.56464753  0.08281737  1
  Te  Te148  1  0.88580418  0.57790085  0.43427324  1
  Te  Te149  1  0.91575704  0.60193375  0.74292786  1
  Te  Te150  1  0.91496510  0.91363083  0.06605371  1
  Te  Te151  1  0.91868994  0.90940487  0.41294101  1
  Te  Te152  1  0.93011271  0.93508455  0.73310725  1
  Te  Te153  1  0.26174427  0.05944797  0.27243957  1
  Te  Te154  1  0.24636314  0.08123804  0.63000584  1
  Te  Te155  1  0.23628605  0.08256516  0.91269792  1
  Te  Te156  1  0.24244701  0.42340727  0.23863606  1
  Te  Te157  1  0.23726077  0.41208132  0.56512102  1
  Te  Te158  1  0.25841514  0.40422474  0.91196055  1
  Te  Te159  1  0.26686520  0.77503934  0.24529870  1
  Te  Te160  1  0.25315699  0.74836720  0.57727336  1
  Te  Te161  1  0.27630588  0.76029073  0.91048755  1
  Te  Te162  1  0.56304622  0.08084629  0.24202714  1
  Te  Te163  1  0.57980373  0.04580972  0.56804667  1
  Te  Te164  1  0.58409133  0.06118884  0.86716742  1
  Te  Te165  1  0.59424155  0.40220856  0.26838758  1
  Te  Te166  1  0.56778195  0.40959105  0.60815368  1
  Te  Te167  1  0.56768415  0.40530356  0.93113651  1
  Te  Te168  1  0.54447024  0.73424428  0.27854843  1
  Te  Te169  1  0.55685632  0.75809932  0.58620852  1
  Te  Te170  1  0.59565189  0.75054052  0.91222309  1
  Te  Te171  1  0.92560041  0.08011069  0.25854296  1
  Te  Te172  1  0.91038116  0.09539891  0.59868965  1
  Te  Te173  1  0.91875294  0.07868285  0.89534091  1
  Te  Te174  1  0.92334926  0.41320338  0.26924340  1
  Te  Te175  1  0.93601026  0.42416960  0.57471821  1
  Te  Te176  1  0.92497585  0.40295566  0.94581749  1
  Te  Te177  1  0.91248271  0.75077696  0.25658085  1
  Te  Te178  1  0.88685380  0.74600308  0.56333017  1
  Te  Te179  1  0.92202312  0.74366055  0.92197998  1
