# generated using pymatgen
data_In2Te3
_symmetry_space_group_name_H-M   'P 1'
_cell_length_a   18.92185130
_cell_length_b   18.92551229
_cell_length_c   18.93588002
_cell_angle_alpha   90.04594543
_cell_angle_beta   89.98639706
_cell_angle_gamma   90.18712562
_symmetry_Int_Tables_number   1
_chemical_formula_structural   In2Te3
_chemical_formula_sum   'In72 Te108'
_cell_volume   6781.00859261
_cell_formula_units_Z   36
loop_
 _symmetry_equiv_pos_site_id
 _symmetry_equiv_pos_as_xyz
  1  'x, y, z'
loop_
 _atom_site_type_symbol
 _atom_site_label
 _atom_site_symmetry_multiplicity
 _atom_site_fract_x
 _atom_site_fract_y
 _atom_site_fract_z
 _atom_site_occupancy
  In  In0  1  -0.01831749  0.66572373  -0.01350756  1
  In  In1  1  0.18547940  0.50504870  0.66501315  1
  In  In2  1  0.81069464  0.85098960  0.07543063  1
  In  In3  1  0.00120103  -0.00530311  0.32942528  1
  In  In4  1  0.48871138  0.52266151  0.34880954  1
  In  In5  1  0.16112283  0.32180474  0.14905032  1
  In  In6  1  0.83087878  0.17315698  0.68492381  1
  In  In7  1  0.50859096  0.82028058  0.01496798  1
  In  In8  1  0.80904428  0.51584454  0.69574096  1
  In  In9  1  0.35960724  0.17639570  0.48818163  1
  In  In10  1  0.15562990  0.64384037  0.48065169  1
  In  In11  1  0.14777515  0.34388290  0.51645593  1
  In  In12  1  0.83106009  -0.01080517  0.84197658  1
  In  In13  1  0.81607370  0.31477156  0.50923842  1
  In  In14  1  0.83457011  0.17014542  0.34571161  1
  In  In15  1  0.65007637  0.00204003  -0.00108476  1
  In  In16  1  0.48464920  0.83712971  0.67166758  1
  In  In17  1  0.33137226  0.83712780  0.50495350  1
  In  In18  1  0.18180037  0.65970561  0.82085958  1
  In  In19  1  0.49379570  0.17080222  0.35678539  1
  In  In20  1  0.17778365  0.15172606  0.32556313  1
  In  In21  1  0.20772274  0.85540560  0.65972092  1
  In  In22  1  -0.01734947  0.32896737  -0.01186759  1
  In  In23  1  0.65873725  0.34711634  0.33258252  1
  In  In24  1  0.01369029  0.48916716  0.81179412  1
  In  In25  1  0.64413317  0.49720512  0.12447475  1
  In  In26  1  0.31456713  0.34103073  -0.03238368  1
  In  In27  1  0.19552575  0.15317377  -0.01419735  1
  In  In28  1  0.67289621  0.15750906  0.17165109  1
  In  In29  1  0.65266995  0.50344666  0.85603051  1
  In  In30  1  0.82406157  0.18161121  -0.02296742  1
  In  In31  1  0.34119132  0.02101027  0.68086787  1
  In  In32  1  0.18125760  0.00023344  0.49729349  1
  In  In33  1  0.52028704  0.31093675  0.81374505  1
  In  In34  1  0.14731040  0.83822134  -0.00455950  1
  In  In35  1  0.49820570  0.17315170  0.00752956  1
  In  In36  1  -0.00361378  0.17529634  0.17039886  1
  In  In37  1  0.81861913  0.66530446  0.18922349  1
  In  In38  1  0.68988973  0.82616050  0.48581457  1
  In  In39  1  0.33117911  0.50608685  0.49941210  1
  In  In40  1  0.49800001  0.00229458  0.85134564  1
  In  In41  1  0.35132492  0.65038047  -0.00710522  1
  In  In42  1  0.34963187  0.50383928  0.15196291  1
  In  In43  1  0.82990768  0.03671019  0.51536283  1
  In  In44  1  0.50416964  0.66717778  0.50533883  1
  In  In45  1  0.00863859  0.33482533  0.67638908  1
  In  In46  1  0.48848588  0.00683019  0.16683511  1
  In  In47  1  -0.00240681  0.85074157  0.84095574  1
  In  In48  1  0.34504799  0.33511677  0.31958824  1
  In  In49  1  0.63274238  0.03798300  0.64997853  1
  In  In50  1  0.19098241  0.66074880  0.16172522  1
  In  In51  1  -0.00859033  0.84305657  0.50579930  1
  In  In52  1  0.33344368  0.29098775  0.69911279  1
  In  In53  1  0.63219788  0.80797810  0.85258251  1
  In  In54  1  0.47813632  0.33862199  0.14195172  1
  In  In55  1  -0.00480686  0.67316777  0.30595144  1
  In  In56  1  0.31897140  0.83683083  0.17463115  1
  In  In57  1  0.16526144  0.00428024  0.17322709  1
  In  In58  1  -0.02448764  0.47455507  0.48696138  1
  In  In59  1  0.02902575  0.15630544  0.82118918  1
  In  In60  1  0.53262270  0.35650216  0.54683964  1
  In  In61  1  0.82737912  0.83887128  0.68034843  1
  In  In62  1  -0.03359970  0.82590814  0.17053331  1
  In  In63  1  0.00406960  0.48293255  0.17157643  1
  In  In64  1  0.84653058  0.49546439  0.32067189  1
  In  In65  1  0.00286814  0.69201673  0.65330574  1
  In  In66  1  0.80236519  0.36266872  0.83026452  1
  In  In67  1  0.64087643  0.61314161  0.65403595  1
  In  In68  1  0.79628766  0.64639918  0.84793704  1
  In  In69  1  0.35133829  0.68023078  0.68763419  1
  In  In70  1  0.53250108  0.80716035  0.32251114  1
  In  In71  1  0.69668155  -0.03246522  0.32467391  1
  Te  Te72  1  0.08718858  0.09483843  0.08065698  1
  Te  Te73  1  0.07944792  0.08608616  0.42089102  1
  Te  Te74  1  0.13526237  0.07756228  0.75335711  1
  Te  Te75  1  0.08469489  0.41701411  0.05979842  1
  Te  Te76  1  0.09834930  0.43878480  0.41685590  1
  Te  Te77  1  0.12709148  0.39554087  0.76292889  1
  Te  Te78  1  0.07418144  0.73846451  0.08720521  1
  Te  Te79  1  0.07147453  0.75137806  0.41499763  1
  Te  Te80  1  0.09519887  0.76498787  0.75055567  1
  Te  Te81  1  0.41034611  0.06206615  0.05364834  1
  Te  Te82  1  0.38882599  0.07080740  0.38814488  1
  Te  Te83  1  0.44459779  0.09790227  0.75326740  1
  Te  Te84  1  0.42096403  0.43149780  0.03874773  1
  Te  Te85  1  0.42722611  0.40164473  0.43588294  1
  Te  Te86  1  0.42297774  0.39763819  0.74476682  1
  Te  Te87  1  0.41183601  0.73990661  0.10063820  1
  Te  Te88  1  0.41899641  0.75213209  0.41584833  1
  Te  Te89  1  0.41774010  0.76958236  0.78570381  1
  Te  Te90  1  0.75784823  0.08093204  0.07253707  1
  Te  Te91  1  0.72772631  0.08787316  0.41629063  1
  Te  Te92  1  0.73945141  0.07465393  0.75716061  1
  Te  Te93  1  0.76103306  0.43847490  0.06395448  1
  Te  Te94  1  0.75406273  0.42223912  0.42279050  1
  Te  Te95  1  0.70135241  0.40771521  0.72156057  1
  Te  Te96  1  0.72690653  0.72910609  0.09017018  1
  Te  Te97  1  0.71738824  0.74422815  0.36538843  1
  Te  Te98  1  0.73023184  0.74398491  0.75052787  1
  Te  Te99  1  0.08533473  0.25568120  0.26307056  1
  Te  Te100  1  0.07800542  0.23925338  0.59047773  1
  Te  Te101  1  0.09379628  0.24996240  0.92273481  1
  Te  Te102  1  0.09528480  0.57596197  0.24983663  1
  Te  Te103  1  0.06559995  0.56671578  0.59063101  1
  Te  Te104  1  0.08401685  0.58324911  0.90965828  1
  Te  Te105  1  0.08103741  0.89985420  0.24430791  1
  Te  Te106  1  0.08874056  0.92162988  0.59208446  1
  Te  Te107  1  0.09206299  0.94143207  0.90641812  1
  Te  Te108  1  0.42106934  0.23389319  0.23624533  1
  Te  Te109  1  0.44829605  0.23463784  0.60021771  1
  Te  Te110  1  0.41080084  0.24219952  0.90557054  1
  Te  Te111  1  0.41586212  0.59635016  0.24539227  1
  Te  Te112  1  0.42134351  0.57878045  0.59726431  1
  Te  Te113  1  0.45161769  0.60999659  0.89188663  1
  Te  Te114  1  0.42886534  0.90221234  0.25868060  1
  Te  Te115  1  0.42156458  0.93488437  0.57603871  1
  Te  Te116  1  0.42163182  0.92180918  0.94925915  1
  Te  Te117  1  0.75205217  0.25986289  0.25184795  1
  Te  Te118  1  0.72439714  0.23174320  0.59484501  1
  Te  Te119  1  0.72472557  0.26518615  0.90905791  1
  Te  Te120  1  0.73185271  0.55269227  0.24219487  1
  Te  Te121  1  0.76162781  0.58638072  0.57461350  1
  Te  Te122  1  0.75628115  0.55152215  0.95828379  1
  Te  Te123  1  0.77089902  0.91912634  0.20912599  1
  Te  Te124  1  0.74151711  0.93248752  0.59239327  1
  Te  Te125  1  0.73768137  0.89757237  0.92270415  1
  Te  Te126  1  0.27112536  0.24440338  0.08183481  1
  Te  Te127  1  0.24968116  0.26128117  0.41288263  1
  Te  Te128  1  0.23590309  0.20037813  0.76633075  1
  Te  Te129  1  0.24410393  0.56332945  0.05809984  1
  Te  Te130  1  0.26115995  0.58467700  0.39861522  1
  Te  Te131  1  0.28444410  0.56141417  0.76803309  1
  Te  Te132  1  0.24690679  0.92379487  0.07325122  1
  Te  Te133  1  0.23539378  0.89515187  0.41161385  1
  Te  Te134  1  0.29755534  0.90389316  0.76449648  1
  Te  Te135  1  0.59649851  0.25810073  0.08811774  1
  Te  Te136  1  0.58648824  0.26297482  0.43537972  1
  Te  Te137  1  0.62417813  0.27177307  0.71161348  1
  Te  Te138  1  0.56620468  0.60825361  0.07421211  1
  Te  Te139  1  0.59643089  0.60382326  0.40884227  1
  Te  Te140  1  0.55738159  0.58925484  0.77605296  1
  Te  Te141  1  0.59023850  0.91235365  0.10479517  1
  Te  Te142  1  0.58675791  0.91475351  0.41759265  1
  Te  Te143  1  0.58988151  0.92012951  0.75255960  1
  Te  Te144  1  0.89742959  0.25752072  0.08988155  1
  Te  Te145  1  0.92169038  0.25281889  0.42991603  1
  Te  Te146  1  0.91641451  0.26315244  0.77806974  1
  Te  Te147  1  0.91954881  0.59001413  0.10207012  1
  Te  Te148  1  0.91783297  0.59359482  0.41246303  1
  Te  Te149  1  0.92310532  0.60609724  0.75525855  1
  Te  Te150  1  0.94018809  0.91806681  0.05980447  1
  Te  Te151  1  0.90033175  0.93321297  0.42572012  1
  Te  Te152  1  0.92895839  0.93705276  0.73578172  1
  Te  Te153  1  0.27352273  0.07309032  0.24789268  1
  Te  Te154  1  0.26079952  0.10064674  0.57742186  1
  Te  Te155  1  0.24632038  0.07918790  0.86718200  1
  Te  Te156  1  0.25326547  0.41475403  0.23084281  1
  Te  Te157  1  0.27177526  0.39362588  0.59411923  1
  Te  Te158  1  0.24443395  0.42038120  0.86706755  1
  Te  Te159  1  0.23901249  0.75221722  0.26529100  1
  Te  Te160  1  0.24126438  0.72371678  0.58756815  1
  Te  Te161  1  0.24701801  0.74528131  0.92804137  1
  Te  Te162  1  0.58691854  0.07556238  0.26583104  1
  Te  Te163  1  0.52653807  0.10141026  0.57335437  1
  Te  Te164  1  0.59540070  0.10824044  0.90875250  1
  Te  Te165  1  0.55177444  0.41741785  0.25049606  1
  Te  Te166  1  0.60891793  0.47857645  0.58178079  1
  Te  Te167  1  0.57715968  0.39623022  0.92174845  1
  Te  Te168  1  0.63970819  0.75396109  0.23482350  1
  Te  Te169  1  0.59065671  0.76243868  0.58959138  1
  Te  Te170  1  0.58314441  0.69827752  0.94838821  1
  Te  Te171  1  0.90700174  0.07885193  0.24598767  1
  Te  Te172  1  0.92853492  0.09799122  0.60436347  1
  Te  Te173  1  0.92419173  0.08794384  0.91167238  1
  Te  Te174  1  0.92454357  0.39176412  0.25397458  1
  Te  Te175  1  0.89766386  0.41440530  0.61035059  1
  Te  Te176  1  0.91061934  0.43731085  0.91047384  1
  Te  Te177  1  0.87979470  0.77135707  0.28523058  1
  Te  Te178  1  0.88861911  0.75059771  0.57126717  1
  Te  Te179  1  0.89569162  0.75543798  0.90125423  1
