# generated using pymatgen
data_In2Te3
_symmetry_space_group_name_H-M   'P 1'
_cell_length_a   18.94948546
_cell_length_b   18.94386977
_cell_length_c   18.95801404
_cell_angle_alpha   90.04381157
_cell_angle_beta   90.02836880
_cell_angle_gamma   90.06540625
_symmetry_Int_Tables_number   1
_chemical_formula_structural   In2Te3
_chemical_formula_sum   'In72 Te108'
_cell_volume   6805.47587317
_cell_formula_units_Z   36
loop_
 _symmetry_equiv_pos_site_id
 _symmetry_equiv_pos_as_xyz
  1  'x, y, z'
loop_
 _atom_site_type_symbol
 _atom_site_label
 _atom_site_symmetry_multiplicity
 _atom_site_fract_x
 _atom_site_fract_y
 _atom_site_fract_z
 _atom_site_occupancy
  In  In0  1  0.66708715  0.48400327  0.82765658  1
  In  In1  1  0.33885952  0.49456131  0.18679367  1
  In  In2  1  0.33127624  0.31567162  -0.02415083  1
  In  In3  1  0.83120525  -0.01225762  0.83222466  1
  In  In4  1  0.33977606  -0.00601703  -0.00748657  1
  In  In5  1  0.49142781  0.82282532  0.32223269  1
  In  In6  1  0.33220875  0.17156120  0.52215618  1
  In  In7  1  0.30329638  0.84164102  0.80362154  1
  In  In8  1  -0.01664216  0.65822769  0.30777617  1
  In  In9  1  0.67703241  0.18608672  0.18567161  1
  In  In10  1  0.66894857  0.50471806  0.50515358  1
  In  In11  1  0.53018078  0.48762836  0.33937021  1
  In  In12  1  0.49974700  0.16850188  0.66136835  1
  In  In13  1  0.83525718  0.00081781  0.14982715  1
  In  In14  1  0.33120225  0.50121809  0.84900871  1
  In  In15  1  0.84154429  0.49937937  0.66662105  1
  In  In16  1  0.63713416  -0.00968697  -0.01961541  1
  In  In17  1  0.16390823  -0.00134811  0.14554535  1
  In  In18  1  0.14847841  0.48808917  0.35810662  1
  In  In19  1  0.45852300  0.64369068  0.55684843  1
  In  In20  1  0.15926545  0.14961848  0.70086541  1
  In  In21  1  0.33189416  0.81350673  0.56838963  1
  In  In22  1  0.16285702  0.35049834  0.51223258  1
  In  In23  1  -0.00640718  0.33270908  0.66661337  1
  In  In24  1  0.48937618  0.32441886  0.82338037  1
  In  In25  1  0.32110133  0.14860867  0.14670942  1
  In  In26  1  -0.00060704  0.68911459  -0.01618954  1
  In  In27  1  0.16446196  0.86254856  0.34391818  1
  In  In28  1  0.52404762  0.66914526  0.14946993  1
  In  In29  1  0.00589348  0.01825443  0.32079273  1
  In  In30  1  0.51091971  0.32798793  0.17527212  1
  In  In31  1  0.82998359  0.00522336  0.48138553  1
  In  In32  1  0.02480131  0.83727176  0.81332479  1
  In  In33  1  -0.00768796  0.47680475  0.49467933  1
  In  In34  1  0.50345448  0.81565919  -0.00947186  1
  In  In35  1  0.15013214  0.15281757  -0.00470295  1
  In  In36  1  0.84582179  0.83760223  0.31065518  1
  In  In37  1  0.68341696  0.81116457  0.12524542  1
  In  In38  1  0.83922986  0.64337705  0.83576053  1
  In  In39  1  0.83397721  0.15848090  0.66596891  1
  In  In40  1  0.48072529  0.00081832  0.51125362  1
  In  In41  1  0.66481482  0.81371554  0.49086729  1
  In  In42  1  0.87346540  0.33769049  0.87127929  1
  In  In43  1  0.68375220  0.63703512  0.34204449  1
  In  In44  1  0.32631193  0.67951159  0.33183761  1
  In  In45  1  0.15060926  0.02374739  0.53378965  1
  In  In46  1  0.86785632  0.82174062  0.66219777  1
  In  In47  1  0.83227316  0.47050077  0.32326446  1
  In  In48  1  0.32621414  0.69001111  -0.01620061  1
  In  In49  1  0.35494100  0.35470420  0.34638876  1
  In  In50  1  0.15950955  0.31934195  0.84332698  1
  In  In51  1  0.66990573  0.81860379  0.85208119  1
  In  In52  1  -0.03035709  0.18843892  0.48381340  1
  In  In53  1  0.67662635  0.33653143  0.64822292  1
  In  In54  1  0.18295971  0.49500313  0.68156698  1
  In  In55  1  0.00006912  0.52368531  0.14252482  1
  In  In56  1  0.67165229  0.02017523  0.33653595  1
  In  In57  1  0.66886709  0.64732948  0.66587290  1
  In  In58  1  0.17168493  0.65091894  0.49708035  1
  In  In59  1  0.13714303  0.53151942  0.01601413  1
  In  In60  1  0.83923417  0.18584564  0.03447008  1
  In  In61  1  0.12387973  0.35971110  0.14362666  1
  In  In62  1  0.53711977  0.21456063  0.33304592  1
  In  In63  1  0.65513405  -0.01204385  0.66836646  1
  In  In64  1  -0.01151667  -0.01382893  -0.01582596  1
  In  In65  1  0.16308041  0.69925286  0.15225087  1
  In  In66  1  0.48516038  0.51026325  -0.01337239  1
  In  In67  1  0.03740409  0.83882394  0.51609105  1
  In  In68  1  0.71153047  0.34151517  0.03481416  1
  In  In69  1  0.16281333  0.19460664  0.30429567  1
  In  In70  1  0.35189722  0.17119970  0.81408341  1
  In  In71  1  0.34674231  -0.00909249  0.35562485  1
  Te  Te72  1  0.05329393  0.08301595  0.08846031  1
  Te  Te73  1  0.09033749  0.10408775  0.41452523  1
  Te  Te74  1  0.07294446  0.05809123  0.77205530  1
  Te  Te75  1  0.03436634  0.41227506  0.03161762  1
  Te  Te76  1  0.05795080  0.37439871  0.40392107  1
  Te  Te77  1  0.07518731  0.41617880  0.76181064  1
  Te  Te78  1  0.09501858  0.78070159  0.05260378  1
  Te  Te79  1  0.08874664  0.73986849  0.39864045  1
  Te  Te80  1  0.09827467  0.76469892  0.70672027  1
  Te  Te81  1  0.42671611  0.07351247  0.08197317  1
  Te  Te82  1  0.42597577  0.10777814  0.41589163  1
  Te  Te83  1  0.44477274  0.06848635  0.75861651  1
  Te  Te84  1  0.40727343  0.40559708  0.08283203  1
  Te  Te85  1  0.45596774  0.40652405  0.43886492  1
  Te  Te86  1  0.40033942  0.41634345  0.75023978  1
  Te  Te87  1  0.41103523  0.75178189  0.09591473  1
  Te  Te88  1  0.39992439  0.76742004  0.43125614  1
  Te  Te89  1  0.38920887  0.76847400  0.70359086  1
  Te  Te90  1  0.72697625  0.08219115  0.07652144  1
  Te  Te91  1  0.73755393  0.10937707  0.43231094  1
  Te  Te92  1  0.73861025  0.08049643  0.75609736  1
  Te  Te93  1  0.72788649  0.44900098  0.13571276  1
  Te  Te94  1  0.73354460  0.40225140  0.41783095  1
  Te  Te95  1  0.77620548  0.39756364  0.76060891  1
  Te  Te96  1  0.78367103  0.70800695  0.11496008  1
  Te  Te97  1  0.77158488  0.74538111  0.40771950  1
  Te  Te98  1  0.75330591  0.75044740  0.74190089  1
  Te  Te99  1  0.06174798  0.24591695  0.21233169  1
  Te  Te100  1  0.08984152  0.24169912  0.58992200  1
  Te  Te101  1  0.06117478  0.23862568  0.91607908  1
  Te  Te102  1  0.10965249  0.58590311  0.24671050  1
  Te  Te103  1  0.08201834  0.55951499  0.58119121  1
  Te  Te104  1  0.08734542  0.60380865  0.89838855  1
  Te  Te105  1  0.07157543  0.91220539  0.23527020  1
  Te  Te106  1  0.12116546  0.90236862  0.62819520  1
  Te  Te107  1  0.09510985  0.95131325  0.88380364  1
  Te  Te108  1  0.39924821  0.24765038  0.24721694  1
  Te  Te109  1  0.42218561  0.26758063  0.58522247  1
  Te  Te110  1  0.43890537  0.22383178  0.92945547  1
  Te  Te111  1  0.43285974  0.58784061  0.26101876  1
  Te  Te112  1  0.37266738  0.54674868  0.62369749  1
  Te  Te113  1  0.42428749  0.61539821  0.89587471  1
  Te  Te114  1  0.41431606  0.92126161  0.24664260  1
  Te  Te115  1  0.43674351  0.90849904  0.61749176  1
  Te  Te116  1  0.41258133  0.89582600  0.90246145  1
  Te  Te117  1  0.78135985  0.26246592  0.25752581  1
  Te  Te118  1  0.75519642  0.23897153  0.57093656  1
  Te  Te119  1  0.75793686  0.25188426  0.92075814  1
  Te  Te120  1  0.76966362  0.57860385  0.23554579  1
  Te  Te121  1  0.77275246  0.59469977  0.57019657  1
  Te  Te122  1  0.75274474  0.56005191  0.92167772  1
  Te  Te123  1  0.73486774  0.91761272  0.24293403  1
  Te  Te124  1  0.75629116  0.90661318  0.57916675  1
  Te  Te125  1  0.75731192  0.90752223  0.93767721  1
  Te  Te126  1  0.23392782  0.25672118  0.08491236  1
  Te  Te127  1  0.25201865  0.25731500  0.42044943  1
  Te  Te128  1  0.25446990  0.26211375  0.74029425  1
  Te  Te129  1  0.26594628  0.58852368  0.09219050  1
  Te  Te130  1  0.26851573  0.56615971  0.41445306  1
  Te  Te131  1  0.22362651  0.58605877  0.79162280  1
  Te  Te132  1  0.24128484  0.90786311  0.06207155  1
  Te  Te133  1  0.24685644  0.92981789  0.45203763  1
  Te  Te134  1  0.23809490  0.94785228  0.72193592  1
  Te  Te135  1  0.59230450  0.24873643  0.07630331  1
  Te  Te136  1  0.60760562  0.30702512  0.42009548  1
  Te  Te137  1  0.59691804  0.25044366  0.74603813  1
  Te  Te138  1  0.58776657  0.55649106  0.08220062  1
  Te  Te139  1  0.56621088  0.60411196  0.43722662  1
  Te  Te140  1  0.57485875  0.57042166  0.74957586  1
  Te  Te141  1  0.57340957  0.90765289  0.09087095  1
  Te  Te142  1  0.58013267  0.91837530  0.41804367  1
  Te  Te143  1  0.58053138  0.90839470  0.77135246  1
  Te  Te144  1  0.84385005  0.30858216  0.12103461  1
  Te  Te145  1  0.88923894  0.21980975  0.36566173  1
  Te  Te146  1  0.92294198  0.23761556  0.75997568  1
  Te  Te147  1  0.90277730  0.59563412  0.05397162  1
  Te  Te148  1  0.91247157  0.57381750  0.40928285  1
  Te  Te149  1  0.93470520  0.57870305  0.74684314  1
  Te  Te150  1  0.91257091  0.90105723  0.07734273  1
  Te  Te151  1  0.93785484  0.91133109  0.41642630  1
  Te  Te152  1  0.93238862  0.93911839  0.73057973  1
  Te  Te153  1  0.24328144  0.07115443  0.26246147  1
  Te  Te154  1  0.27370341  0.07109547  0.61968214  1
  Te  Te155  1  0.25995074  0.09469385  0.91004607  1
  Te  Te156  1  0.23431920  0.40617807  0.25221746  1
  Te  Te157  1  0.26969432  0.43709219  0.57195559  1
  Te  Te158  1  0.23052265  0.42437831  0.94128895  1
  Te  Te159  1  0.25120185  0.78023502  0.24816576  1
  Te  Te160  1  0.22466746  0.71981015  0.61964823  1
  Te  Te161  1  0.22836787  0.76662753  0.90693897  1
  Te  Te162  1  0.57219640  0.09264496  0.24878160  1
  Te  Te163  1  0.59135056  0.08587500  0.57100648  1
  Te  Te164  1  0.56412360  0.04112219  0.86403162  1
  Te  Te165  1  0.61525724  0.41475304  0.23993186  1
  Te  Te166  1  0.59013030  0.45375112  0.62021978  1
  Te  Te167  1  0.57437167  0.40517123  0.92091981  1
  Te  Te168  1  0.60417379  0.74362784  0.25737241  1
  Te  Te169  1  0.57727437  0.74208807  0.59006336  1
  Te  Te170  1  0.60329122  0.72144937  0.93889135  1
  Te  Te171  1  0.89142817  0.08906748  0.25710151  1
  Te  Te172  1  0.92865850  0.07604661  0.57418053  1
  Te  Te173  1  0.89382462  0.08953574  0.92696050  1
  Te  Te174  1  0.94500029  0.42626990  0.23808988  1
  Te  Te175  1  0.89375186  0.39056788  0.56895281  1
  Te  Te176  1  0.89541554  0.45416234  0.95937046  1
  Te  Te177  1  0.91816835  0.75103925  0.21245218  1
  Te  Te178  1  0.94495217  0.73909101  0.57022066  1
  Te  Te179  1  0.91153363  0.76839625  0.88807119  1
