# generated using pymatgen
data_In2Te3
_symmetry_space_group_name_H-M   'P 1'
_cell_length_a   18.93242763
_cell_length_b   18.96312479
_cell_length_c   18.92850566
_cell_angle_alpha   89.85046877
_cell_angle_beta   90.02736532
_cell_angle_gamma   89.91356178
_symmetry_Int_Tables_number   1
_chemical_formula_structural   In2Te3
_chemical_formula_sum   'In72 Te108'
_cell_volume   6795.64234917
_cell_formula_units_Z   36
loop_
 _symmetry_equiv_pos_site_id
 _symmetry_equiv_pos_as_xyz
  1  'x, y, z'
loop_
 _atom_site_type_symbol
 _atom_site_label
 _atom_site_symmetry_multiplicity
 _atom_site_fract_x
 _atom_site_fract_y
 _atom_site_fract_z
 _atom_site_occupancy
  In  In0  1  0.53027885  0.47331857  0.29938362  1
  In  In1  1  0.01169325  0.49134752  0.15751656  1
  In  In2  1  0.00098192  0.84565231  0.49014990  1
  In  In3  1  0.47456860  -0.02289772  0.19278239  1
  In  In4  1  0.17179049  0.84283375  0.01359980  1
  In  In5  1  0.67546828  0.47903048  0.51026420  1
  In  In6  1  0.82774587  0.83510976  0.69419521  1
  In  In7  1  0.66164646  0.82706099  0.84671085  1
  In  In8  1  0.82862385  0.49437247  0.00586340  1
  In  In9  1  0.33454401  0.31967003  0.65853813  1
  In  In10  1  0.65979588  0.31116269  0.67390635  1
  In  In11  1  0.17197539  0.34089820  0.15046139  1
  In  In12  1  0.16749189  0.81441063  0.67444628  1
  In  In13  1  0.65098671  -0.01985488  0.01547206  1
  In  In14  1  0.83131105  0.33887013  0.81957672  1
  In  In15  1  0.50417822  0.15589309  0.34275656  1
  In  In16  1  0.14423310  0.66670945  0.51989331  1
  In  In17  1  0.01127844  0.66512818  0.68222737  1
  In  In18  1  0.49058215  0.67602764  0.49319814  1
  In  In19  1  0.49061627  0.66761208  0.84250851  1
  In  In20  1  0.17043206  0.51998370  -0.06542005  1
  In  In21  1  0.14694939  0.49016118  0.32641546  1
  In  In22  1  0.00708951  0.02883664  0.00342409  1
  In  In23  1  0.34843215  0.31990899  0.31800073  1
  In  In24  1  0.50381156  0.48786432  0.00027449  1
  In  In25  1  0.68544569  0.33102094  -0.00417238  1
  In  In26  1  0.65139708  0.67274099  0.33909750  1
  In  In27  1  0.49297610  0.68466541  0.17076888  1
  In  In28  1  0.83285111  0.18494495  0.31713545  1
  In  In29  1  0.29419926  0.64557430  0.69003226  1
  In  In30  1  0.82929755  0.66764295  0.17456231  1
  In  In31  1  0.85588324  0.00802383  0.49797912  1
  In  In32  1  0.17544192  0.15306381  0.34243368  1
  In  In33  1  0.18672027  0.85849557  0.35119266  1
  In  In34  1  0.85933466  0.81225017  -0.03485976  1
  In  In35  1  0.66573255  0.18266403  0.50334516  1
  In  In36  1  0.01118323  0.35389248  0.65843171  1
  In  In37  1  -0.01355665  0.32741488  0.33552559  1
  In  In38  1  0.31728131  0.03207759  0.61906081  1
  In  In39  1  0.67766252  -0.01588779  0.32143185  1
  In  In40  1  0.32513521  0.17527183  0.16338745  1
  In  In41  1  0.01431183  0.00992480  0.34340390  1
  In  In42  1  0.30587645  0.18908450  0.82756173  1
  In  In43  1  0.84225161  0.49691758  0.63843678  1
  In  In44  1  0.68250023  0.18340874  0.16416688  1
  In  In45  1  -0.01140482  0.83124009  0.17784327  1
  In  In46  1  0.49018335  0.01518217  0.50353160  1
  In  In47  1  0.02001487  0.18458884  0.84460190  1
  In  In48  1  0.83750838  0.50953005  0.34870982  1
  In  In49  1  -0.00881454  0.49540468  0.82904861  1
  In  In50  1  0.17233333  0.33634225  0.50045489  1
  In  In51  1  0.49225699  0.17605329  0.66570547  1
  In  In52  1  0.33260561  0.47969809  0.48992243  1
  In  In53  1  0.36191846  0.51660218  0.15766407  1
  In  In54  1  0.32462992  0.69049881  0.35208359  1
  In  In55  1  0.49267143  0.48746815  0.67231927  1
  In  In56  1  0.85303989  0.18538429  -0.01300682  1
  In  In57  1  0.83401899  0.00347882  0.17418606  1
  In  In58  1  0.67479114  0.65737106  0.01696346  1
  In  In59  1  0.33233919  0.66687174  0.00526767  1
  In  In60  1  -0.00148732  -0.01299684  0.65855573  1
  In  In61  1  0.65461779  0.83089883  0.51014275  1
  In  In62  1  0.33478250  -0.00194845  -0.02179995  1
  In  In63  1  0.83264425  0.66391414  0.49801890  1
  In  In64  1  0.66211828  0.50991994  0.85680397  1
  In  In65  1  0.02645922  0.20327158  0.08307394  1
  In  In66  1  0.16240826  -0.00504672  0.83031226  1
  In  In67  1  0.16126433  0.66538248  0.17376734  1
  In  In68  1  0.49745666  -0.00729250  0.81476566  1
  In  In69  1  0.33226182  0.82862975  0.84367921  1
  In  In70  1  0.69781219  0.01444900  0.70475245  1
  In  In71  1  0.48598698  0.16292958  -0.03229901  1
  Te  Te72  1  0.09905754  0.07867008  0.10591103  1
  Te  Te73  1  0.10039770  0.07383066  0.44801054  1
  Te  Te74  1  0.08149338  0.08707982  0.74475937  1
  Te  Te75  1  0.09640942  0.42716657  0.05317675  1
  Te  Te76  1  0.06532077  0.41920690  0.42966108  1
  Te  Te77  1  0.09417661  0.39691553  0.77855160  1
  Te  Te78  1  0.07334688  0.74792859  0.08231749  1
  Te  Te79  1  0.08930024  0.75354156  0.40826560  1
  Te  Te80  1  0.07527667  0.76027034  0.77705030  1
  Te  Te81  1  0.42519188  0.07643549  0.08023257  1
  Te  Te82  1  0.39321864  0.07854789  0.40654663  1
  Te  Te83  1  0.39340396  0.08238243  0.75063145  1
  Te  Te84  1  0.41393732  0.40398847  0.08163834  1
  Te  Te85  1  0.43535351  0.40962690  0.40390595  1
  Te  Te86  1  0.40512258  0.40619029  0.75585534  1
  Te  Te87  1  0.39533634  0.76338739  0.09446677  1
  Te  Te88  1  0.42547627  0.78175441  0.41049057  1
  Te  Te89  1  0.40249528  0.74008981  0.74210547  1
  Te  Te90  1  0.75899404  0.08597317  0.06741399  1
  Te  Te91  1  0.74982605  0.08520184  0.40827203  1
  Te  Te92  1  0.77723690  0.09766653  0.79161002  1
  Te  Te93  1  0.72598568  0.43352351  0.09576495  1
  Te  Te94  1  0.77250070  0.40393734  0.43065353  1
  Te  Te95  1  0.73798893  0.43346949  0.74522615  1
  Te  Te96  1  0.76382186  0.76409886  0.07516906  1
  Te  Te97  1  0.74994397  0.75986904  0.41505598  1
  Te  Te98  1  0.74445474  0.73827198  0.76408992  1
  Te  Te99  1  0.10323671  0.26324678  0.26041362  1
  Te  Te100  1  0.09718395  0.24761708  0.59416518  1
  Te  Te101  1  0.09042712  0.24705520  0.95723282  1
  Te  Te102  1  0.05919344  0.59399001  0.26005170  1
  Te  Te103  1  0.08226255  0.56434378  0.60334945  1
  Te  Te104  1  0.04526914  0.60111117  0.92160617  1
  Te  Te105  1  0.09069497  0.91987216  0.24839890  1
  Te  Te106  1  0.10556909  0.91242922  0.57636550  1
  Te  Te107  1  0.07375665  0.91686682  0.92326604  1
  Te  Te108  1  0.44374416  0.24438213  0.23073909  1
  Te  Te109  1  0.41181872  0.23938436  0.56232656  1
  Te  Te110  1  0.39945877  0.26620394  0.91034087  1
  Te  Te111  1  0.42017675  0.59011426  0.27720722  1
  Te  Te112  1  0.40025265  0.58079038  0.58332910  1
  Te  Te113  1  0.40437457  0.56749652  0.91561509  1
  Te  Te114  1  0.39765175  0.90936457  0.30000004  1
  Te  Te115  1  0.41388628  0.92634865  0.59264927  1
  Te  Te116  1  0.43862220  0.90203650  0.92169306  1
  Te  Te117  1  0.72881661  0.28108892  0.26656334  1
  Te  Te118  1  0.76111537  0.23626727  0.59994467  1
  Te  Te119  1  0.74331271  0.23408482  0.88924948  1
  Te  Te120  1  0.73713510  0.57905362  0.25623968  1
  Te  Te121  1  0.73438577  0.59423308  0.58878535  1
  Te  Te122  1  0.76915781  0.60019030  0.91356145  1
  Te  Te123  1  0.75486403  0.89648510  0.23368988  1
  Te  Te124  1  0.75875259  0.92501444  0.58205977  1
  Te  Te125  1  0.75629234  0.91713340  0.92164160  1
  Te  Te126  1  0.25830802  0.26093701  0.06296512  1
  Te  Te127  1  0.26678069  0.24712037  0.42193464  1
  Te  Te128  1  0.22297437  0.23664669  0.71393472  1
  Te  Te129  1  0.23735500  0.57102919  0.08141208  1
  Te  Te130  1  0.23731782  0.57767727  0.41640331  1
  Te  Te131  1  0.22617223  0.56700256  0.79504773  1
  Te  Te132  1  0.26822782  0.92456863  0.08650820  1
  Te  Te133  1  0.28971408  0.95191377  0.40414498  1
  Te  Te134  1  0.25998918  0.91852103  0.74316071  1
  Te  Te135  1  0.58543893  0.23782530  0.06180580  1
  Te  Te136  1  0.58294407  0.25924765  0.41055175  1
  Te  Te137  1  0.57494869  0.23791871  0.76822658  1
  Te  Te138  1  0.57544203  0.57891343  0.09860876  1
  Te  Te139  1  0.58107089  0.56609191  0.42394714  1
  Te  Te140  1  0.57900157  0.58409392  0.75284564  1
  Te  Te141  1  0.57553497  0.90095649  0.11422550  1
  Te  Te142  1  0.57794155  0.92335827  0.41697328  1
  Te  Te143  1  0.59291426  0.90647587  0.73590640  1
  Te  Te144  1  0.89599445  0.26586458  0.10165531  1
  Te  Te145  1  0.92805962  0.22342818  0.42095666  1
  Te  Te146  1  0.92965676  0.25493599  0.74385581  1
  Te  Te147  1  0.91986452  0.58794397  0.08213793  1
  Te  Te148  1  0.93350989  0.58108030  0.43388794  1
  Te  Te149  1  0.89931405  0.58469522  0.74649036  1
  Te  Te150  1  0.91677154  0.92020282  0.07153074  1
  Te  Te151  1  0.90731652  0.91335463  0.39206802  1
  Te  Te152  1  0.92951490  0.91164654  0.76414485  1
  Te  Te153  1  0.24859799  0.07692089  0.24023149  1
  Te  Te154  1  0.20488714  0.10499790  0.56118877  1
  Te  Te155  1  0.23206587  0.09324317  0.92161438  1
  Te  Te156  1  0.26282598  0.42939149  0.24972713  1
  Te  Te157  1  0.23970637  0.43140754  0.59747124  1
  Te  Te158  1  0.22907179  0.41029470  0.85454090  1
  Te  Te159  1  0.25067664  0.76454596  0.24307079  1
  Te  Te160  1  0.25948290  0.74651361  0.57462392  1
  Te  Te161  1  0.23350220  0.74192989  0.91631272  1
  Te  Te162  1  0.59209243  0.07978300  0.23492517  1
  Te  Te163  1  0.59753066  0.07821845  0.59976209  1
  Te  Te164  1  0.58995361  0.06910100  0.90688256  1
  Te  Te165  1  0.61846865  0.39247046  0.21747973  1
  Te  Te166  1  0.57102217  0.39509267  0.58187194  1
  Te  Te167  1  0.57853707  0.39566983  0.90562374  1
  Te  Te168  1  0.58589618  0.76869811  0.24790128  1
  Te  Te169  1  0.57582249  0.74026783  0.59276815  1
  Te  Te170  1  0.57484100  0.74455502  0.94154433  1
  Te  Te171  1  0.93211507  0.09341071  0.24510964  1
  Te  Te172  1  0.91890461  0.09451294  0.59580463  1
  Te  Te173  1  0.91249687  0.07994003  0.89216523  1
  Te  Te174  1  0.90957163  0.41932100  0.24259044  1
  Te  Te175  1  0.90182143  0.38762992  0.56277218  1
  Te  Te176  1  0.91753856  0.40202702  0.92636714  1
  Te  Te177  1  0.91240036  0.74465796  0.26745381  1
  Te  Te178  1  0.92309634  0.75862304  0.58721949  1
  Te  Te179  1  0.95566829  0.72796918  0.89352750  1
