# generated using pymatgen
data_In2Te3
_symmetry_space_group_name_H-M   'P 1'
_cell_length_a   19.05672391
_cell_length_b   19.00920555
_cell_length_c   19.09528827
_cell_angle_alpha   89.74378001
_cell_angle_beta   90.20212664
_cell_angle_gamma   90.25675398
_symmetry_Int_Tables_number   1
_chemical_formula_structural   In2Te3
_chemical_formula_sum   'In72 Te108'
_cell_volume   6917.14776149
_cell_formula_units_Z   36
loop_
 _symmetry_equiv_pos_site_id
 _symmetry_equiv_pos_as_xyz
  1  'x, y, z'
loop_
 _atom_site_type_symbol
 _atom_site_label
 _atom_site_symmetry_multiplicity
 _atom_site_fract_x
 _atom_site_fract_y
 _atom_site_fract_z
 _atom_site_occupancy
  In  In0  1  0.85865754  0.85626033  0.02198470  1
  In  In1  1  0.47730798  0.36027223  0.54587160  1
  In  In2  1  0.64446816  0.82864710  0.50653824  1
  In  In3  1  0.80159142  0.84343964  0.34833449  1
  In  In4  1  0.15437302  0.34340963  0.49629869  1
  In  In5  1  0.15310473  0.78666161  0.00776199  1
  In  In6  1  0.44569871  0.68808254  0.16799319  1
  In  In7  1  0.63328313  0.83987806  0.14042316  1
  In  In8  1  0.07916005  -0.07188650  0.67387972  1
  In  In9  1  -0.03958045  0.60210118  0.54425238  1
  In  In10  1  0.34100582  0.52949430  0.83680356  1
  In  In11  1  0.46247272  -0.02082185  0.84670857  1
  In  In12  1  0.01075683  0.34628119  0.33375892  1
  In  In13  1  0.81691878  0.14928163  -0.00977915  1
  In  In14  1  0.51824160  0.33208898  0.82224129  1
  In  In15  1  0.66776279  0.31911119  0.33271540  1
  In  In16  1  0.00794151  0.82816672  0.82126330  1
  In  In17  1  0.47985209  0.51189397  -0.03203697  1
  In  In18  1  0.83685674  0.52522537  0.00903935  1
  In  In19  1  0.50158124  0.15251872  -0.00854113  1
  In  In20  1  0.31983195  0.47705781  0.15778763  1
  In  In21  1  0.65001322  0.16862795  0.84288170  1
  In  In22  1  0.47529688  0.71158271  0.85309759  1
  In  In23  1  0.83857589  0.34602589  0.50611769  1
  In  In24  1  -0.01099446  0.51174353  0.85232476  1
  In  In25  1  0.00059627  0.00171380  0.32040730  1
  In  In26  1  -0.00453918  0.15552322  0.16900315  1
  In  In27  1  0.61909591  0.68804939  0.37295645  1
  In  In28  1  0.18545817  -0.02904341  0.83506628  1
  In  In29  1  -0.01622013  0.66950434  0.32053723  1
  In  In30  1  -0.00382407  0.33687003  0.65524534  1
  In  In31  1  0.68341500  0.16688414  0.16291466  1
  In  In32  1  0.31153366  0.32786907  0.66016726  1
  In  In33  1  0.51937126  0.49722626  0.68664738  1
  In  In34  1  0.51020280  0.53278349  0.36284028  1
  In  In35  1  0.35881438  -0.02140887  0.30803544  1
  In  In36  1  0.47683075  0.17553209  0.34899509  1
  In  In37  1  0.64485257  0.51848718  0.14038537  1
  In  In38  1  0.83476009  0.66698168  0.82949084  1
  In  In39  1  0.31325556  0.66475906  0.65745410  1
  In  In40  1  0.86716053  -0.02157483  0.82479954  1
  In  In41  1  0.33386472  0.32087032  -0.01969966  1
  In  In42  1  0.35255517  -0.02278087  0.66217923  1
  In  In43  1  0.16578304  0.00509317  0.16689922  1
  In  In44  1  0.86368838  0.16317819  0.68239908  1
  In  In45  1  0.50773708  -0.00607910  0.49714634  1
  In  In46  1  0.68105109  0.50154322  0.82984002  1
  In  In47  1  0.32374351  -0.00660183  0.01839461  1
  In  In48  1  0.61564697  -0.01582683  0.30921910  1
  In  In49  1  0.16193119  0.36389243  0.83194374  1
  In  In50  1  0.14534820  0.54635035  0.00827749  1
  In  In51  1  0.66136985  0.67064263  0.67881222  1
  In  In52  1  0.20476553  0.12882045  0.68175449  1
  In  In53  1  0.83136598  0.01127831  0.49151477  1
  In  In54  1  0.82747276  0.67397455  0.16394300  1
  In  In55  1  0.50368030  0.30156139  0.16804906  1
  In  In56  1  0.87859306  0.14003333  0.32945533  1
  In  In57  1  0.15932021  0.35706500  0.14375237  1
  In  In58  1  0.17951696  0.15236628  0.35142123  1
  In  In59  1  0.67083217  0.82696721  0.84439825  1
  In  In60  1  0.82130567  0.47924326  0.31799274  1
  In  In61  1  0.65655073  -0.01034247  0.68777623  1
  In  In62  1  0.20670341  0.80071264  0.28178098  1
  In  In63  1  0.13231744  0.56263667  0.63542462  1
  In  In64  1  0.04053259  0.14822872  0.49200578  1
  In  In65  1  0.33354226  0.50744146  0.48925838  1
  In  In66  1  0.16405073  0.69566291  0.49952512  1
  In  In67  1  0.69499116  0.15268689  0.49940456  1
  In  In68  1  0.01622530  0.16999233  0.84319757  1
  In  In69  1  0.16928002  0.54331110  0.30941720  1
  In  In70  1  0.18022392  0.17527383  -0.00810390  1
  In  In71  1  0.84666710  0.34125512  0.15620778  1
  Te  Te72  1  0.08535898  0.08655417  0.06845591  1
  Te  Te73  1  0.11073729  0.03554120  0.42127841  1
  Te  Te74  1  0.08167692  0.06760487  0.75164944  1
  Te  Te75  1  0.06603992  0.43969962  0.07114823  1
  Te  Te76  1  0.09293502  0.45003933  0.40768709  1
  Te  Te77  1  0.08062222  0.43922605  0.73018055  1
  Te  Te78  1  0.06020467  0.72071563  0.10158053  1
  Te  Te79  1  0.09543006  0.75482679  0.37780099  1
  Te  Te80  1  0.12254842  0.78647209  0.73185517  1
  Te  Te81  1  0.41677489  0.08353186  0.08991679  1
  Te  Te82  1  0.40013205  0.06939288  0.42377137  1
  Te  Te83  1  0.41720777  0.07645465  0.74840987  1
  Te  Te84  1  0.42694846  0.40471936  0.06773570  1
  Te  Te85  1  0.42620286  0.41399790  0.41590846  1
  Te  Te86  1  0.40075920  0.41377760  0.75936349  1
  Te  Te87  1  0.43976769  0.81120197  0.07444947  1
  Te  Te88  1  0.47674018  0.66907701  0.41598014  1
  Te  Te89  1  0.37767301  0.76131890  0.75366886  1
  Te  Te90  1  0.73716458  0.06308892  0.07834779  1
  Te  Te91  1  0.74495755  0.07128311  0.38248694  1
  Te  Te92  1  0.76615496  0.07520552  0.75769096  1
  Te  Te93  1  0.74583590  0.42170155  0.08027080  1
  Te  Te94  1  0.73289013  0.41890957  0.42656606  1
  Te  Te95  1  0.75657265  0.44511685  0.71698825  1
  Te  Te96  1  0.74672294  0.76361854  0.07328917  1
  Te  Te97  1  0.74751093  0.73857565  0.44186644  1
  Te  Te98  1  0.76209518  0.76695111  0.74121356  1
  Te  Te99  1  0.08551880  0.23672216  0.26029120  1
  Te  Te100  1  0.09840280  0.23767571  0.60145560  1
  Te  Te101  1  0.08558109  0.27478323  0.92850850  1
  Te  Te102  1  0.07782866  0.61651243  0.21618586  1
  Te  Te103  1  0.02067231  0.65968279  0.67905918  1
  Te  Te104  1  0.07835735  0.61688592  0.89968995  1
  Te  Te105  1  0.08475629  0.90495424  0.24225963  1
  Te  Te106  1  0.12048878  0.82476272  0.57532922  1
  Te  Te107  1  0.08730187  0.90360426  0.92541866  1
  Te  Te108  1  0.39903387  0.25994484  0.25870347  1
  Te  Te109  1  0.40463209  0.24235061  0.59012892  1
  Te  Te110  1  0.42160108  0.23711575  0.89415633  1
  Te  Te111  1  0.42209418  0.55288070  0.23862009  1
  Te  Te112  1  0.41623172  0.56946764  0.60045981  1
  Te  Te113  1  0.37468313  0.63009960  0.94713884  1
  Te  Te114  1  0.42325757  0.89008634  0.20652634  1
  Te  Te115  1  0.44845447  0.89353215  0.58695717  1
  Te  Te116  1  0.37691429  0.88471181  0.92893172  1
  Te  Te117  1  0.78513500  0.25277302  0.26415332  1
  Te  Te118  1  0.76905418  0.24453095  0.59430894  1
  Te  Te119  1  0.75217260  0.24994769  0.90666954  1
  Te  Te120  1  0.73667011  0.58113019  0.24427140  1
  Te  Te121  1  0.76340020  0.57525066  0.63309444  1
  Te  Te122  1  0.73661591  0.60350589  0.92604383  1
  Te  Te123  1  0.72659317  0.91427091  0.23726589  1
  Te  Te124  1  0.73811596  0.92719711  0.57615588  1
  Te  Te125  1  0.76408439  0.92098689  0.91828959  1
  Te  Te126  1  0.25788620  0.25460741  0.09411396  1
  Te  Te127  1  0.24737415  0.24782452  0.43996614  1
  Te  Te128  1  0.23900368  0.24944510  0.76758573  1
  Te  Te129  1  0.24760427  0.59684907  0.10498231  1
  Te  Te130  1  0.25956956  0.61065115  0.40826402  1
  Te  Te131  1  0.22860125  0.58643509  0.75558672  1
  Te  Te132  1  0.23040103  0.89646426  0.08725187  1
  Te  Te133  1  0.29098764  0.86935158  0.38043177  1
  Te  Te134  1  0.27014304  0.88470042  0.74943520  1
  Te  Te135  1  0.59771263  0.24507239  0.06537557  1
  Te  Te136  1  0.58762226  0.23957588  0.43210071  1
  Te  Te137  1  0.59279157  0.24615884  0.73334283  1
  Te  Te138  1  0.54747901  0.60184132  0.06591137  1
  Te  Te139  1  0.59641198  0.57994507  0.47393285  1
  Te  Te140  1  0.56478037  0.60231065  0.78562438  1
  Te  Te141  1  0.52616306  0.94060144  0.10391212  1
  Te  Te142  1  0.54911013  0.88580896  0.39768817  1
  Te  Te143  1  0.56453482  0.89949631  0.76292702  1
  Te  Te144  1  0.91675509  0.24036910  0.07262445  1
  Te  Te145  1  0.93539125  0.24767318  0.43126301  1
  Te  Te146  1  0.92499109  0.26892964  0.77085491  1
  Te  Te147  1  0.93293508  0.61613771  0.07811116  1
  Te  Te148  1  0.89749529  0.57875232  0.40445824  1
  Te  Te149  1  0.87730938  0.54470365  0.75098189  1
  Te  Te150  1  0.94735338  0.92811993  0.11135090  1
  Te  Te151  1  0.91873148  0.91467538  0.41763214  1
  Te  Te152  1  0.93258084  0.90536612  0.71125442  1
  Te  Te153  1  0.26460827  0.08295941  0.24843437  1
  Te  Te154  1  0.24608199  0.03733245  0.57867250  1
  Te  Te155  1  0.26007081  0.07986486  0.90854255  1
  Te  Te156  1  0.23204644  0.41214771  0.26352828  1
  Te  Te157  1  0.23755684  0.44025118  0.58721772  1
  Te  Te158  1  0.25112535  0.43840124  0.93072855  1
  Te  Te159  1  0.29580534  0.71609150  0.19774062  1
  Te  Te160  1  0.28949934  0.75940311  0.54656487  1
  Te  Te161  1  0.27549814  0.75136937  0.93596391  1
  Te  Te162  1  0.56846679  0.10999230  0.24537452  1
  Te  Te163  1  0.59208338  0.08257806  0.58618071  1
  Te  Te164  1  0.58170939  0.05378021  0.91220131  1
  Te  Te165  1  0.59381971  0.40449119  0.23361235  1
  Te  Te166  1  0.60134650  0.40718792  0.60697131  1
  Te  Te167  1  0.59138530  0.41996211  0.92052986  1
  Te  Te168  1  0.57691829  0.73500754  0.23445415  1
  Te  Te169  1  0.56472230  0.75678401  0.60683644  1
  Te  Te170  1  0.57441519  0.77271419  0.94127361  1
  Te  Te171  1  0.89905842  0.04092678  0.20550645  1
  Te  Te172  1  0.93390464  0.08092081  0.57784741  1
  Te  Te173  1  0.93248045  0.07240615  0.92225610  1
  Te  Te174  1  0.93829143  0.43434751  0.23357724  1
  Te  Te175  1  0.93524208  0.44254876  0.56690395  1
  Te  Te176  1  0.89673541  0.42421037  0.92256791  1
  Te  Te177  1  0.89730754  0.77348723  0.25321051  1
  Te  Te178  1  0.93366830  0.73720573  0.58544891  1
  Te  Te179  1  0.91685193  0.75737504  0.91833617  1
