# generated using pymatgen
data_In2Te3
_symmetry_space_group_name_H-M   'P 1'
_cell_length_a   18.74457461
_cell_length_b   18.73776190
_cell_length_c   18.73894175
_cell_angle_alpha   89.99730405
_cell_angle_beta   89.97700249
_cell_angle_gamma   90.04895516
_symmetry_Int_Tables_number   1
_chemical_formula_structural   In2Te3
_chemical_formula_sum   'In72 Te108'
_cell_volume   6581.70135318
_cell_formula_units_Z   36
loop_
 _symmetry_equiv_pos_site_id
 _symmetry_equiv_pos_as_xyz
  1  'x, y, z'
loop_
 _atom_site_type_symbol
 _atom_site_label
 _atom_site_symmetry_multiplicity
 _atom_site_fract_x
 _atom_site_fract_y
 _atom_site_fract_z
 _atom_site_occupancy
  In  In0  1  0.82317876  0.83924390  0.70929965  1
  In  In1  1  0.18001723  0.17798769  0.31589749  1
  In  In2  1  0.34082835  0.32785640  0.01226418  1
  In  In3  1  0.49600231  0.01131798  0.15882405  1
  In  In4  1  0.16454658  0.51455071  0.01142024  1
  In  In5  1  0.14140175  0.65901448  0.50774427  1
  In  In6  1  -0.03020167  0.35586828  0.29542563  1
  In  In7  1  0.32024149  0.47692697  0.49026142  1
  In  In8  1  0.31920194  0.50507378  0.85580952  1
  In  In9  1  0.52233679  0.81640154  0.00288307  1
  In  In10  1  0.33275247  0.31295223  0.67006133  1
  In  In11  1  0.16399518  0.18150528  0.01055931  1
  In  In12  1  0.50800660  0.02142669  0.83463757  1
  In  In13  1  0.83881928  0.79080036  0.30093807  1
  In  In14  1  0.49951895  0.16370795  0.66850892  1
  In  In15  1  0.34089740  0.33108943  0.32785992  1
  In  In16  1  0.33249257  0.02422447  0.32470790  1
  In  In17  1  0.50101301  0.67140931  0.50784746  1
  In  In18  1  0.47563661  0.50590011  0.00739698  1
  In  In19  1  0.49053129  0.66134307  0.16437588  1
  In  In20  1  0.01314562  0.17703842  0.50221168  1
  In  In21  1  0.33104644  0.82781763  0.16351876  1
  In  In22  1  0.85744456  0.64620069  0.13925482  1
  In  In23  1  0.00024909  0.17460333  0.14693999  1
  In  In24  1  0.49836808  0.49673205  0.31641599  1
  In  In25  1  0.69142916  0.51150743  0.82104502  1
  In  In26  1  0.65891955  0.01389256  0.31954747  1
  In  In27  1  0.34980146  0.84589245  0.51339558  1
  In  In28  1  0.18034239  0.34114014  0.49824612  1
  In  In29  1  0.84358718  0.83087655  -0.00871299  1
  In  In30  1  0.33099194  0.67998447  0.30820037  1
  In  In31  1  0.64076229  -0.00130593  0.69622243  1
  In  In32  1  0.65548841  0.67010224  0.30382622  1
  In  In33  1  0.84750958  0.65989580  0.84782635  1
  In  In34  1  0.00250985  0.82154554  0.50613263  1
  In  In35  1  -0.00212943  0.52300244  0.49782345  1
  In  In36  1  0.82382967  0.02915841  0.12463569  1
  In  In37  1  0.84678368  0.01284508  0.87136359  1
  In  In38  1  0.49630249  0.33534013  0.83902211  1
  In  In39  1  0.66760568  0.46004918  0.48924362  1
  In  In40  1  0.48070845  0.00391142  0.49935497  1
  In  In41  1  0.00630854  0.67191605  0.69505208  1
  In  In42  1  0.17948333  0.82790217  0.29537863  1
  In  In43  1  0.31306218  0.82838542  0.84639605  1
  In  In44  1  0.63948692  0.20452507  0.47594891  1
  In  In45  1  0.82712889  0.34218938  0.49224032  1
  In  In46  1  0.82592768  0.48965698  0.67261930  1
  In  In47  1  0.15733450  0.81395450  0.69533471  1
  In  In48  1  0.85900741  0.64696568  0.48512103  1
  In  In49  1  0.32663177  0.65963386  0.69791064  1
  In  In50  1  0.01214962  0.34757952  0.71835582  1
  In  In51  1  0.80702298  0.20329110  0.28594627  1
  In  In52  1  -0.00483452  0.34583098  0.00728558  1
  In  In53  1  0.67978580  0.33234098  0.00124320  1
  In  In54  1  0.68288459  0.82571853  0.16634609  1
  In  In55  1  0.18012591  0.15296761  0.68279254  1
  In  In56  1  -0.00060685  -0.00792945  0.69435049  1
  In  In57  1  0.16398482  -0.01662989  0.84985963  1
  In  In58  1  0.82584067  0.00375803  0.49058466  1
  In  In59  1  0.00494525  -0.01976252  0.30856016  1
  In  In60  1  0.33671144  0.01544308  0.00243219  1
  In  In61  1  0.16636915  0.49434036  0.30855775  1
  In  In62  1  -0.01248467  0.64495418  0.30129462  1
  In  In63  1  0.68007155  0.17758249  0.84499599  1
  In  In64  1  0.50569581  0.17529863  0.00147944  1
  In  In65  1  0.66666355  0.66672077  0.68033614  1
  In  In66  1  0.14882199  0.81178116  0.00559897  1
  In  In67  1  0.65095301  0.83221048  0.50350277  1
  In  In68  1  0.66103982  0.49753143  0.15225180  1
  In  In69  1  0.19338442  0.01766790  0.51053651  1
  In  In70  1  0.85091335  0.19557941  0.68478535  1
  In  In71  1  0.52687687  0.50402671  0.66089579  1
  Te  Te72  1  0.07621904  0.07486920  0.06874132  1
  Te  Te73  1  0.08361072  0.07549401  0.41136946  1
  Te  Te74  1  0.07150365  0.09563077  0.77743721  1
  Te  Te75  1  0.09118340  0.41679927  0.10134787  1
  Te  Te76  1  0.07662092  0.41353887  0.41290229  1
  Te  Te77  1  0.09991474  0.44412007  0.79134852  1
  Te  Te78  1  0.06369649  0.72630239  0.09226332  1
  Te  Te79  1  0.07815796  0.74135631  0.38972264  1
  Te  Te80  1  0.08091362  0.74451403  0.80137256  1
  Te  Te81  1  0.40039291  0.11489341  0.09816913  1
  Te  Te82  1  0.42583679  0.10741344  0.40573365  1
  Te  Te83  1  0.40449539  0.08799155  0.75335539  1
  Te  Te84  1  0.43607507  0.39963740  0.10108280  1
  Te  Te85  1  0.43781648  0.40766694  0.42656625  1
  Te  Te86  1  0.41598376  0.43010669  0.75053433  1
  Te  Te87  1  0.40439184  0.73891275  0.06314130  1
  Te  Te88  1  0.42067553  0.75657401  0.41000790  1
  Te  Te89  1  0.41390246  0.75847118  0.76122372  1
  Te  Te90  1  0.72188014  0.10584368  0.05406783  1
  Te  Te91  1  0.74790586  0.10764645  0.40692430  1
  Te  Te92  1  0.76206466  0.07902709  0.74704907  1
  Te  Te93  1  0.77325087  0.41803299  0.08724831  1
  Te  Te94  1  0.74983709  0.40262495  0.38113417  1
  Te  Te95  1  0.75257114  0.39315511  0.75677172  1
  Te  Te96  1  0.74870557  0.73057246  0.07067670  1
  Te  Te97  1  0.74650927  0.74484859  0.42066325  1
  Te  Te98  1  0.72631607  0.75478680  0.79494537  1
  Te  Te99  1  0.08248790  0.26634943  0.23891202  1
  Te  Te100  1  0.08765035  0.26256949  0.60418643  1
  Te  Te101  1  0.07905884  0.26099391  0.91575471  1
  Te  Te102  1  0.07256561  0.55954877  0.21144243  1
  Te  Te103  1  0.08779104  0.56649696  0.61399561  1
  Te  Te104  1  0.05998615  0.54051883  0.90352961  1
  Te  Te105  1  0.09642808  0.91781937  0.21134225  1
  Te  Te106  1  0.09002346  0.91984922  0.58495377  1
  Te  Te107  1  0.06761332  0.92244222  0.94385412  1
  Te  Te108  1  0.43528198  0.22658036  0.27706804  1
  Te  Te109  1  0.42956685  0.25545676  0.57447875  1
  Te  Te110  1  0.40432226  0.23503247  0.90394054  1
  Te  Te111  1  0.39249108  0.56206801  0.22860191  1
  Te  Te112  1  0.40621269  0.57778705  0.58279373  1
  Te  Te113  1  0.41114977  0.60384828  0.91782103  1
  Te  Te114  1  0.41675476  0.91800414  0.25243846  1
  Te  Te115  1  0.42701767  0.92369433  0.61139302  1
  Te  Te116  1  0.42402839  0.91746313  0.92669436  1
  Te  Te117  1  0.70869843  0.27643620  0.20454715  1
  Te  Te118  1  0.74912603  0.24699830  0.58258218  1
  Te  Te119  1  0.78056402  0.23533926  0.94256158  1
  Te  Te120  1  0.75859577  0.58120918  0.24219142  1
  Te  Te121  1  0.74371964  0.57753021  0.57763065  1
  Te  Te122  1  0.76693133  0.56796289  0.93537161  1
  Te  Te123  1  0.76499380  0.92338584  0.25182558  1
  Te  Te124  1  0.75036199  0.91110418  0.59275024  1
  Te  Te125  1  0.74552746  0.91670926  0.91875142  1
  Te  Te126  1  0.25540326  0.24955057  0.10738974  1
  Te  Te127  1  0.26276103  0.23546107  0.42938054  1
  Te  Te128  1  0.23804604  0.25885341  0.76912178  1
  Te  Te129  1  0.25804289  0.59929235  0.09131120  1
  Te  Te130  1  0.24655210  0.58799641  0.41115028  1
  Te  Te131  1  0.22294431  0.58135287  0.76818463  1
  Te  Te132  1  0.24669921  0.91676718  0.07451825  1
  Te  Te133  1  0.24361773  0.90812876  0.41095492  1
  Te  Te134  1  0.25203806  0.92410217  0.73898629  1
  Te  Te135  1  0.59264152  0.25341428  0.09859996  1
  Te  Te136  1  0.55917530  0.26406036  0.36709971  1
  Te  Te137  1  0.59256828  0.25667179  0.74889767  1
  Te  Te138  1  0.58772997  0.59842541  0.06539843  1
  Te  Te139  1  0.58830282  0.58457459  0.41676042  1
  Te  Te140  1  0.56876425  0.59424749  0.77560552  1
  Te  Te141  1  0.59730331  0.92264465  0.08449410  1
  Te  Te142  1  0.57307442  0.91991587  0.40710081  1
  Te  Te143  1  0.57745680  0.89737604  0.78432565  1
  Te  Te144  1  0.89563357  0.25059428  0.07252940  1
  Te  Te145  1  0.92012905  0.24826746  0.40465492  1
  Te  Te146  1  0.92368188  0.25631393  0.80370009  1
  Te  Te147  1  0.94165422  0.53590368  0.07416818  1
  Te  Te148  1  0.90083067  0.54423248  0.38049442  1
  Te  Te149  1  0.92635406  0.55836690  0.76255562  1
  Te  Te150  1  0.92153483  0.93523623  0.06855489  1
  Te  Te151  1  0.91244008  0.89922362  0.40681415  1
  Te  Te152  1  0.93359510  0.89862783  0.79319703  1
  Te  Te153  1  0.23474370  0.07445196  0.22659655  1
  Te  Te154  1  0.28486940  0.09993506  0.59052089  1
  Te  Te155  1  0.25059327  0.09492434  0.90755506  1
  Te  Te156  1  0.25533941  0.40403766  0.23132327  1
  Te  Te157  1  0.24078598  0.42601938  0.60907311  1
  Te  Te158  1  0.23720967  0.39889569  0.92636235  1
  Te  Te159  1  0.22014842  0.70801852  0.19720684  1
  Te  Te160  1  0.24486776  0.74739679  0.58002170  1
  Te  Te161  1  0.23794818  0.72555317  0.92256431  1
  Te  Te162  1  0.57407143  0.10878941  0.24338413  1
  Te  Te163  1  0.60172020  0.07986269  0.57071428  1
  Te  Te164  1  0.61130777  0.07700221  0.94288452  1
  Te  Te165  1  0.59581596  0.40289196  0.25134425  1
  Te  Te166  1  0.57893412  0.38916109  0.58377296  1
  Te  Te167  1  0.58795894  0.42534364  0.92124682  1
  Te  Te168  1  0.56127050  0.77212651  0.24586048  1
  Te  Te169  1  0.56702013  0.76265210  0.61079212  1
  Te  Te170  1  0.60435356  0.75367974  0.89798571  1
  Te  Te171  1  0.91094644  0.08856685  0.25225191  1
  Te  Te172  1  0.92392985  0.08435310  0.58845030  1
  Te  Te173  1  0.94193270  0.12345624  0.89228434  1
  Te  Te174  1  0.90210841  0.42506865  0.18207517  1
  Te  Te175  1  0.92891910  0.40894974  0.58704470  1
  Te  Te176  1  0.91476381  0.45956435  0.94112521  1
  Te  Te177  1  0.95256198  0.76347158  0.19779741  1
  Te  Te178  1  0.90141393  0.74549667  0.60397424  1
  Te  Te179  1  0.94284506  0.73243958  0.93572893  1
