# generated using pymatgen
data_In2Te3
_symmetry_space_group_name_H-M   'P 1'
_cell_length_a   18.78090377
_cell_length_b   18.78824916
_cell_length_c   18.79359589
_cell_angle_alpha   89.97558280
_cell_angle_beta   89.99065103
_cell_angle_gamma   90.04376725
_symmetry_Int_Tables_number   1
_chemical_formula_structural   In2Te3
_chemical_formula_sum   'In72 Te108'
_cell_volume   6631.51124800
_cell_formula_units_Z   36
loop_
 _symmetry_equiv_pos_site_id
 _symmetry_equiv_pos_as_xyz
  1  'x, y, z'
loop_
 _atom_site_type_symbol
 _atom_site_label
 _atom_site_symmetry_multiplicity
 _atom_site_fract_x
 _atom_site_fract_y
 _atom_site_fract_z
 _atom_site_occupancy
  In  In0  1  0.33910653  0.81774149  0.16657617  1
  In  In1  1  0.82642190  0.82322297  0.00622773  1
  In  In2  1  0.15931080  -0.00206014  0.48047419  1
  In  In3  1  0.66257184  0.82312773  0.81910741  1
  In  In4  1  0.00458534  0.32111811  0.34128263  1
  In  In5  1  0.35028405  -0.00015667  0.65931440  1
  In  In6  1  0.49846457  0.83149560  -0.00172983  1
  In  In7  1  0.01911030  0.49067168  0.16461776  1
  In  In8  1  0.50170390  0.50573265  0.00633403  1
  In  In9  1  0.83264358  0.17129646  0.33390800  1
  In  In10  1  -0.01447221  0.00639298  0.64577875  1
  In  In11  1  0.16855079  0.34421934  0.50060477  1
  In  In12  1  0.50666210  0.84061838  0.65919464  1
  In  In13  1  0.16887121  -0.01846561  0.82889896  1
  In  In14  1  0.84855849  0.16948021  0.01401457  1
  In  In15  1  -0.00362734  0.81338562  0.80948400  1
  In  In16  1  0.47616126  0.36467877  0.80992674  1
  In  In17  1  -0.00641058  0.16807748  0.85175641  1
  In  In18  1  0.35626161  0.17100896  0.49759948  1
  In  In19  1  0.01869434  0.66896773  -0.00515347  1
  In  In20  1  0.18531420  0.82951683  0.00801745  1
  In  In21  1  0.31851872  0.81805970  0.85207192  1
  In  In22  1  0.48754579  0.18572232  0.67469173  1
  In  In23  1  0.83353744  0.51685750  0.34290521  1
  In  In24  1  0.83464370  0.31895211  0.15221275  1
  In  In25  1  0.67277804  0.35594517  0.32882052  1
  In  In26  1  0.32328499  0.49975596  0.51207365  1
  In  In27  1  0.14514655  0.37384656  0.82515559  1
  In  In28  1  0.81710960  0.66328657  0.17702768  1
  In  In29  1  0.32333896  0.65857239  0.65406488  1
  In  In30  1  0.17992267  0.81547599  0.34167520  1
  In  In31  1  -0.00143749  0.01750055  0.32693843  1
  In  In32  1  0.49997593  0.67967148  0.49184282  1
  In  In33  1  0.32338623  0.33525122  -0.00386443  1
  In  In34  1  0.50683430  0.66346878  0.16664400  1
  In  In35  1  0.66031855  -0.00170674  -0.00356533  1
  In  In36  1  0.84400877  0.34185709  0.83386906  1
  In  In37  1  0.35611798  -0.01027572  0.02472768  1
  In  In38  1  0.64979365  0.66229945  0.66771670  1
  In  In39  1  0.50017842  0.49832964  0.32454982  1
  In  In40  1  -0.00082923  0.83042450  0.17618872  1
  In  In41  1  0.67347692  0.00591686  0.65446127  1
  In  In42  1  0.82984723  0.83228613  0.32736791  1
  In  In43  1  0.48859479  0.00456307  0.47284639  1
  In  In44  1  0.66021218  0.49194261  0.49462387  1
  In  In45  1  0.64042047  0.31358714  0.03247254  1
  In  In46  1  0.15776713  0.62697896  0.81846240  1
  In  In47  1  0.68271146  0.50399599  0.83451900  1
  In  In48  1  0.17343506  0.51223408  0.33275290  1
  In  In49  1  0.00163602  0.64400385  0.67883800  1
  In  In50  1  0.00861999  0.84591829  0.49036296  1
  In  In51  1  0.82511221  0.00475117  0.17197612  1
  In  In52  1  0.50551785  0.15167834  0.32719121  1
  In  In53  1  0.68831894  0.16479950  0.49778930  1
  In  In54  1  0.86192984  0.49316410  0.65788567  1
  In  In55  1  0.81693884  0.83730058  0.66310968  1
  In  In56  1  0.15482459  0.66031553  0.51547832  1
  In  In57  1  0.51347222  0.01176597  0.17368832  1
  In  In58  1  0.01890462  0.03189270  0.00071951  1
  In  In59  1  0.82723915  0.49190174  -0.00815612  1
  In  In60  1  0.83293090  0.17918132  0.65494680  1
  In  In61  1  0.15537293  0.19413653  0.66164779  1
  In  In62  1  0.31543173  0.52411546  0.14134380  1
  In  In63  1  0.33820528  0.29932843  0.32162207  1
  In  In64  1  0.15580905  0.32455734  0.16473141  1
  In  In65  1  0.50655059  0.33742120  0.52154433  1
  In  In66  1  0.16802830  0.17326584  0.02022763  1
  In  In67  1  0.48464872  0.65336905  0.85654444  1
  In  In68  1  0.33262018  0.17404844  0.85168789  1
  In  In69  1  0.49999378  0.83247020  0.33457756  1
  In  In70  1  0.65508495  0.16535751  0.83984234  1
  In  In71  1  0.84240912  0.67560699  0.48124597  1
  Te  Te72  1  0.10264540  0.07509791  0.11690293  1
  Te  Te73  1  0.06556485  0.09929222  0.43145200  1
  Te  Te74  1  0.08334055  0.08319339  0.75327460  1
  Te  Te75  1  0.11501569  0.42933327  0.06973815  1
  Te  Te76  1  0.07448004  0.43420243  0.41868983  1
  Te  Te77  1  0.06050676  0.43029967  0.71352793  1
  Te  Te78  1  0.10008916  0.74202829  0.10287676  1
  Te  Te79  1  0.06946694  0.73245358  0.41068992  1
  Te  Te80  1  0.10994822  0.74617622  0.73706908  1
  Te  Te81  1  0.43502703  0.10298695  0.08255500  1
  Te  Te82  1  0.38487612  0.07519137  0.38263505  1
  Te  Te83  1  0.42148941  0.08297855  0.76578045  1
  Te  Te84  1  0.41168120  0.41626504  0.09283598  1
  Te  Te85  1  0.41058195  0.40708675  0.41738394  1
  Te  Te86  1  0.37461069  0.43269509  0.72713909  1
  Te  Te87  1  0.40919516  0.72912778  0.06437403  1
  Te  Te88  1  0.40086594  0.75114306  0.41065346  1
  Te  Te89  1  0.42103414  0.74936813  0.75007375  1
  Te  Te90  1  0.73639231  0.09619300  0.08735877  1
  Te  Te91  1  0.73690374  0.07127439  0.39364939  1
  Te  Te92  1  0.75505307  0.08851993  0.75348654  1
  Te  Te93  1  0.73575103  0.41758641  0.09089357  1
  Te  Te94  1  0.77159228  0.40729862  0.43372386  1
  Te  Te95  1  0.75321796  0.41272378  0.73450673  1
  Te  Te96  1  0.73305017  0.75814251  0.09909509  1
  Te  Te97  1  0.73823260  0.74696003  0.40838019  1
  Te  Te98  1  0.76004571  0.72656280  0.75215135  1
  Te  Te99  1  0.09837988  0.22831637  0.26681440  1
  Te  Te100  1  0.06248160  0.25756936  0.56491785  1
  Te  Te101  1  0.09211082  0.26011463  0.92141908  1
  Te  Te102  1  0.08527408  0.59337878  0.24688762  1
  Te  Te103  1  0.10026193  0.55453666  0.60961223  1
  Te  Te104  1  0.06225667  0.55670214  0.90725739  1
  Te  Te105  1  0.09129527  0.91670216  0.26117234  1
  Te  Te106  1  0.09669199  0.91546623  0.59389439  1
  Te  Te107  1  0.07604711  0.89927462  0.92003566  1
  Te  Te108  1  0.45528355  0.25993791  0.23409686  1
  Te  Te109  1  0.38992391  0.27670190  0.60219870  1
  Te  Te110  1  0.43548640  0.26376843  0.91815229  1
  Te  Te111  1  0.40148721  0.58906425  0.25142727  1
  Te  Te112  1  0.43398038  0.57778195  0.58463552  1
  Te  Te113  1  0.39389792  0.55012264  0.91330085  1
  Te  Te114  1  0.40931236  0.92676557  0.24587123  1
  Te  Te115  1  0.41021727  0.90276688  0.55899623  1
  Te  Te116  1  0.41935385  0.92095596  0.90349589  1
  Te  Te117  1  0.73508090  0.24672959  0.24226149  1
  Te  Te118  1  0.73634697  0.26986858  0.58786663  1
  Te  Te119  1  0.75206308  0.25760079  0.92790383  1
  Te  Te120  1  0.72957055  0.57197695  0.25519369  1
  Te  Te121  1  0.75296798  0.58602383  0.58086511  1
  Te  Te122  1  0.74367444  0.59750002  0.93047650  1
  Te  Te123  1  0.73776628  0.90725991  0.23793955  1
  Te  Te124  1  0.75017970  0.92104121  0.56244110  1
  Te  Te125  1  0.75057579  0.91285191  0.90670467  1
  Te  Te126  1  0.28040768  0.23349291  0.10739010  1
  Te  Te127  1  0.24157148  0.23495380  0.41845817  1
  Te  Te128  1  0.23995823  0.26170061  0.76913578  1
  Te  Te129  1  0.23710701  0.61564126  0.05858500  1
  Te  Te130  1  0.26185334  0.60228286  0.41916033  1
  Te  Te131  1  0.27743832  0.55636999  0.75620641  1
  Te  Te132  1  0.24340491  0.92967160  0.10563434  1
  Te  Te133  1  0.26028371  0.92256739  0.40639870  1
  Te  Te134  1  0.25939770  0.90190098  0.73710849  1
  Te  Te135  1  0.55120466  0.22499725  0.10949041  1
  Te  Te136  1  0.58252510  0.25568180  0.41717880  1
  Te  Te137  1  0.58716080  0.26947106  0.75086899  1
  Te  Te138  1  0.60038042  0.58440758  0.08169885  1
  Te  Te139  1  0.59134040  0.59240294  0.40337984  1
  Te  Te140  1  0.56711654  0.57094248  0.75669092  1
  Te  Te141  1  0.58948469  0.90385933  0.09462746  1
  Te  Te142  1  0.59206586  0.91920811  0.41472190  1
  Te  Te143  1  0.58049028  0.93460405  0.75404474  1
  Te  Te144  1  0.94733396  0.25683738  0.07948837  1
  Te  Te145  1  0.90677944  0.25510855  0.43054887  1
  Te  Te146  1  0.93313639  0.25588154  0.74432884  1
  Te  Te147  1  0.91758610  0.58703937  0.08605633  1
  Te  Te148  1  0.93452032  0.56952608  0.43771556  1
  Te  Te149  1  0.91246049  0.57256728  0.77220661  1
  Te  Te150  1  0.92533337  0.92250251  0.07759827  1
  Te  Te151  1  0.90814686  0.93098915  0.41639068  1
  Te  Te152  1  0.90952031  0.92410214  0.75034784  1
  Te  Te153  1  0.21587042  0.13437507  0.21325551  1
  Te  Te154  1  0.25213245  0.09417740  0.58994438  1
  Te  Te155  1  0.24608864  0.06897377  0.92814989  1
  Te  Te156  1  0.25692248  0.41127046  0.25147995  1
  Te  Te157  1  0.24863378  0.41223430  0.60822665  1
  Te  Te158  1  0.24828348  0.43577099  0.91663851  1
  Te  Te159  1  0.24990938  0.72891739  0.24374105  1
  Te  Te160  1  0.25276759  0.75699805  0.57108622  1
  Te  Te161  1  0.24382210  0.70709998  0.92947066  1
  Te  Te162  1  0.61329809  0.06355489  0.27352515  1
  Te  Te163  1  0.56396573  0.09448706  0.57884976  1
  Te  Te164  1  0.56510926  0.08688522  0.92572724  1
  Te  Te165  1  0.58000209  0.41666336  0.23101901  1
  Te  Te166  1  0.58319022  0.43076087  0.60515917  1
  Te  Te167  1  0.59084403  0.40717063  0.91559935  1
  Te  Te168  1  0.59133326  0.75211710  0.24956499  1
  Te  Te169  1  0.60343499  0.76723297  0.56780222  1
  Te  Te170  1  0.59353262  0.73699681  0.92451382  1
  Te  Te171  1  0.92367787  0.10630506  0.22766002  1
  Te  Te172  1  0.90696693  0.09326126  0.55788720  1
  Te  Te173  1  0.89779603  0.06656786  0.91226565  1
  Te  Te174  1  0.91205197  0.41129313  0.24990893  1
  Te  Te175  1  0.95884721  0.39578133  0.60132741  1
  Te  Te176  1  0.93542398  0.41898141  0.92167043  1
  Te  Te177  1  0.92496300  0.73081158  0.26374969  1
  Te  Te178  1  0.93075077  0.75497060  0.59106561  1
  Te  Te179  1  0.91074198  0.73745112  0.91018238  1
