# generated using pymatgen
data_In2Te3
_symmetry_space_group_name_H-M   'P 1'
_cell_length_a   18.97115930
_cell_length_b   18.94715836
_cell_length_c   18.93748056
_cell_angle_alpha   90.13169490
_cell_angle_beta   90.16316099
_cell_angle_gamma   90.01778763
_symmetry_Int_Tables_number   1
_chemical_formula_structural   In2Te3
_chemical_formula_sum   'In72 Te108'
_cell_volume   6807.02312242
_cell_formula_units_Z   36
loop_
 _symmetry_equiv_pos_site_id
 _symmetry_equiv_pos_as_xyz
  1  'x, y, z'
loop_
 _atom_site_type_symbol
 _atom_site_label
 _atom_site_symmetry_multiplicity
 _atom_site_fract_x
 _atom_site_fract_y
 _atom_site_fract_z
 _atom_site_occupancy
  In  In0  1  0.17174451  0.47490466  0.00008382  1
  In  In1  1  0.34742972  0.50557426  0.19131652  1
  In  In2  1  0.65218188  0.33758723  0.69537719  1
  In  In3  1  0.31512116  0.31844763  0.35555333  1
  In  In4  1  0.82025218  0.32577165  0.83631302  1
  In  In5  1  0.17524140  0.14271269  0.63007750  1
  In  In6  1  0.67313577  0.63571658  0.00309107  1
  In  In7  1  0.15664420  -0.00783371  0.84529353  1
  In  In8  1  0.83330679  0.18286603  -0.00587085  1
  In  In9  1  0.83893288  0.50577309  0.00471393  1
  In  In10  1  0.66133989  0.02477162  -0.00052718  1
  In  In11  1  0.84650151  0.64697718  0.17424308  1
  In  In12  1  0.65593294  0.06683103  0.67229141  1
  In  In13  1  0.43888190  0.16243717  0.37041843  1
  In  In14  1  0.01128279  0.66601004  0.33632773  1
  In  In15  1  0.15209003  -0.00160021  0.19531439  1
  In  In16  1  0.83621364  0.34058090  0.16626898  1
  In  In17  1  0.01149885  0.33185501  0.64205670  1
  In  In18  1  0.66231997  0.50403663  0.84382382  1
  In  In19  1  0.50114744  0.66657933  0.84179173  1
  In  In20  1  0.66450949  0.18526579  0.15500783  1
  In  In21  1  0.03473434  0.53733148  0.51251727  1
  In  In22  1  0.84094609  0.16940258  0.64898817  1
  In  In23  1  0.00641082  0.34335016  0.32962369  1
  In  In24  1  0.15386304  0.81452302  0.66276941  1
  In  In25  1  0.50041620  0.34039238  0.50859520  1
  In  In26  1  0.48974241  0.84173620  0.69338786  1
  In  In27  1  0.85484885  0.81429528  0.35849473  1
  In  In28  1  0.69180398  0.66185724  0.33646841  1
  In  In29  1  0.15240303  0.33905478  0.83337776  1
  In  In30  1  0.49105738  -0.01896104  0.17677089  1
  In  In31  1  0.66232331  0.84583114  0.49035466  1
  In  In32  1  0.46869882  0.01992975  0.83947165  1
  In  In33  1  0.01776799  0.13342745  0.45908266  1
  In  In34  1  0.66028835  0.36180912  0.35617097  1
  In  In35  1  0.48016353  0.18639711  0.00643901  1
  In  In36  1  -0.01136893  0.52470893  0.80989809  1
  In  In37  1  0.32857679  0.18775446  0.81798339  1
  In  In38  1  0.68999761  0.82753881  0.17667339  1
  In  In39  1  0.66461022  0.83022323  0.83383686  1
  In  In40  1  0.16667859  0.64798596  0.81207890  1
  In  In41  1  0.13445675  0.81586874  -0.01162200  1
  In  In42  1  -0.00734071  0.33068104  0.01819480  1
  In  In43  1  0.35016631  0.81929992  0.84414849  1
  In  In44  1  0.82890015  -0.02043018  0.81580462  1
  In  In45  1  0.47710252  0.84340694  0.32666506  1
  In  In46  1  0.32315052  0.81201957  0.16989551  1
  In  In47  1  0.00177873  0.15127778  0.84576334  1
  In  In48  1  0.65374855  0.01614056  0.33601744  1
  In  In49  1  0.15691504  0.66809456  0.17453543  1
  In  In50  1  0.83852846  0.14374535  0.31779939  1
  In  In51  1  0.49633351  0.50220324  0.00613815  1
  In  In52  1  0.36111567  0.66305078  0.01311375  1
  In  In53  1  0.29821113  0.52723997  0.46981142  1
  In  In54  1  0.49047893  0.67581390  0.50758929  1
  In  In55  1  0.17172246  0.33265176  0.17689453  1
  In  In56  1  0.66341344  0.18943301  0.51890790  1
  In  In57  1  0.29300240  0.84706858  0.50341833  1
  In  In58  1  0.17461101  0.15150142  0.04887402  1
  In  In59  1  0.50791058  0.51893431  0.33161446  1
  In  In60  1  0.29214322  0.00038481  0.64282410  1
  In  In61  1  0.02196932  0.82492758  0.50335699  1
  In  In62  1  0.32095849  0.16399202  0.17614206  1
  In  In63  1  0.31702521  0.35469140  0.62614841  1
  In  In64  1  0.84665424  -0.02349214  0.50164936  1
  In  In65  1  0.31931354  -0.02491374  -0.01335530  1
  In  In66  1  0.86355979  -0.02567833  0.16992200  1
  In  In67  1  0.84692828  0.82689976  0.64935430  1
  In  In68  1  0.86310752  0.36902143  0.48787505  1
  In  In69  1  0.71065093  0.63793388  0.63758815  1
  In  In70  1  0.49409056  0.49822771  0.66935906  1
  In  In71  1  0.86880561  0.80114193  -0.03148345  1
  Te  Te72  1  0.07446405  0.05285718  0.08220316  1
  Te  Te73  1  0.12077346  0.04681833  0.39940660  1
  Te  Te74  1  0.08830618  0.08147994  0.74326067  1
  Te  Te75  1  0.07243302  0.42395813  0.10504082  1
  Te  Te76  1  0.08677912  0.41963795  0.43096729  1
  Te  Te77  1  0.08579542  0.43164324  0.73285080  1
  Te  Te78  1  0.06029775  0.72044523  0.07363271  1
  Te  Te79  1  0.11306729  0.73043482  0.42825795  1
  Te  Te80  1  0.07693809  0.76436107  0.78012667  1
  Te  Te81  1  0.40379011  0.06857624  0.08050662  1
  Te  Te82  1  0.37212070  0.03975691  0.40773115  1
  Te  Te83  1  0.39343332  0.08466400  0.72719721  1
  Te  Te84  1  0.40247419  0.42104001  0.08608905  1
  Te  Te85  1  0.41297923  0.42724928  0.41907472  1
  Te  Te86  1  0.41594164  0.39172804  0.73154868  1
  Te  Te87  1  0.43605387  0.75973303  0.09329293  1
  Te  Te88  1  0.39713088  0.76145481  0.42551947  1
  Te  Te89  1  0.40334499  0.72504131  0.73863255  1
  Te  Te90  1  0.75981492  0.07565073  0.10509647  1
  Te  Te91  1  0.75034545  0.08369857  0.43715031  1
  Te  Te92  1  0.76680573  0.10958398  0.76786992  1
  Te  Te93  1  0.75242581  0.40347659  0.06257878  1
  Te  Te94  1  0.75693130  0.45301355  0.42395541  1
  Te  Te95  1  0.75969187  0.43338084  0.74954572  1
  Te  Te96  1  0.76486303  0.74366225  0.07495849  1
  Te  Te97  1  0.76289379  0.73970936  0.45027968  1
  Te  Te98  1  0.74772633  0.75038351  0.73752513  1
  Te  Te99  1  0.09328108  0.24258507  0.26377303  1
  Te  Te100  1  0.08590439  0.23795728  0.54963050  1
  Te  Te101  1  0.08677126  0.23893864  0.93864645  1
  Te  Te102  1  0.09242646  0.56668392  0.26137848  1
  Te  Te103  1  0.13348861  0.61182959  0.60485343  1
  Te  Te104  1  0.08656252  0.57205994  0.91584991  1
  Te  Te105  1  0.10578503  0.89368427  0.28494152  1
  Te  Te106  1  0.10472396  0.92319474  0.57786397  1
  Te  Te107  1  0.05546875  0.92151796  0.92295049  1
  Te  Te108  1  0.41208104  0.25691723  0.25502266  1
  Te  Te109  1  0.41894291  0.25302359  0.59257415  1
  Te  Te110  1  0.42434963  0.26679925  0.89573041  1
  Te  Te111  1  0.41358669  0.61160638  0.26774972  1
  Te  Te112  1  0.40150764  0.57437456  0.57634316  1
  Te  Te113  1  0.40195406  0.57137938  0.89876458  1
  Te  Te114  1  0.37390285  0.93374432  0.25922345  1
  Te  Te115  1  0.40537790  0.91266619  0.58967926  1
  Te  Te116  1  0.44114133  0.90264804  0.93216479  1
  Te  Te117  1  0.74554955  0.25450003  0.27062064  1
  Te  Te118  1  0.76686589  0.28600217  0.58551742  1
  Te  Te119  1  0.72902011  0.26539622  0.93339855  1
  Te  Te120  1  0.74020138  0.56772822  0.23516149  1
  Te  Te121  1  0.78775913  0.54894443  0.55277474  1
  Te  Te122  1  0.77386774  0.59259537  0.89843192  1
  Te  Te123  1  0.75621811  0.91661387  0.28215553  1
  Te  Te124  1  0.73549107  0.93090283  0.59466202  1
  Te  Te125  1  0.75144324  0.91245150  0.93084356  1
  Te  Te126  1  0.26591558  0.26787720  0.07624791  1
  Te  Te127  1  0.25023211  0.23471844  0.45422064  1
  Te  Te128  1  0.22603126  0.25454947  0.72337328  1
  Te  Te129  1  0.25313823  0.58194783  0.08230870  1
  Te  Te130  1  0.20760206  0.61331708  0.38682636  1
  Te  Te131  1  0.21610266  0.55046831  0.71361499  1
  Te  Te132  1  0.23173259  0.89926647  0.08266057  1
  Te  Te133  1  0.20475749  0.91468987  0.39963753  1
  Te  Te134  1  0.25698591  0.90919492  0.76480042  1
  Te  Te135  1  0.56480154  0.27073938  0.09299563  1
  Te  Te136  1  0.57121093  0.24079846  0.40570545  1
  Te  Te137  1  0.59537308  0.20339284  0.71175036  1
  Te  Te138  1  0.58107487  0.57911903  0.09949396  1
  Te  Te139  1  0.59248713  0.59361836  0.43345381  1
  Te  Te140  1  0.59225947  0.60052002  0.73820596  1
  Te  Te141  1  0.60101382  0.91915029  0.09259911  1
  Te  Te142  1  0.55928584  0.93313050  0.42018710  1
  Te  Te143  1  0.58437685  0.94016455  0.76357446  1
  Te  Te144  1  0.92384225  0.23022959  0.10670112  1
  Te  Te145  1  0.90956500  0.24100590  0.41983005  1
  Te  Te146  1  0.93514245  0.25233632  0.74926943  1
  Te  Te147  1  0.93710432  0.59449371  0.06922537  1
  Te  Te148  1  0.92396634  0.59209557  0.42996401  1
  Te  Te149  1  0.94034750  0.63935309  0.72865413  1
  Te  Te150  1  0.93104685  0.88403256  0.07537852  1
  Te  Te151  1  0.94688050  0.92370320  0.40386240  1
  Te  Te152  1  0.92728341  0.92313180  0.72545940  1
  Te  Te153  1  0.21418116  0.11506985  0.26849980  1
  Te  Te154  1  0.27965525  0.09603556  0.52028459  1
  Te  Te155  1  0.25422709  0.09470943  0.91839375  1
  Te  Te156  1  0.24544767  0.42418920  0.27192261  1
  Te  Te157  1  0.21675404  0.42070607  0.53634664  1
  Te  Te158  1  0.25702364  0.41942074  0.89516616  1
  Te  Te159  1  0.25510913  0.72771943  0.27133797  1
  Te  Te160  1  0.24878795  0.72980767  0.58673595  1
  Te  Te161  1  0.25151631  0.73767016  0.92399190  1
  Te  Te162  1  0.56855830  0.09550473  0.24007797  1
  Te  Te163  1  0.56249612  0.09151451  0.56251103  1
  Te  Te164  1  0.57262418  0.10597255  0.91018943  1
  Te  Te165  1  0.58416462  0.42400996  0.24890631  1
  Te  Te166  1  0.59875694  0.42693947  0.58488183  1
  Te  Te167  1  0.56419885  0.41739240  0.90510748  1
  Te  Te168  1  0.59337405  0.75906389  0.27053122  1
  Te  Te169  1  0.57811392  0.76793363  0.59183775  1
  Te  Te170  1  0.58918764  0.74612263  0.93417541  1
  Te  Te171  1  0.94356111  0.06827216  0.25081359  1
  Te  Te172  1  0.93432010  0.07542539  0.57796059  1
  Te  Te173  1  0.90326344  0.06963817  0.92325983  1
  Te  Te174  1  0.91334876  0.42742558  0.25445873  1
  Te  Te175  1  0.92960417  0.45077536  0.59755367  1
  Te  Te176  1  0.93010171  0.40979817  0.90500338  1
  Te  Te177  1  0.92849773  0.75598567  0.24231483  1
  Te  Te178  1  0.94339121  0.72963427  0.59013005  1
  Te  Te179  1  0.93313080  0.73437779  0.85370842  1
