# generated using pymatgen
data_In2Te3
_symmetry_space_group_name_H-M   'P 1'
_cell_length_a   18.81167518
_cell_length_b   18.80173578
_cell_length_c   18.80959577
_cell_angle_alpha   90.09546391
_cell_angle_beta   90.00618195
_cell_angle_gamma   89.90568331
_symmetry_Int_Tables_number   1
_chemical_formula_structural   In2Te3
_chemical_formula_sum   'In72 Te108'
_cell_volume   6652.78801458
_cell_formula_units_Z   36
loop_
 _symmetry_equiv_pos_site_id
 _symmetry_equiv_pos_as_xyz
  1  'x, y, z'
loop_
 _atom_site_type_symbol
 _atom_site_label
 _atom_site_symmetry_multiplicity
 _atom_site_fract_x
 _atom_site_fract_y
 _atom_site_fract_z
 _atom_site_occupancy
  In  In0  1  0.32223217  0.19315677  0.82175186  1
  In  In1  1  0.82228987  0.50381397  0.00637355  1
  In  In2  1  0.16545397  0.67883962  0.50680643  1
  In  In3  1  0.83557011  0.01764990  0.51382054  1
  In  In4  1  0.01479096  0.50208540  0.81940471  1
  In  In5  1  0.30862826  -0.05817263  0.35631457  1
  In  In6  1  0.48134096  -0.00320392  0.53151056  1
  In  In7  1  0.32990866  0.82191413  0.82243213  1
  In  In8  1  0.64894058  0.19172166  0.83067535  1
  In  In9  1  0.50151689  0.64846540  0.15664919  1
  In  In10  1  0.17341266  0.66401614  0.17266641  1
  In  In11  1  0.84293249  0.81803799  -0.01798473  1
  In  In12  1  0.51814275  0.16071594  0.34968978  1
  In  In13  1  0.64255751  0.81801100  0.52285575  1
  In  In14  1  -0.03660775  0.15574577  0.82367427  1
  In  In15  1  0.64355266  0.01132419  0.67020657  1
  In  In16  1  0.84516149  0.83988201  0.32716364  1
  In  In17  1  0.83274060  -0.01046120  0.84333373  1
  In  In18  1  0.31653917  -0.01696519  0.64666129  1
  In  In19  1  0.33912150  0.82147953  0.18282219  1
  In  In20  1  0.81731431  0.34904555  0.81447598  1
  In  In21  1  0.15428858  -0.00879546  0.83014350  1
  In  In22  1  0.51764622  0.80872632  0.00801884  1
  In  In23  1  0.50315670  0.64881166  0.83712117  1
  In  In24  1  0.51312305  0.16129898  0.00077466  1
  In  In25  1  -0.01632302  0.17731409  0.18905689  1
  In  In26  1  0.33995272  0.34440654  0.67508396  1
  In  In27  1  0.33924028  -0.00870398  0.00913070  1
  In  In28  1  0.50951555  0.34824805  0.17676813  1
  In  In29  1  0.49995898  0.82552960  0.67504708  1
  In  In30  1  0.33215821  0.50090274  0.17184399  1
  In  In31  1  0.16902450  0.34035584  0.80587760  1
  In  In32  1  0.00695370  -0.00701271  0.63897236  1
  In  In33  1  0.13414461  -0.00705461  0.19267668  1
  In  In34  1  0.71494515  0.17831011  0.17398325  1
  In  In35  1  0.47768570  0.81495448  0.35226726  1
  In  In36  1  0.84153236  0.18385197  0.66402892  1
  In  In37  1  0.83983915  0.80954372  0.67625456  1
  In  In38  1  0.86208163  0.48798610  0.33785909  1
  In  In39  1  0.51845074  0.34304299  0.49841644  1
  In  In40  1  0.83964183  0.64442880  0.50705118  1
  In  In41  1  0.51288775  0.02316059  0.84068836  1
  In  In42  1  0.00342373  0.84266315  0.17244142  1
  In  In43  1  0.32826328  0.51878524  0.49659091  1
  In  In44  1  0.67281633  0.66168916  0.33535762  1
  In  In45  1  0.13531165  0.33493653  0.50750090  1
  In  In46  1  0.82689858  0.65241349  0.83423974  1
  In  In47  1  0.68250358  0.83376412  0.15196221  1
  In  In48  1  0.01425973  -0.00349355  0.33662685  1
  In  In49  1  0.67181265  0.50432534  0.51192532  1
  In  In50  1  -0.00402445  -0.00348482  0.00370987  1
  In  In51  1  0.32278182  0.14427546  0.50986137  1
  In  In52  1  0.84272756  0.68803079  0.15650192  1
  In  In53  1  -0.01942500  0.48269017  0.51679566  1
  In  In54  1  0.35286583  0.34975783  -0.02542427  1
  In  In55  1  0.32903666  0.15961683  0.14778996  1
  In  In56  1  0.70709907  0.20023968  0.50001161  1
  In  In57  1  0.16769501  0.65254462  0.80822055  1
  In  In58  1  0.67397808  0.01712221  0.35450118  1
  In  In59  1  0.65693784  0.50077556  0.15835580  1
  In  In60  1  -0.00426841  0.50498994  0.17292421  1
  In  In61  1  0.47862313  0.66932261  0.51357202  1
  In  In62  1  0.32675266  0.34565933  0.32539620  1
  In  In63  1  0.17100070  0.19178082  -0.00584052  1
  In  In64  1  0.13655241  0.33133195  0.18429338  1
  In  In65  1  -0.00198952  0.33170707  0.01847307  1
  In  In66  1  0.17279818  0.81981579  -0.00811219  1
  In  In67  1  0.65054834  0.36569520  -0.02508350  1
  In  In68  1  -0.00127123  0.66369620  0.67563946  1
  In  In69  1  0.51210264  0.18518481  0.69130634  1
  In  In70  1  0.33852836  0.51498591  0.82662786  1
  In  In71  1  0.16236934  0.16838835  0.31880349  1
  Te  Te72  1  0.09109992  0.09669731  0.08371705  1
  Te  Te73  1  0.10171683  0.08104919  0.42070241  1
  Te  Te74  1  0.07400325  0.08763621  0.74357967  1
  Te  Te75  1  0.09551026  0.43108411  0.07568902  1
  Te  Te76  1  0.06140215  0.41712656  0.40950841  1
  Te  Te77  1  0.09781983  0.43404228  0.71716955  1
  Te  Te78  1  0.07361499  0.74615441  0.07964106  1
  Te  Te79  1  0.09626189  0.78944371  0.42991004  1
  Te  Te80  1  0.09015010  0.75965032  0.74037742  1
  Te  Te81  1  0.43914324  0.06692447  0.09547639  1
  Te  Te82  1  0.40927734  0.06652908  0.41001751  1
  Te  Te83  1  0.41231914  0.07408398  0.73466811  1
  Te  Te84  1  0.43449736  0.43099170  0.07353616  1
  Te  Te85  1  0.42167837  0.42542346  0.41172003  1
  Te  Te86  1  0.43528650  0.41189897  0.76782304  1
  Te  Te87  1  0.40248435  0.73520966  0.07588225  1
  Te  Te88  1  0.38187617  0.71577784  0.40627152  1
  Te  Te89  1  0.40630114  0.72309165  0.73773967  1
  Te  Te90  1  0.78428026  0.09995898  0.07235692  1
  Te  Te91  1  0.78501499  0.11067632  0.40122953  1
  Te  Te92  1  0.75033914  0.08986170  0.74752527  1
  Te  Te93  1  0.74902476  0.40037210  0.08925299  1
  Te  Te94  1  0.76577825  0.41608279  0.42811512  1
  Te  Te95  1  0.72025652  0.44192103  0.75421588  1
  Te  Te96  1  0.73541865  0.72740309  0.05852472  1
  Te  Te97  1  0.75002186  0.75956128  0.42685343  1
  Te  Te98  1  0.73804352  0.74837261  0.76057979  1
  Te  Te99  1  0.04861680  0.26772541  0.29372637  1
  Te  Te100  1  0.02599822  0.25838082  0.57011387  1
  Te  Te101  1  0.07136244  0.25234989  0.89937346  1
  Te  Te102  1  0.07831302  0.59063592  0.26051296  1
  Te  Te103  1  0.08348923  0.57299180  0.58615918  1
  Te  Te104  1  0.07556329  0.59846479  0.91200201  1
  Te  Te105  1  0.10637053  0.87345612  0.28201479  1
  Te  Te106  1  0.08828237  0.89676944  0.55954064  1
  Te  Te107  1  0.06669650  0.89701393  0.91158315  1
  Te  Te108  1  0.41819548  0.24116930  0.25348136  1
  Te  Te109  1  0.42006532  0.24347695  0.57720097  1
  Te  Te110  1  0.44172566  0.24901175  0.89807672  1
  Te  Te111  1  0.42475382  0.57657112  0.25850813  1
  Te  Te112  1  0.41246280  0.57417286  0.60632072  1
  Te  Te113  1  0.41395712  0.58222775  0.93468911  1
  Te  Te114  1  0.42817813  0.92087042  0.25423528  1
  Te  Te115  1  0.39961238  0.86995486  0.56555577  1
  Te  Te116  1  0.42095878  0.91279641  0.90730191  1
  Te  Te117  1  0.78642928  0.27452685  0.26500902  1
  Te  Te118  1  0.76702265  0.29923566  0.59709923  1
  Te  Te119  1  0.75032927  0.26136797  0.91978402  1
  Te  Te120  1  0.76810634  0.58472618  0.24495353  1
  Te  Te121  1  0.75835430  0.57819452  0.60882076  1
  Te  Te122  1  0.72701968  0.56488810  0.90838463  1
  Te  Te123  1  0.75014766  0.92996962  0.25159908  1
  Te  Te124  1  0.74359158  0.92126357  0.58876543  1
  Te  Te125  1  0.74086723  0.90606419  0.92002695  1
  Te  Te126  1  0.25946379  0.28262191  0.09001086  1
  Te  Te127  1  0.25138284  0.25249734  0.42081657  1
  Te  Te128  1  0.23094750  0.23705433  0.71087823  1
  Te  Te129  1  0.25065442  0.57987922  0.07848045  1
  Te  Te130  1  0.23099391  0.58715786  0.40833390  1
  Te  Te131  1  0.25910433  0.57730744  0.71793051  1
  Te  Te132  1  0.23655325  0.91744143  0.09405389  1
  Te  Te133  1  0.21865499  0.88910486  0.46883479  1
  Te  Te134  1  0.22735802  0.89503666  0.73586939  1
  Te  Te135  1  0.59457860  0.25798667  0.08518070  1
  Te  Te136  1  0.61084293  0.26903321  0.40077969  1
  Te  Te137  1  0.61988024  0.28314670  0.71705722  1
  Te  Te138  1  0.58913377  0.58325307  0.05696205  1
  Te  Te139  1  0.57704439  0.58850659  0.42340831  1
  Te  Te140  1  0.61112267  0.54840128  0.79140893  1
  Te  Te141  1  0.58491889  0.91804812  0.08048059  1
  Te  Te142  1  0.57843349  0.91820095  0.42299130  1
  Te  Te143  1  0.58916268  0.91021722  0.76680004  1
  Te  Te144  1  0.89990652  0.24045978  0.08311303  1
  Te  Te145  1  0.84835746  0.28478952  0.40294050  1
  Te  Te146  1  0.93743445  0.28240307  0.74325820  1
  Te  Te147  1  0.92615102  0.59508962  0.06875826  1
  Te  Te148  1  0.94406907  0.59394833  0.41104414  1
  Te  Te149  1  0.90216480  0.56136374  0.73457709  1
  Te  Te150  1  0.89957304  0.91485759  0.08918246  1
  Te  Te151  1  0.91983285  0.91921465  0.43332875  1
  Te  Te152  1  0.92421336  0.91728693  0.74447976  1
  Te  Te153  1  0.26106643  0.06981102  0.25163382  1
  Te  Te154  1  0.21679374  0.07406900  0.58349828  1
  Te  Te155  1  0.25867489  0.07959347  0.91014325  1
  Te  Te156  1  0.22129857  0.43203837  0.26192878  1
  Te  Te157  1  0.24779825  0.41312163  0.57542687  1
  Te  Te158  1  0.23756010  0.42460369  0.91133256  1
  Te  Te159  1  0.26172320  0.73526168  0.27340861  1
  Te  Te160  1  0.27735801  0.76647817  0.55840035  1
  Te  Te161  1  0.26151149  0.72521847  0.91644386  1
  Te  Te162  1  0.60076145  0.09171179  0.24294513  1
  Te  Te163  1  0.59004688  0.10457108  0.56208851  1
  Te  Te164  1  0.62053691  0.07708287  0.93287018  1
  Te  Te165  1  0.59157174  0.42809457  0.26857910  1
  Te  Te166  1  0.56908672  0.43868041  0.59750299  1
  Te  Te167  1  0.55526858  0.42266025  0.87619851  1
  Te  Te168  1  0.58518673  0.75490688  0.25148262  1
  Te  Te169  1  0.59095481  0.71473689  0.61750015  1
  Te  Te170  1  0.59206668  0.75498518  0.89270619  1
  Te  Te171  1  0.91516925  0.06111400  0.24727460  1
  Te  Te172  1  0.94031566  0.12053588  0.56036438  1
  Te  Te173  1  0.89068196  0.09553162  0.94641541  1
  Te  Te174  1  0.90035577  0.40031489  0.22286362  1
  Te  Te175  1  0.90757133  0.37366019  0.58779725  1
  Te  Te176  1  0.91760604  0.41757218  0.91954169  1
  Te  Te177  1  0.93736756  0.73736262  0.26531454  1
  Te  Te178  1  0.92915970  0.75203955  0.56914473  1
  Te  Te179  1  0.93266419  0.73235025  0.90197557  1
