# generated using pymatgen
data_In2Te3
_symmetry_space_group_name_H-M   'P 1'
_cell_length_a   18.78638413
_cell_length_b   18.79167181
_cell_length_c   18.80020384
_cell_angle_alpha   89.88930984
_cell_angle_beta   90.06913454
_cell_angle_gamma   89.96717509
_symmetry_Int_Tables_number   1
_chemical_formula_structural   In2Te3
_chemical_formula_sum   'In72 Te108'
_cell_volume   6636.97186962
_cell_formula_units_Z   36
loop_
 _symmetry_equiv_pos_site_id
 _symmetry_equiv_pos_as_xyz
  1  'x, y, z'
loop_
 _atom_site_type_symbol
 _atom_site_label
 _atom_site_symmetry_multiplicity
 _atom_site_fract_x
 _atom_site_fract_y
 _atom_site_fract_z
 _atom_site_occupancy
  In  In0  1  0.84184720  0.49675259  0.31716575  1
  In  In1  1  0.00655644  0.49673286  0.82489398  1
  In  In2  1  0.48323022  0.01643290  0.80409892  1
  In  In3  1  0.30292514  0.66159861  0.01894099  1
  In  In4  1  0.32909944  0.33690230  0.32660654  1
  In  In5  1  0.87619713  0.84754410  0.02439986  1
  In  In6  1  0.02261058  0.17772590  0.48140337  1
  In  In7  1  0.00369516  0.17027969  0.84750808  1
  In  In8  1  0.15110380  0.66864189  0.84294846  1
  In  In9  1  0.31469636  0.85721508  0.17372378  1
  In  In10  1  0.33960637  0.68770306  0.66958752  1
  In  In11  1  0.30806741  0.00957887  0.00314479  1
  In  In12  1  0.66667888  0.00356182  0.32967441  1
  In  In13  1  0.52064075  0.30060062  0.79459961  1
  In  In14  1  0.66534824  0.17357265  0.50590090  1
  In  In15  1  0.51340765  0.64152910  0.13856401  1
  In  In16  1  0.81146990  0.16353331  0.66158455  1
  In  In17  1  0.01230395  0.65422990  0.69053524  1
  In  In18  1  0.83330267  0.85844098  0.66910356  1
  In  In19  1  0.13965567  0.01694379  0.16508658  1
  In  In20  1  0.68191890  0.35703046  -0.00436810  1
  In  In21  1  -0.00163862  0.82384025  0.49702929  1
  In  In22  1  0.50717198  0.02446859  0.50800888  1
  In  In23  1  0.64783219  0.47776181  0.51265697  1
  In  In24  1  0.51413160  0.01624827  0.16179588  1
  In  In25  1  0.16881175  0.00414619  0.47807082  1
  In  In26  1  0.85602793  0.46843311  0.65930461  1
  In  In27  1  0.67520984  0.66357035  0.68318563  1
  In  In28  1  0.84571514  0.16034292  -0.01046443  1
  In  In29  1  0.33692083  0.48584732  0.85491653  1
  In  In30  1  0.49833139  0.47979263  0.32881537  1
  In  In31  1  -0.00630171  0.15135084  0.15150526  1
  In  In32  1  0.15559582  0.65529658  0.52635303  1
  In  In33  1  0.82533366  -0.00174026  0.49782680  1
  In  In34  1  0.36469952  0.18054919  0.52574488  1
  In  In35  1  0.70747531  0.67839536  0.34380241  1
  In  In36  1  0.51926043  0.47395687  0.66336512  1
  In  In37  1  0.69100925  0.80681777  0.17889135  1
  In  In38  1  0.14989307  0.84365209  0.32108602  1
  In  In39  1  0.33564569  0.01565168  0.66108000  1
  In  In40  1  0.68209440  0.49583639  0.83907017  1
  In  In41  1  0.67593762  0.33044202  0.34120202  1
  In  In42  1  0.30799203  0.51016602  0.16484560  1
  In  In43  1  0.31395350  0.68963001  0.32621228  1
  In  In44  1  0.01045782  0.31333859  0.00642374  1
  In  In45  1  -0.01236042  0.34161426  0.33901645  1
  In  In46  1  0.68074045  0.17408593  0.17787968  1
  In  In47  1  0.83731784  0.50343783  0.01498055  1
  In  In48  1  0.31934296  0.48968123  0.49024284  1
  In  In49  1  0.33164271  0.82730373  0.83707255  1
  In  In50  1  0.15870119  0.48332769  0.67160072  1
  In  In51  1  0.16838279  0.80614567  0.68063069  1
  In  In52  1  0.49303505  0.51165519  0.00620952  1
  In  In53  1  0.48765642  0.16566925  -0.01193316  1
  In  In54  1  0.13201807  -0.01300659  0.86916763  1
  In  In55  1  0.50726835  0.84254531  0.33752302  1
  In  In56  1  0.49784483  0.85449163  0.65925332  1
  In  In57  1  0.50181846  0.81294040  -0.01637184  1
  In  In58  1  0.83861738  0.65687430  0.48012702  1
  In  In59  1  0.17140621  0.21271132  0.67689729  1
  In  In60  1  -0.00258815  -0.00534412  0.67795956  1
  In  In61  1  0.50099997  0.32017150  0.18501632  1
  In  In62  1  0.30417583  0.33285983  -0.00177011  1
  In  In63  1  0.66533495  0.82881274  0.84692008  1
  In  In64  1  0.81880025  0.33248172  0.81858907  1
  In  In65  1  0.14636966  0.35387890  0.48551179  1
  In  In66  1  0.17317525  0.15708085  0.32907969  1
  In  In67  1  0.66018996  -0.01163738  0.00097187  1
  In  In68  1  0.85871017  0.67592411  0.15047867  1
  In  In69  1  0.85045772  0.81718448  0.32234433  1
  In  In70  1  0.16778880  0.34003378  0.15438333  1
  In  In71  1  0.51126111  0.66220202  0.51024910  1
  Te  Te72  1  0.08514774  0.09466086  0.05027769  1
  Te  Te73  1  0.06401598  0.06516395  0.38582460  1
  Te  Te74  1  0.09704181  0.08906611  0.74426536  1
  Te  Te75  1  0.05066429  0.41999562  0.10450244  1
  Te  Te76  1  0.07115619  0.44934651  0.40093428  1
  Te  Te77  1  0.10046309  0.39349755  0.77416970  1
  Te  Te78  1  0.09441786  0.71787447  0.11197326  1
  Te  Te79  1  0.08632753  0.73392517  0.41353927  1
  Te  Te80  1  0.05154927  0.77739734  0.77144478  1
  Te  Te81  1  0.40231515  0.09292537  0.09085816  1
  Te  Te82  1  0.40806836  0.08927762  0.42009616  1
  Te  Te83  1  0.39848300  0.12731758  0.74323833  1
  Te  Te84  1  0.40965571  0.41551982  0.09448058  1
  Te  Te85  1  0.42532931  0.39651710  0.43154499  1
  Te  Te86  1  0.40969047  0.40776416  0.74803008  1
  Te  Te87  1  0.40793835  0.75432227  0.09534439  1
  Te  Te88  1  0.41977315  0.74785791  0.42174520  1
  Te  Te89  1  0.44198559  0.75343083  0.76090825  1
  Te  Te90  1  0.75195297  0.07831890  0.08237168  1
  Te  Te91  1  0.75905998  0.09837113  0.40448962  1
  Te  Te92  1  0.73290626  0.10512121  0.77128633  1
  Te  Te93  1  0.76996128  0.40451831  0.10323857  1
  Te  Te94  1  0.76248340  0.42322714  0.42837398  1
  Te  Te95  1  0.72932198  0.40931621  0.72182798  1
  Te  Te96  1  0.75795255  0.74711210  0.05889059  1
  Te  Te97  1  0.75730465  0.78115854  0.44167018  1
  Te  Te98  1  0.76930048  0.75305033  0.76228104  1
  Te  Te99  1  0.08020847  0.24809809  0.24975079  1
  Te  Te100  1  0.05668344  0.27912514  0.59392078  1
  Te  Te101  1  0.10839394  0.24795077  0.91774497  1
  Te  Te102  1  0.10829009  0.60759099  0.20527062  1
  Te  Te103  1  0.05409527  0.55310408  0.58227412  1
  Te  Te104  1  0.04515244  0.60247786  0.92623952  1
  Te  Te105  1  0.05462766  0.90546238  0.22415831  1
  Te  Te106  1  0.09112063  0.91083944  0.58498363  1
  Te  Te107  1  0.04443367  0.88763569  0.93481729  1
  Te  Te108  1  0.40083867  0.23446279  0.24968719  1
  Te  Te109  1  0.45086840  0.26655303  0.60823371  1
  Te  Te110  1  0.40830488  0.26614917  0.90813655  1
  Te  Te111  1  0.41056983  0.58434910  0.25804688  1
  Te  Te112  1  0.41176496  0.57312693  0.58864460  1
  Te  Te113  1  0.40533960  0.60460201  0.91927726  1
  Te  Te114  1  0.41939376  0.93561502  0.25476574  1
  Te  Te115  1  0.40141341  0.91989337  0.56323653  1
  Te  Te116  1  0.42063057  0.92840019  0.92196732  1
  Te  Te117  1  0.77366686  0.25672666  0.25648847  1
  Te  Te118  1  0.76656285  0.26544028  0.56556720  1
  Te  Te119  1  0.73924993  0.24252928  0.91239302  1
  Te  Te120  1  0.75589739  0.59046191  0.23163608  1
  Te  Te121  1  0.75015122  0.57796945  0.57947757  1
  Te  Te122  1  0.77328825  0.58660894  0.90953770  1
  Te  Te123  1  0.76380384  0.92208143  0.24500239  1
  Te  Te124  1  0.73533995  0.94622566  0.60195037  1
  Te  Te125  1  0.76582231  0.91043855  0.92806830  1
  Te  Te126  1  0.24970551  0.23413497  0.09275658  1
  Te  Te127  1  0.24449724  0.24952078  0.43022536  1
  Te  Te128  1  0.28538954  0.23344407  0.76744876  1
  Te  Te129  1  0.19952561  0.56529457  0.07364303  1
  Te  Te130  1  0.23522768  0.58778864  0.41099190  1
  Te  Te131  1  0.24528367  0.59370605  0.74545759  1
  Te  Te132  1  0.21737066  0.91039795  0.07238007  1
  Te  Te133  1  0.25310743  0.91157556  0.40040378  1
  Te  Te134  1  0.24638188  0.91909907  0.74895085  1
  Te  Te135  1  0.58585890  0.25013026  0.07224947  1
  Te  Te136  1  0.57712092  0.24395850  0.40779464  1
  Te  Te137  1  0.62622628  0.20277971  0.73296918  1
  Te  Te138  1  0.61713665  0.56800114  0.06583908  1
  Te  Te139  1  0.59261416  0.58282170  0.40696065  1
  Te  Te140  1  0.57471246  0.57786438  0.75926933  1
  Te  Te141  1  0.58167702  0.89434688  0.09752365  1
  Te  Te142  1  0.59523218  0.91956279  0.43479239  1
  Te  Te143  1  0.59558843  0.92784095  0.75063876  1
  Te  Te144  1  0.89749155  0.25755950  0.09406172  1
  Te  Te145  1  0.90840607  0.23735477  0.40837171  1
  Te  Te146  1  0.91794388  0.24393104  0.74577903  1
  Te  Te147  1  0.94877570  0.59084266  0.06566550  1
  Te  Te148  1  0.93440123  0.58463947  0.39515559  1
  Te  Te149  1  0.89621508  0.57936077  0.75572295  1
  Te  Te150  1  0.93390786  0.94868636  0.11988649  1
  Te  Te151  1  0.92466232  0.92238216  0.40862766  1
  Te  Te152  1  0.89277404  0.94936885  0.77234826  1
  Te  Te153  1  0.25320053  0.06524786  0.24694338  1
  Te  Te154  1  0.23014435  0.10108594  0.57975847  1
  Te  Te155  1  0.24593687  0.07995359  0.88938091  1
  Te  Te156  1  0.22584933  0.42969889  0.26591309  1
  Te  Te157  1  0.25472676  0.39665177  0.59142462  1
  Te  Te158  1  0.21947917  0.42957569  0.92301064  1
  Te  Te159  1  0.21755933  0.73447292  0.21338023  1
  Te  Te160  1  0.25833383  0.76269630  0.56479563  1
  Te  Te161  1  0.22971747  0.76598333  0.93185142  1
  Te  Te162  1  0.57371917  0.10803658  0.26723206  1
  Te  Te163  1  0.57722261  0.10752136  0.61147274  1
  Te  Te164  1  0.58161239  0.07899040  0.90623430  1
  Te  Te165  1  0.60050505  0.42375653  0.23431272  1
  Te  Te166  1  0.57196489  0.36239339  0.57638775  1
  Te  Te167  1  0.56559599  0.40956815  0.90772500  1
  Te  Te168  1  0.57654239  0.73454782  0.25292754  1
  Te  Te169  1  0.59710490  0.75793153  0.58997229  1
  Te  Te170  1  0.59550621  0.72052837  0.92081411  1
  Te  Te171  1  0.90750632  0.05728836  0.22529707  1
  Te  Te172  1  0.93328203  0.08589221  0.57417841  1
  Te  Te173  1  0.92330947  0.06083489  0.91018259  1
  Te  Te174  1  0.94020279  0.43074972  0.22555895  1
  Te  Te175  1  0.95671868  0.40563496  0.57493647  1
  Te  Te176  1  0.91546867  0.40235387  0.91426687  1
  Te  Te177  1  0.95161620  0.73752217  0.24923952  1
  Te  Te178  1  0.91722820  0.73874657  0.59459957  1
  Te  Te179  1  0.95183704  0.76183366  0.93221094  1
