# generated using pymatgen
data_In2Te3
_symmetry_space_group_name_H-M   'P 1'
_cell_length_a   18.75580429
_cell_length_b   18.76081987
_cell_length_c   18.76214001
_cell_angle_alpha   89.85038820
_cell_angle_beta   90.06429155
_cell_angle_gamma   89.95131084
_symmetry_Int_Tables_number   1
_chemical_formula_structural   In2Te3
_chemical_formula_sum   'In72 Te108'
_cell_volume   6601.88517917
_cell_formula_units_Z   36
loop_
 _symmetry_equiv_pos_site_id
 _symmetry_equiv_pos_as_xyz
  1  'x, y, z'
loop_
 _atom_site_type_symbol
 _atom_site_label
 _atom_site_symmetry_multiplicity
 _atom_site_fract_x
 _atom_site_fract_y
 _atom_site_fract_z
 _atom_site_occupancy
  In  In0  1  0.67048403  0.30803261  0.67014116  1
  In  In1  1  0.80455820  0.12951318  0.36038834  1
  In  In2  1  0.31952895  0.67623772  -0.01111617  1
  In  In3  1  0.00288501  0.65528413  0.00317855  1
  In  In4  1  0.84159961  0.18644716  -0.00284104  1
  In  In5  1  0.00664715  0.84899069  0.50608996  1
  In  In6  1  0.18328514  -0.00238857  0.49880286  1
  In  In7  1  0.81154571  0.82387446  0.01718500  1
  In  In8  1  0.32396704  0.30897958  0.34696269  1
  In  In9  1  0.19277436  0.01350444  0.20969567  1
  In  In10  1  0.16808289  0.82981302  -0.00127254  1
  In  In11  1  0.49001136  0.15826466  0.33286571  1
  In  In12  1  0.67882254  0.53119200  0.84611644  1
  In  In13  1  0.02041752  0.16218001  0.16363843  1
  In  In14  1  0.82500477  0.33542176  0.17839639  1
  In  In15  1  -0.00894562  -0.01738296  0.66248375  1
  In  In16  1  0.82050936  0.67323593  0.84073544  1
  In  In17  1  0.32994527  0.51443899  0.84157999  1
  In  In18  1  0.64055819  0.51055737  0.17176049  1
  In  In19  1  0.51764032  0.51837627  0.67382077  1
  In  In20  1  0.36383646  0.49691865  0.14305789  1
  In  In21  1  0.80414894  0.50840466  0.30579300  1
  In  In22  1  0.18640731  0.49757841  0.67589702  1
  In  In23  1  0.82655266  -0.00604341  0.83234185  1
  In  In24  1  0.67936294  0.49665162  0.50179820  1
  In  In25  1  0.49103052  0.50079771  0.31152635  1
  In  In26  1  0.49297081  0.29267226  0.50089587  1
  In  In27  1  -0.00415828  0.32839176  0.31590373  1
  In  In28  1  0.64725832  0.67456741  0.64996416  1
  In  In29  1  0.82078249  0.32957770  0.50871005  1
  In  In30  1  0.01174650  0.50500220  0.85572653  1
  In  In31  1  0.18564646  0.67833909  0.17228249  1
  In  In32  1  0.85739686  0.35639415  0.84347025  1
  In  In33  1  0.81263332  0.81973202  0.33943061  1
  In  In34  1  0.81682501  0.84702263  0.63669093  1
  In  In35  1  0.50202738  0.31979458  0.85099823  1
  In  In36  1  0.01991779  0.50024175  0.48662028  1
  In  In37  1  0.64059375  0.17203049  0.15822201  1
  In  In38  1  0.18997704  0.32838116  0.13482510  1
  In  In39  1  0.00722771  -0.02297357  0.32931045  1
  In  In40  1  0.50130752  0.00376129  0.50085738  1
  In  In41  1  0.01596690  0.36994161  -0.02014600  1
  In  In42  1  0.02738350  -0.00829808  0.00764664  1
  In  In43  1  0.51820578  0.81435022  -0.02131278  1
  In  In44  1  0.35014161  0.51539097  0.51656781  1
  In  In45  1  0.85723942  0.52111536  0.70497739  1
  In  In46  1  0.34355735  0.32830370  0.64925294  1
  In  In47  1  0.48461985  0.16351619  0.01008146  1
  In  In48  1  0.17481305  0.51091039  0.33147515  1
  In  In49  1  0.35617144  0.14774766  0.81166572  1
  In  In50  1  0.35251334  0.01217140  -0.00184297  1
  In  In51  1  0.80732195  0.14869328  0.65386650  1
  In  In52  1  0.00719012  0.15908653  0.51760025  1
  In  In53  1  -0.00944055  0.67972740  0.32787173  1
  In  In54  1  0.65890582  0.66429775  0.32236102  1
  In  In55  1  0.49908823  0.68948562  0.51444011  1
  In  In56  1  0.83864722  0.69360787  0.48467384  1
  In  In57  1  0.00544817  0.30954916  0.64744127  1
  In  In58  1  0.17510341  0.68144325  0.51247133  1
  In  In59  1  0.19621737  -0.02663423  0.83620183  1
  In  In60  1  0.18207738  0.34779698  0.85032887  1
  In  In61  1  0.65708529  0.33896550  -0.00430027  1
  In  In62  1  0.65797009  -0.00720956  0.00174576  1
  In  In63  1  0.33615476  0.83306261  0.49289506  1
  In  In64  1  0.01352722  0.19167497  0.83882103  1
  In  In65  1  0.35340844  0.82180366  0.80645699  1
  In  In66  1  0.65462612  0.14838826  0.80727776  1
  In  In67  1  0.82131651  -0.01569496  0.18777963  1
  In  In68  1  0.33866524  0.84447242  0.19453536  1
  In  In69  1  0.51149580  0.67569254  0.17145403  1
  In  In70  1  0.18021269  0.14022735  0.65643930  1
  In  In71  1  0.49081777  -0.00974179  0.15343544  1
  Te  Te72  1  0.12194418  0.08291351  0.08463556  1
  Te  Te73  1  0.08441561  0.07966416  0.41171189  1
  Te  Te74  1  0.07426553  0.08169514  0.75182379  1
  Te  Te75  1  0.08843641  0.42807299  0.09411337  1
  Te  Te76  1  0.09890992  0.39917772  0.40763855  1
  Te  Te77  1  0.07273083  0.40508921  0.74758544  1
  Te  Te78  1  0.07781299  0.75664006  0.09569332  1
  Te  Te79  1  0.08786303  0.76105955  0.41155847  1
  Te  Te80  1  0.03978079  0.74489578  0.71107488  1
  Te  Te81  1  0.39090763  0.10352145  0.11583122  1
  Te  Te82  1  0.39846555  0.05363378  0.39640889  1
  Te  Te83  1  0.43522265  0.04369153  0.73907879  1
  Te  Te84  1  0.44036457  0.39425859  0.07370574  1
  Te  Te85  1  0.42108212  0.41536863  0.42426007  1
  Te  Te86  1  0.42000915  0.41650209  0.74790253  1
  Te  Te87  1  0.40707089  0.76559521  0.08116452  1
  Te  Te88  1  0.43193366  0.75845708  0.40269413  1
  Te  Te89  1  0.45817394  0.73844070  0.74233190  1
  Te  Te90  1  0.75298258  0.08926759  0.07806532  1
  Te  Te91  1  0.71552982  0.03818921  0.43723348  1
  Te  Te92  1  0.72759668  0.03889249  0.72400425  1
  Te  Te93  1  0.74129764  0.42558725  0.08775333  1
  Te  Te94  1  0.74052423  0.40153181  0.39881721  1
  Te  Te95  1  0.73727488  0.41969560  0.75058947  1
  Te  Te96  1  0.73239322  0.72222810  0.08938055  1
  Te  Te97  1  0.70720389  0.75036853  0.44151516  1
  Te  Te98  1  0.74177115  0.75956441  0.73777446  1
  Te  Te99  1  0.10884389  0.25085744  0.24907118  1
  Te  Te100  1  0.11912901  0.25194876  0.56561993  1
  Te  Te101  1  0.10458244  0.24787214  0.94268463  1
  Te  Te102  1  0.07862018  0.58855466  0.24246864  1
  Te  Te103  1  0.08610082  0.58360904  0.59271220  1
  Te  Te104  1  0.11020195  0.59252496  0.92061061  1
  Te  Te105  1  0.08720151  0.91106001  0.22583996  1
  Te  Te106  1  0.10932181  0.90780617  0.60253585  1
  Te  Te107  1  0.07568021  0.90079168  0.89492086  1
  Te  Te108  1  0.41972946  0.25766291  0.24731659  1
  Te  Te109  1  0.39157587  0.20946520  0.57203711  1
  Te  Te110  1  0.38502623  0.25480878  0.92908368  1
  Te  Te111  1  0.39981980  0.60398012  0.24872771  1
  Te  Te112  1  0.40739652  0.61264584  0.61685830  1
  Te  Te113  1  0.42378281  0.59055162  0.92890364  1
  Te  Te114  1  0.41767009  0.94191779  0.27653522  1
  Te  Te115  1  0.43563507  0.89752788  0.59121568  1
  Te  Te116  1  0.42630253  0.91434727  0.90664656  1
  Te  Te117  1  0.74656611  0.22945023  0.25546402  1
  Te  Te118  1  0.71912995  0.22156708  0.55252235  1
  Te  Te119  1  0.74015038  0.25012588  0.89915702  1
  Te  Te120  1  0.76128201  0.62542791  0.21330150  1
  Te  Te121  1  0.76138997  0.58523810  0.59561777  1
  Te  Te122  1  0.72716478  0.62694255  0.95475084  1
  Te  Te123  1  0.72043366  0.90013298  0.25246504  1
  Te  Te124  1  0.72587188  0.91489668  0.53806993  1
  Te  Te125  1  0.73087747  0.89988403  0.90582763  1
  Te  Te126  1  0.29280310  0.25583627  0.05911322  1
  Te  Te127  1  0.25943476  0.19713872  0.41719688  1
  Te  Te128  1  0.24692044  0.25092917  0.74963955  1
  Te  Te129  1  0.24647295  0.57596402  0.07790519  1
  Te  Te130  1  0.26518440  0.59769886  0.41910259  1
  Te  Te131  1  0.24492873  0.60408072  0.75742807  1
  Te  Te132  1  0.25742171  0.92196853  0.08197272  1
  Te  Te133  1  0.24099554  0.90359825  0.39902364  1
  Te  Te134  1  0.26305864  0.90883485  0.72281815  1
  Te  Te135  1  0.55149718  0.28314574  0.09382956  1
  Te  Te136  1  0.59328851  0.23249744  0.41179350  1
  Te  Te137  1  0.54975305  0.23637404  0.73308960  1
  Te  Te138  1  0.56731729  0.58670164  0.06787789  1
  Te  Te139  1  0.57206759  0.57723905  0.42749326  1
  Te  Te140  1  0.56233780  0.62532012  0.78621824  1
  Te  Te141  1  0.59103893  0.89091284  0.09116522  1
  Te  Te142  1  0.60669464  0.92198353  0.43119780  1
  Te  Te143  1  0.55709577  0.95685502  0.72428256  1
  Te  Te144  1  0.93492618  0.26847861  0.08499715  1
  Te  Te145  1  0.91568359  0.24466296  0.41913866  1
  Te  Te146  1  0.89602817  0.23830539  0.74078849  1
  Te  Te147  1  0.91340211  0.55835219  0.06913878  1
  Te  Te148  1  0.90221758  0.57051012  0.41499431  1
  Te  Te149  1  0.95731203  0.62648727  0.76669659  1
  Te  Te150  1  0.91450322  0.92096207  0.08384328  1
  Te  Te151  1  0.90091710  0.91876319  0.42017781  1
  Te  Te152  1  0.91162836  0.89301718  0.75609030  1
  Te  Te153  1  0.27099603  0.11235593  0.29267303  1
  Te  Te154  1  0.28688412  0.06995402  0.58129111  1
  Te  Te155  1  0.25148928  0.09065628  0.91096762  1
  Te  Te156  1  0.26572727  0.42174577  0.24672038  1
  Te  Te157  1  0.24709677  0.41237497  0.56446311  1
  Te  Te158  1  0.26402734  0.42624892  0.94286065  1
  Te  Te159  1  0.24423401  0.76561416  0.27744253  1
  Te  Te160  1  0.25897844  0.76262490  0.60260526  1
  Te  Te161  1  0.23730343  0.75398882  0.88576534  1
  Te  Te162  1  0.58741824  0.06463595  0.24861550  1
  Te  Te163  1  0.55679417  0.07361086  0.62407014  1
  Te  Te164  1  0.56657133  0.07818668  0.91357454  1
  Te  Te165  1  0.59285254  0.40529024  0.26404984  1
  Te  Te166  1  0.58042197  0.40776891  0.58239562  1
  Te  Te167  1  0.57328087  0.43816957  0.91392130  1
  Te  Te168  1  0.56719857  0.77032644  0.27075302  1
  Te  Te169  1  0.55712941  0.79349278  0.61402721  1
  Te  Te170  1  0.60796828  0.73833704  0.89002983  1
  Te  Te171  1  0.91612264  0.09157587  0.25049173  1
  Te  Te172  1  0.89957950  0.06274229  0.56837735  1
  Te  Te173  1  0.92206724  0.07983985  0.91856427  1
  Te  Te174  1  0.92344489  0.43781455  0.23728354  1
  Te  Te175  1  0.91417013  0.42293732  0.58668956  1
  Te  Te176  1  0.88558019  0.47042609  0.94612046  1
  Te  Te177  1  0.90677016  0.76168235  0.23876662  1
  Te  Te178  1  0.93683612  0.74103545  0.59734264  1
  Te  Te179  1  0.91607980  0.75868729  0.92605090  1
