# generated using pymatgen
data_In2Te3
_symmetry_space_group_name_H-M   'P 1'
_cell_length_a   18.89222220
_cell_length_b   18.88259557
_cell_length_c   18.88643458
_cell_angle_alpha   90.03488136
_cell_angle_beta   90.14533068
_cell_angle_gamma   90.04873674
_symmetry_Int_Tables_number   1
_chemical_formula_structural   In2Te3
_chemical_formula_sum   'In72 Te108'
_cell_volume   6737.41159336
_cell_formula_units_Z   36
loop_
 _symmetry_equiv_pos_site_id
 _symmetry_equiv_pos_as_xyz
  1  'x, y, z'
loop_
 _atom_site_type_symbol
 _atom_site_label
 _atom_site_symmetry_multiplicity
 _atom_site_fract_x
 _atom_site_fract_y
 _atom_site_fract_z
 _atom_site_occupancy
  In  In0  1  0.36147335  0.51400208  0.51096236  1
  In  In1  1  0.15597263  0.66162431  0.80945465  1
  In  In2  1  0.16208456  0.84856905  0.00545786  1
  In  In3  1  -0.01313223  0.65393478  0.33082716  1
  In  In4  1  0.66452160  0.66925031  0.31554297  1
  In  In5  1  0.82855058  0.48293253  0.68184008  1
  In  In6  1  0.15960941  0.48410825  0.69602321  1
  In  In7  1  0.17969548  0.00652552  0.17491343  1
  In  In8  1  0.81044134  0.01848966  0.83117349  1
  In  In9  1  0.32427721  0.18764614  0.15764006  1
  In  In10  1  0.84784860  0.30797434  0.55970776  1
  In  In11  1  0.18195499  0.81048018  0.30494613  1
  In  In12  1  0.19845036  -0.01235868  0.50456686  1
  In  In13  1  0.82824077  0.65964781  0.48263860  1
  In  In14  1  0.35691201  0.48711805  0.13000934  1
  In  In15  1  0.67020826  0.48569115  0.13306654  1
  In  In16  1  -0.00106570  0.66661036  -0.00830374  1
  In  In17  1  0.82641394  -0.02238067  0.51122698  1
  In  In18  1  0.01198739  0.15938935  0.17833268  1
  In  In19  1  0.67218681  0.66841625  -0.00580058  1
  In  In20  1  -0.00871154  0.33946725  0.01046284  1
  In  In21  1  0.35594153  0.32270465  0.33225651  1
  In  In22  1  0.16380177  0.64614186  0.49299551  1
  In  In23  1  0.60219580  0.16381183  0.09285035  1
  In  In24  1  0.51553841  0.33080299  0.50563304  1
  In  In25  1  0.36030459  0.43936525  0.89242024  1
  In  In26  1  0.66194952  0.33154128  0.31779396  1
  In  In27  1  0.66938588  0.17328848  0.51694021  1
  In  In28  1  0.35297708  0.01189243  -0.00038896  1
  In  In29  1  0.81001941  0.50426273  0.34328997  1
  In  In30  1  -0.01207013  0.81183235  0.52433321  1
  In  In31  1  0.50186408  0.66795662  0.82885695  1
  In  In32  1  -0.01880633  0.52227499  0.17226392  1
  In  In33  1  0.36543529  0.19858702  0.87229473  1
  In  In34  1  0.35357718  0.68689971  0.31697107  1
  In  In35  1  0.82831924  0.16981035  0.34319774  1
  In  In36  1  -0.01817441  0.66591445  0.66819479  1
  In  In37  1  0.80264649  0.21299127  -0.01183574  1
  In  In38  1  0.03603702  -0.01746576  0.34932273  1
  In  In39  1  0.00520125  0.14536376  0.53397765  1
  In  In40  1  0.82356707  0.82659665  -0.01516933  1
  In  In41  1  0.82775194  0.01693972  0.15022237  1
  In  In42  1  0.34067713  0.63687784  0.65653085  1
  In  In43  1  0.31670692  0.34470607  0.69549138  1
  In  In44  1  0.50117324  0.67444020  0.16432292  1
  In  In45  1  0.17086000  0.83427561  0.66284137  1
  In  In46  1  0.66307654  0.82953582  0.82570995  1
  In  In47  1  0.32992567  0.85200853  0.84902207  1
  In  In48  1  0.79216990  0.34624919  0.15348826  1
  In  In49  1  0.16773755  0.16684050  0.00878146  1
  In  In50  1  -0.03849237  0.19029744  0.81023119  1
  In  In51  1  0.66877005  0.49243333  0.48825471  1
  In  In52  1  0.66707350  0.01705684  0.67952319  1
  In  In53  1  -0.01933477  0.00010591  0.69451427  1
  In  In54  1  0.60609373  -0.03462968  0.34656375  1
  In  In55  1  0.51390877  0.18092304  0.67772561  1
  In  In56  1  -0.00349626  0.47484213  0.83406428  1
  In  In57  1  0.83103209  0.82175129  0.30239638  1
  In  In58  1  0.01103605  0.32760688  0.32237971  1
  In  In59  1  0.48001643  0.13021970  0.30581334  1
  In  In60  1  0.65091864  0.87227648  0.13559252  1
  In  In61  1  0.65325055  0.50820766  0.84527485  1
  In  In62  1  0.34685343  0.02863128  0.69029827  1
  In  In63  1  0.35561685  0.83582151  0.47987447  1
  In  In64  1  -0.02538125  -0.02794369  -0.03733386  1
  In  In65  1  0.51279176  0.50772940  0.67312276  1
  In  In66  1  0.15354144  0.32051131  0.15431546  1
  In  In67  1  0.34270586  0.14749613  0.50912375  1
  In  In68  1  0.51073930  0.82643081  0.65500635  1
  In  In69  1  0.16141606  0.31198499  0.51555000  1
  In  In70  1  0.16222896  0.48953307  0.31822526  1
  In  In71  1  0.33739954  0.66651304  0.01707518  1
  Te  Te72  1  0.07331490  0.06508251  0.07661462  1
  Te  Te73  1  0.10576668  0.08690969  0.43176684  1
  Te  Te74  1  0.06472777  0.09150774  0.77173005  1
  Te  Te75  1  0.07897291  0.43456867  0.09007706  1
  Te  Te76  1  0.08601015  0.41400693  0.42370136  1
  Te  Te77  1  0.07807760  0.37874874  0.75534358  1
  Te  Te78  1  0.08835833  0.74605826  0.07911784  1
  Te  Te79  1  0.08433480  0.75427393  0.41939080  1
  Te  Te80  1  0.06446218  0.76752627  0.74834136  1
  Te  Te81  1  0.43089791  0.11218116  0.08132318  1
  Te  Te82  1  0.41905987  0.05695182  0.42194306  1
  Te  Te83  1  0.44159324  0.09720136  0.78533862  1
  Te  Te84  1  0.43991137  0.39706249  0.04299490  1
  Te  Te85  1  0.43711627  0.42339554  0.41377906  1
  Te  Te86  1  0.43652573  0.40951002  0.76251893  1
  Te  Te87  1  0.41895823  0.76847708  0.08497749  1
  Te  Te88  1  0.45387707  0.75586986  0.40344039  1
  Te  Te89  1  0.39956355  0.75238621  0.74577972  1
  Te  Te90  1  0.73787098  0.09152928  0.05454543  1
  Te  Te91  1  0.74212710  0.07439333  0.42486379  1
  Te  Te92  1  0.69633664  0.11093998  0.79614897  1
  Te  Te93  1  0.78214885  0.44347390  0.04205300  1
  Te  Te94  1  0.75904534  0.38146676  0.42558852  1
  Te  Te95  1  0.73999425  0.40915884  0.77568418  1
  Te  Te96  1  0.74400057  0.75792397  0.09492046  1
  Te  Te97  1  0.74317439  0.76176300  0.40988207  1
  Te  Te98  1  0.78420914  0.78465817  0.75723914  1
  Te  Te99  1  0.11304376  0.22800957  0.26836305  1
  Te  Te100  1  0.07598894  0.24747368  0.61514817  1
  Te  Te101  1  0.06058291  0.23595983  0.92547342  1
  Te  Te102  1  0.09869488  0.60081813  0.24057226  1
  Te  Te103  1  0.08188878  0.57533068  0.59689547  1
  Te  Te104  1  0.09106543  0.56850795  0.90833944  1
  Te  Te105  1  0.08248527  0.90025145  0.23221932  1
  Te  Te106  1  0.07257359  0.92674644  0.58030523  1
  Te  Te107  1  0.09452543  0.92267240  0.89673393  1
  Te  Te108  1  0.44191532  0.25989157  0.22700259  1
  Te  Te109  1  0.40739915  0.26520566  0.59237792  1
  Te  Te110  1  0.47198357  0.27581725  0.94825483  1
  Te  Te111  1  0.41977857  0.57028958  0.24050053  1
  Te  Te112  1  0.46284145  0.61071532  0.56922985  1
  Te  Te113  1  0.41602717  0.58098298  0.91677706  1
  Te  Te114  1  0.47765427  0.97801730  0.27258682  1
  Te  Te115  1  0.40393248  0.91935433  0.59706314  1
  Te  Te116  1  0.44064397  0.91852387  0.92146915  1
  Te  Te117  1  0.73851046  0.22769829  0.23525444  1
  Te  Te118  1  0.73601097  0.24123511  0.63183751  1
  Te  Te119  1  0.71718212  0.26181378  0.87691923  1
  Te  Te120  1  0.75245551  0.58102618  0.22861348  1
  Te  Te121  1  0.75137894  0.57657980  0.58356764  1
  Te  Te122  1  0.75172589  0.61185060  0.88530860  1
  Te  Te123  1  0.74406098  0.93510992  0.24991578  1
  Te  Te124  1  0.72051068  0.90888350  0.58935577  1
  Te  Te125  1  0.72971618  0.92835938  0.92439440  1
  Te  Te126  1  0.25935138  0.28640526  0.04770306  1
  Te  Te127  1  0.26257250  0.24437781  0.42235293  1
  Te  Te128  1  0.25094341  0.24760494  0.78553555  1
  Te  Te129  1  0.24851279  0.55840142  0.06368758  1
  Te  Te130  1  0.26659168  0.58253739  0.40166976  1
  Te  Te131  1  0.26929005  0.56233468  0.76709744  1
  Te  Te132  1  0.27001962  0.92076880  0.08858965  1
  Te  Te133  1  0.26200668  0.91199356  0.38712694  1
  Te  Te134  1  0.24306635  0.93267026  0.75327361  1
  Te  Te135  1  0.60238238  0.30632672  0.03663218  1
  Te  Te136  1  0.57681660  0.23240144  0.40804213  1
  Te  Te137  1  0.58960671  0.24678685  0.78598155  1
  Te  Te138  1  0.57117740  0.58196185  0.06656957  1
  Te  Te139  1  0.58813932  0.57179618  0.39515698  1
  Te  Te140  1  0.60459475  0.61244945  0.73456755  1
  Te  Te141  1  0.55264715  0.94888272  0.05272454  1
  Te  Te142  1  0.56688709  0.87250406  0.45639008  1
  Te  Te143  1  0.56880252  0.92568437  0.75455499  1
  Te  Te144  1  0.90936370  0.24549406  0.10790362  1
  Te  Te145  1  0.93643429  0.23978884  0.42491320  1
  Te  Te146  1  0.88044130  0.26025367  0.70624822  1
  Te  Te147  1  0.90141220  0.57645577  0.06199660  1
  Te  Te148  1  0.92688061  0.55688412  0.42932062  1
  Te  Te149  1  0.90803036  0.58271932  0.76914367  1
  Te  Te150  1  0.91290692  0.91060345  0.08611130  1
  Te  Te151  1  0.91844270  0.90346181  0.41281920  1
  Te  Te152  1  0.88191649  0.90612021  0.75846423  1
  Te  Te153  1  0.27175790  0.08912456  0.25352965  1
  Te  Te154  1  0.23798334  0.09529312  0.60666584  1
  Te  Te155  1  0.25676135  0.09052756  0.91340830  1
  Te  Te156  1  0.25932877  0.40263351  0.24006104  1
  Te  Te157  1  0.25385140  0.42794236  0.57567520  1
  Te  Te158  1  0.23669325  0.36372875  0.90939674  1
  Te  Te159  1  0.27414790  0.74811090  0.20906507  1
  Te  Te160  1  0.25476712  0.74265117  0.57275061  1
  Te  Te161  1  0.24247400  0.74241076  0.90871266  1
  Te  Te162  1  0.60522812  0.08373426  0.23508566  1
  Te  Te163  1  0.56759087  0.07892092  0.57917620  1
  Te  Te164  1  0.56337648  0.08154134  0.97530804  1
  Te  Te165  1  0.58314250  0.42177402  0.23427916  1
  Te  Te166  1  0.60311843  0.40870951  0.60033645  1
  Te  Te167  1  0.56979582  0.42599670  0.94009324  1
  Te  Te168  1  0.58735501  0.77611641  0.23796827  1
  Te  Te169  1  0.62014831  0.77761814  0.56968051  1
  Te  Te170  1  0.57057220  0.76009761  0.92695490  1
  Te  Te171  1  0.92648027  0.07036098  0.26911760  1
  Te  Te172  1  0.88650436  0.08069319  0.60480232  1
  Te  Te173  1  0.90233705  0.10235228  0.92981613  1
  Te  Te174  1  0.90246549  0.40981650  0.25357280  1
  Te  Te175  1  0.93275841  0.42010946  0.59801366  1
  Te  Te176  1  0.89569490  0.39803645  0.91351997  1
  Te  Te177  1  0.91997721  0.73353502  0.22823730  1
  Te  Te178  1  0.87286335  0.75164954  0.59981558  1
  Te  Te179  1  0.92217889  0.75664595  0.90190758  1
