# generated using pymatgen
data_In2Te3
_symmetry_space_group_name_H-M   'P 1'
_cell_length_a   18.77573599
_cell_length_b   18.78155250
_cell_length_c   18.78273843
_cell_angle_alpha   89.95635183
_cell_angle_beta   89.98864041
_cell_angle_gamma   89.95127762
_symmetry_Int_Tables_number   1
_chemical_formula_structural   In2Te3
_chemical_formula_sum   'In72 Te108'
_cell_volume   6623.49293350
_cell_formula_units_Z   36
loop_
 _symmetry_equiv_pos_site_id
 _symmetry_equiv_pos_as_xyz
  1  'x, y, z'
loop_
 _atom_site_type_symbol
 _atom_site_label
 _atom_site_symmetry_multiplicity
 _atom_site_fract_x
 _atom_site_fract_y
 _atom_site_fract_z
 _atom_site_occupancy
  In  In0  1  0.82366343  0.01764101  0.15383994  1
  In  In1  1  0.67607361  0.67962408  0.67490748  1
  In  In2  1  0.15701503  0.81433361  -0.01972973  1
  In  In3  1  0.82006171  0.47694892  0.31607339  1
  In  In4  1  0.16863872  0.61979872  0.17595736  1
  In  In5  1  0.15693707  0.18026002  0.67796488  1
  In  In6  1  0.82452623  0.66936001  0.14847405  1
  In  In7  1  0.32606830  0.51177578  0.51378512  1
  In  In8  1  0.35755944  0.13106385  0.47444056  1
  In  In9  1  0.53018793  -0.01073405  0.84562051  1
  In  In10  1  0.17797519  0.64132618  0.85235343  1
  In  In11  1  0.34895606  0.84270191  0.50142883  1
  In  In12  1  0.81584319  0.17381168  0.01525267  1
  In  In13  1  0.82611213  0.16484920  0.32419444  1
  In  In14  1  0.15670713  0.18341827  0.31317456  1
  In  In15  1  0.34273598  0.17378703  0.15607827  1
  In  In16  1  0.32976619  0.65687278  0.01763465  1
  In  In17  1  0.79452724  -0.03158575  0.85455103  1
  In  In18  1  -0.01004758  0.65041184  0.01060296  1
  In  In19  1  -0.00549838  0.49854729  0.49668361  1
  In  In20  1  -0.00924361  0.66349018  0.66150221  1
  In  In21  1  0.35887124  0.18642918  0.86317097  1
  In  In22  1  0.66581819  0.34083798  0.65233306  1
  In  In23  1  0.35423112  0.01771628  0.01515692  1
  In  In24  1  -0.00070238  0.81644392  0.50912488  1
  In  In25  1  0.81686896  0.33608477  0.48311350  1
  In  In26  1  0.66679376  0.65399910  0.33282857  1
  In  In27  1  0.32645564  -0.00696064  0.65415585  1
  In  In28  1  0.50647191  0.49851734  0.32279561  1
  In  In29  1  0.52297542  0.84081854  -0.00400269  1
  In  In30  1  0.17144423  0.65055707  0.47874897  1
  In  In31  1  0.34959702  0.34588410  0.67230278  1
  In  In32  1  0.49938595  0.16882893  0.67522464  1
  In  In33  1  0.15665162  -0.00058262  0.83046445  1
  In  In34  1  0.50061343  0.83738497  0.32878994  1
  In  In35  1  0.35352539  0.82869020  0.14743531  1
  In  In36  1  0.66335932  0.83982634  0.52023344  1
  In  In37  1  0.33424871  0.33043019  0.29953701  1
  In  In38  1  0.50416436  0.67820331  0.85056354  1
  In  In39  1  -0.01670853  0.84055980  0.15390819  1
  In  In40  1  0.18555768  0.37775142  0.85998425  1
  In  In41  1  0.34812904  0.65751149  0.69275550  1
  In  In42  1  0.00965135  0.35355777  0.01176532  1
  In  In43  1  0.83144977  0.51766161  0.67831548  1
  In  In44  1  0.51342979  0.51277189  0.02260139  1
  In  In45  1  0.15892074  0.17411113  0.02502823  1
  In  In46  1  -0.00630454  0.00320502  0.32814723  1
  In  In47  1  0.16062270  0.83729226  0.66124297  1
  In  In48  1  0.83652395  0.66615738  0.50593694  1
  In  In49  1  0.66377961  -0.01157556  0.68174802  1
  In  In50  1  -0.01655611  0.33763151  0.29452289  1
  In  In51  1  0.48777912  0.00189480  0.48314055  1
  In  In52  1  0.47119895  0.33973283  0.85260529  1
  In  In53  1  0.52126373  0.34376656  0.49239629  1
  In  In54  1  0.33244764  0.49406441  0.15972749  1
  In  In55  1  0.66845229  0.16369095  0.86045437  1
  In  In56  1  -0.00433311  0.84953571  0.83111661  1
  In  In57  1  0.67103580  0.83542427  0.16307317  1
  In  In58  1  0.81456909  0.66654487  0.84864149  1
  In  In59  1  0.15907432  0.01706380  0.15623854  1
  In  In60  1  -0.03751737  0.13492494  0.51867235  1
  In  In61  1  0.67149669  0.51398586  0.85818594  1
  In  In62  1  0.83361364  0.84212754  0.30223432  1
  In  In63  1  0.16096273  0.34410713  0.47950666  1
  In  In64  1  0.17936710  0.82826695  0.36057683  1
  In  In65  1  -0.01308330  0.16133806  0.85026520  1
  In  In66  1  0.34222371  0.67004947  0.33313424  1
  In  In67  1  0.67144594  0.34193320  0.29502380  1
  In  In68  1  0.67814189  0.16794136  0.47895501  1
  In  In69  1  0.86265882  0.32861968  0.84635459  1
  In  In70  1  0.16845962  -0.03133591  0.48159555  1
  In  In71  1  0.01509954  0.33375418  0.69415041  1
  Te  Te72  1  0.05507110  0.08241049  0.07528465  1
  Te  Te73  1  0.08735928  0.08917773  0.41617055  1
  Te  Te74  1  0.06157728  0.07922797  0.74182943  1
  Te  Te75  1  0.10200105  0.39406079  0.12234001  1
  Te  Te76  1  0.07574252  0.42932391  0.38301728  1
  Te  Te77  1  0.09146867  0.43849011  0.76232519  1
  Te  Te78  1  0.09355764  0.73927579  0.09684725  1
  Te  Te79  1  0.06733603  0.73138277  0.40174053  1
  Te  Te80  1  0.08829890  0.74250832  0.75726358  1
  Te  Te81  1  0.45677179  0.08202255  0.10578210  1
  Te  Te82  1  0.45185442  0.08943129  0.36354671  1
  Te  Te83  1  0.40759283  0.07923089  0.75718880  1
  Te  Te84  1  0.41542541  0.40593143  0.07013109  1
  Te  Te85  1  0.40727410  0.41148782  0.41505429  1
  Te  Te86  1  0.42591143  0.44058470  0.75426144  1
  Te  Te87  1  0.44829626  0.73180889  0.07849552  1
  Te  Te88  1  0.43629511  0.74031924  0.42976934  1
  Te  Te89  1  0.42614684  0.76435198  0.75724366  1
  Te  Te90  1  0.71339902  0.08366358  0.07707292  1
  Te  Te91  1  0.75657350  0.06564756  0.40742465  1
  Te  Te92  1  0.74955407  0.08778926  0.75893005  1
  Te  Te93  1  0.68511614  0.40828383  0.10802999  1
  Te  Te94  1  0.71677975  0.42827906  0.41992414  1
  Te  Te95  1  0.75269406  0.41318614  0.75861980  1
  Te  Te96  1  0.76373811  0.77620404  0.06092450  1
  Te  Te97  1  0.75303715  0.75721875  0.41032598  1
  Te  Te98  1  0.76670537  0.76766664  0.75118220  1
  Te  Te99  1  0.08251984  0.26112235  0.20746625  1
  Te  Te100  1  0.07231364  0.25433233  0.56912088  1
  Te  Te101  1  0.09122631  0.25797873  0.90550557  1
  Te  Te102  1  0.08360277  0.55368891  0.27228745  1
  Te  Te103  1  0.09147585  0.57574495  0.58688778  1
  Te  Te104  1  0.08117436  0.56160034  0.93231088  1
  Te  Te105  1  0.09157003  0.90918509  0.25434972  1
  Te  Te106  1  0.06507766  0.93072581  0.58895426  1
  Te  Te107  1  0.06991947  0.93268753  0.93726154  1
  Te  Te108  1  0.44693633  0.25591860  0.23315166  1
  Te  Te109  1  0.41526712  0.24602469  0.57275116  1
  Te  Te110  1  0.44102923  0.25045699  0.96895138  1
  Te  Te111  1  0.42554896  0.59219421  0.23153446  1
  Te  Te112  1  0.42566275  0.59414744  0.58274579  1
  Te  Te113  1  0.41622901  0.57535202  0.91893821  1
  Te  Te114  1  0.42592251  0.92324312  0.23390032  1
  Te  Te115  1  0.44266378  0.91161593  0.59933267  1
  Te  Te116  1  0.41365556  0.91782074  0.91799061  1
  Te  Te117  1  0.75459612  0.24269350  0.21641658  1
  Te  Te118  1  0.75935655  0.23864406  0.58694000  1
  Te  Te119  1  0.74353723  0.27777648  0.92692153  1
  Te  Te120  1  0.72862983  0.56944289  0.22113091  1
  Te  Te121  1  0.73803632  0.57303955  0.57376702  1
  Te  Te122  1  0.75958275  0.57892382  0.95915555  1
  Te  Te123  1  0.73292221  0.94465774  0.25390747  1
  Te  Te124  1  0.76200853  0.93800117  0.57835780  1
  Te  Te125  1  0.70250175  0.88473369  0.93832637  1
  Te  Te126  1  0.26218823  0.26691100  0.07241659  1
  Te  Te127  1  0.25969592  0.24542555  0.41530532  1
  Te  Te128  1  0.25858113  0.25702111  0.76323606  1
  Te  Te129  1  0.22769680  0.54368277  0.04584480  1
  Te  Te130  1  0.25168820  0.55963231  0.38740180  1
  Te  Te131  1  0.25151176  0.56264344  0.75107387  1
  Te  Te132  1  0.24473068  0.91510107  0.07186147  1
  Te  Te133  1  0.28845012  0.93225433  0.39339389  1
  Te  Te134  1  0.25523357  0.90668173  0.75889060  1
  Te  Te135  1  0.63878803  0.26952780  0.11149354  1
  Te  Te136  1  0.58650052  0.25028611  0.39197893  1
  Te  Te137  1  0.58328468  0.25812127  0.76255069  1
  Te  Te138  1  0.63590938  0.57325132  0.08332253  1
  Te  Te139  1  0.57640157  0.57979832  0.42348774  1
  Te  Te140  1  0.58565434  0.58653044  0.75647504  1
  Te  Te141  1  0.58056873  0.93389212  0.09600117  1
  Te  Te142  1  0.59701504  0.92453797  0.40951957  1
  Te  Te143  1  0.58474604  0.88727928  0.75438605  1
  Te  Te144  1  0.90743198  0.27057831  0.08290494  1
  Te  Te145  1  0.92653268  0.25255815  0.41115846  1
  Te  Te146  1  0.91005765  0.23271879  0.73646973  1
  Te  Te147  1  0.92034886  0.56086463  0.10793700  1
  Te  Te148  1  0.90316830  0.57662348  0.40191503  1
  Te  Te149  1  0.92653734  0.58393979  0.77419520  1
  Te  Te150  1  0.89233377  0.91619253  0.06770176  1
  Te  Te151  1  0.91511143  0.90733917  0.41498369  1
  Te  Te152  1  0.90039397  0.93125660  0.75427924  1
  Te  Te153  1  0.25724706  0.08622780  0.24967270  1
  Te  Te154  1  0.23626090  0.08994606  0.57923420  1
  Te  Te155  1  0.24714716  0.08694721  0.91838319  1
  Te  Te156  1  0.22747105  0.40994918  0.22959285  1
  Te  Te157  1  0.23603840  0.41467430  0.59178750  1
  Te  Te158  1  0.28709915  0.42909994  0.95313038  1
  Te  Te159  1  0.25172308  0.75303632  0.24206251  1
  Te  Te160  1  0.24754178  0.75011595  0.57094162  1
  Te  Te161  1  0.27287350  0.74887103  0.90826521  1
  Te  Te162  1  0.53912888  0.12350261  0.23493902  1
  Te  Te163  1  0.58316583  0.08661217  0.57822099  1
  Te  Te164  1  0.57149860  0.09099450  0.94415341  1
  Te  Te165  1  0.56306759  0.41163277  0.21234706  1
  Te  Te166  1  0.56219499  0.43266720  0.60239459  1
  Te  Te167  1  0.58531760  0.41177796  0.92856407  1
  Te  Te168  1  0.57989743  0.74014025  0.24116689  1
  Te  Te169  1  0.57618850  0.74010692  0.58237158  1
  Te  Te170  1  0.61827393  0.75228397  0.91762725  1
  Te  Te171  1  0.93070522  0.09969606  0.23113076  1
  Te  Te172  1  0.88282780  0.03992952  0.59342975  1
  Te  Te173  1  0.88869035  0.07413061  0.92317567  1
  Te  Te174  1  0.89269368  0.41248239  0.20112351  1
  Te  Te175  1  0.90790813  0.41158116  0.58928259  1
  Te  Te176  1  0.91468483  0.43597454  0.93153579  1
  Te  Te177  1  0.92444692  0.73370857  0.24643762  1
  Te  Te178  1  0.89166137  0.76639830  0.60789505  1
  Te  Te179  1  0.91961673  0.75393392  0.92308791  1
