# generated using pymatgen
data_In2Te3
_symmetry_space_group_name_H-M   'P 1'
_cell_length_a   18.92934127
_cell_length_b   18.94189819
_cell_length_c   18.94754203
_cell_angle_alpha   89.74621749
_cell_angle_beta   90.10166475
_cell_angle_gamma   90.03944741
_symmetry_Int_Tables_number   1
_chemical_formula_structural   In2Te3
_chemical_formula_sum   'In72 Te108'
_cell_volume   6793.70732886
_cell_formula_units_Z   36
loop_
 _symmetry_equiv_pos_site_id
 _symmetry_equiv_pos_as_xyz
  1  'x, y, z'
loop_
 _atom_site_type_symbol
 _atom_site_label
 _atom_site_symmetry_multiplicity
 _atom_site_fract_x
 _atom_site_fract_y
 _atom_site_fract_z
 _atom_site_occupancy
  In  In0  1  0.30649700  0.64983222  0.00761959  1
  In  In1  1  0.85257760  0.48206266  0.31385152  1
  In  In2  1  -0.00029857  0.17433025  0.16215524  1
  In  In3  1  0.50006999  0.46042754  -0.01275193  1
  In  In4  1  0.53205557  0.30756765  0.51576997  1
  In  In5  1  0.48089250  0.48458895  0.32556097  1
  In  In6  1  0.84840053  0.02819600  0.48662162  1
  In  In7  1  0.32989062  0.49019130  0.84924292  1
  In  In8  1  0.16822223  0.34780685  0.49720504  1
  In  In9  1  0.31646092  0.51249626  0.17271582  1
  In  In10  1  0.01028147  0.51372503  0.84622680  1
  In  In11  1  0.51038826  0.15122070  0.68106216  1
  In  In12  1  0.66730766  0.15058045  0.16432703  1
  In  In13  1  0.83351226  0.49243984  -0.00950755  1
  In  In14  1  0.00914887  0.50097677  0.50800618  1
  In  In15  1  0.36907948  0.19314421  0.91249017  1
  In  In16  1  0.64406158  0.67511337  0.34396934  1
  In  In17  1  0.16806947  -0.01370954  0.83835615  1
  In  In18  1  0.00286022  0.82768617  0.49088912  1
  In  In19  1  0.32303120  0.84155764  0.18991971  1
  In  In20  1  0.01876859  0.66671752  0.66210115  1
  In  In21  1  0.84443505  0.15990892  0.30526132  1
  In  In22  1  0.82757161  0.32925512  0.85474744  1
  In  In23  1  0.84166446  0.85372890  0.00585640  1
  In  In24  1  0.69492827  0.49996749  0.14778036  1
  In  In25  1  0.34940337  0.12834004  0.49537244  1
  In  In26  1  0.15204638  0.01249720  0.16679363  1
  In  In27  1  0.48075027  0.67227641  0.18789742  1
  In  In28  1  0.35632229  0.34546660  0.68453038  1
  In  In29  1  0.79511885  0.66263668  0.81700011  1
  In  In30  1  0.33091606  0.52234174  0.50271864  1
  In  In31  1  0.15799729  0.16266498  0.31408020  1
  In  In32  1  0.16837367  -0.02542540  0.48132536  1
  In  In33  1  0.50284773  0.84572921  0.32893139  1
  In  In34  1  0.51584051  0.31652229  0.16090082  1
  In  In35  1  0.17353963  0.65528108  0.84666295  1
  In  In36  1  0.82619717  0.82889616  0.67280813  1
  In  In37  1  0.50363789  -0.00074542  0.83025463  1
  In  In38  1  0.67908499  -0.00379261  0.32322233  1
  In  In39  1  0.33754545  0.32303691  0.33993059  1
  In  In40  1  0.68036061  0.00496567  0.66763512  1
  In  In41  1  0.52376928  0.63784178  0.81485978  1
  In  In42  1  -0.00873220  0.00640683  0.61648624  1
  In  In43  1  -0.01153380  0.17607551  0.49365640  1
  In  In44  1  0.82716391  0.00507374  0.82476715  1
  In  In45  1  0.01099123  0.15259371  0.83870611  1
  In  In46  1  0.16542063  0.51234208  0.33154465  1
  In  In47  1  0.84705277  0.17230519  0.00444750  1
  In  In48  1  -0.01166774  0.83272612  0.86017289  1
  In  In49  1  0.82317684  0.62997528  0.49389442  1
  In  In50  1  0.49466829  0.74677781  0.53864644  1
  In  In51  1  0.82851633  0.50295286  0.63881498  1
  In  In52  1  0.18910645  0.18245449  0.68903219  1
  In  In53  1  0.01797551  0.47768706  0.14197374  1
  In  In54  1  0.65858668  0.66528784  0.00044611  1
  In  In55  1  0.51110324  0.83889701  0.01078840  1
  In  In56  1  0.16850190  0.82033206  0.34085103  1
  In  In57  1  0.31808820  0.68998770  0.64607768  1
  In  In58  1  0.66016512  0.00692868  -0.00767745  1
  In  In59  1  0.32384396  0.01472633  0.02107225  1
  In  In60  1  0.50642650  -0.02599019  0.50710167  1
  In  In61  1  0.15155819  0.34576603  0.86749296  1
  In  In62  1  0.66551623  0.31605220  0.34260614  1
  In  In63  1  0.02152667  0.81200001  0.15226993  1
  In  In64  1  0.33527414  0.80992732  0.84167056  1
  In  In65  1  0.83148616  0.68316950  0.16313272  1
  In  In66  1  -0.00156356  0.35243295  0.68378465  1
  In  In67  1  0.67057250  0.48803899  0.50392702  1
  In  In68  1  0.83394029  0.83263167  0.33474051  1
  In  In69  1  0.68899308  0.30676600  0.65606927  1
  In  In70  1  0.34585133  -0.02456587  0.65946746  1
  In  In71  1  0.31210717  0.19602517  0.14261473  1
  Te  Te72  1  0.10270485  0.11504397  0.07153451  1
  Te  Te73  1  0.08015402  0.08118842  0.41678241  1
  Te  Te74  1  0.08675701  0.07428310  0.73049264  1
  Te  Te75  1  0.12860716  0.40322325  0.07467914  1
  Te  Te76  1  0.07182735  0.41135088  0.40188724  1
  Te  Te77  1  0.10268648  0.43601607  0.75378832  1
  Te  Te78  1  0.05373290  0.73325743  0.03399505  1
  Te  Te79  1  0.08872553  0.72870665  0.42682889  1
  Te  Te80  1  0.08050911  0.75050627  0.77094095  1
  Te  Te81  1  0.41427373  0.13190647  0.04839968  1
  Te  Te82  1  0.41667968  0.03698252  0.40548989  1
  Te  Te83  1  0.39541644  0.08394455  0.75351839  1
  Te  Te84  1  0.41414025  0.41695813  0.10451908  1
  Te  Te85  1  0.42028152  0.40318762  0.44003802  1
  Te  Te86  1  0.43927627  0.44063837  0.76084289  1
  Te  Te87  1  0.40617546  0.74967430  0.07862816  1
  Te  Te88  1  0.42728933  0.74727160  0.40857808  1
  Te  Te89  1  0.42657903  0.73745290  0.74935921  1
  Te  Te90  1  0.76549141  0.06922606  0.08242433  1
  Te  Te91  1  0.74602870  0.10524988  0.40853602  1
  Te  Te92  1  0.72817805  0.10077533  0.77067935  1
  Te  Te93  1  0.72393890  0.40680641  0.04066390  1
  Te  Te94  1  0.76250680  0.40782928  0.41528686  1
  Te  Te95  1  0.76459811  0.41063776  0.74199381  1
  Te  Te96  1  0.73641221  0.76746366  0.08080966  1
  Te  Te97  1  0.74790941  0.74550050  0.42894807  1
  Te  Te98  1  0.71353331  0.76734556  0.74829963  1
  Te  Te99  1  0.06541540  0.26342133  0.26312942  1
  Te  Te100  1  0.08751028  0.25256616  0.59666672  1
  Te  Te101  1  0.08954996  0.22982201  0.93833767  1
  Te  Te102  1  0.07388461  0.57755881  0.23506748  1
  Te  Te103  1  0.10476523  0.57175514  0.59319350  1
  Te  Te104  1  0.07236968  0.60475824  0.94773556  1
  Te  Te105  1  0.08171145  0.91300711  0.25533950  1
  Te  Te106  1  0.10168854  0.88575540  0.59284773  1
  Te  Te107  1  0.07254772  0.92787363  0.93285599  1
  Te  Te108  1  0.41921251  0.23681081  0.24958050  1
  Te  Te109  1  0.40658267  0.23611319  0.58772280  1
  Te  Te110  1  0.43561882  0.32715322  0.92890603  1
  Te  Te111  1  0.38800993  0.59514890  0.28062654  1
  Te  Te112  1  0.42770074  0.60711599  0.58088784  1
  Te  Te113  1  0.42388084  0.58900454  0.93050320  1
  Te  Te114  1  0.44232385  0.92364278  0.21593781  1
  Te  Te115  1  0.40668704  0.87590443  0.56643316  1
  Te  Te116  1  0.40396139  0.92134860  0.92288916  1
  Te  Te117  1  0.75058852  0.25836854  0.23369974  1
  Te  Te118  1  0.76854808  0.22574761  0.56742217  1
  Te  Te119  1  0.74687716  0.21516945  0.90263638  1
  Te  Te120  1  0.74913092  0.59110791  0.26449131  1
  Te  Te121  1  0.71312289  0.60525180  0.60250889  1
  Te  Te122  1  0.72430118  0.56476686  0.90868189  1
  Te  Te123  1  0.76490385  0.91524331  0.23619641  1
  Te  Te124  1  0.76929175  0.92743955  0.57211329  1
  Te  Te125  1  0.74011632  0.91075395  0.90529593  1
  Te  Te126  1  0.22510211  0.28156506  0.06126053  1
  Te  Te127  1  0.24690585  0.23525863  0.42862313  1
  Te  Te128  1  0.26339186  0.27459258  0.78339322  1
  Te  Te129  1  0.21569860  0.60831689  0.11836178  1
  Te  Te130  1  0.22750085  0.60056754  0.43351295  1
  Te  Te131  1  0.26544468  0.58650667  0.75068657  1
  Te  Te132  1  0.23485226  0.91219499  0.08670976  1
  Te  Te133  1  0.26890279  0.91653029  0.39390338  1
  Te  Te134  1  0.25021426  0.89567498  0.74836699  1
  Te  Te135  1  0.58747717  0.23110337  0.06809491  1
  Te  Te136  1  0.56460142  0.22599565  0.40039868  1
  Te  Te137  1  0.57978477  0.26198504  0.74737223  1
  Te  Te138  1  0.57575530  0.58702635  0.10238055  1
  Te  Te139  1  0.57048362  0.56691482  0.41999237  1
  Te  Te140  1  0.62577387  0.57936431  0.72992739  1
  Te  Te141  1  0.56722566  0.94584224  0.09298481  1
  Te  Te142  1  0.60894339  0.90189954  0.42236138  1
  Te  Te143  1  0.56785035  0.91764650  0.72265708  1
  Te  Te144  1  0.91462740  0.27391979  0.08834118  1
  Te  Te145  1  0.93313406  0.25330152  0.38226281  1
  Te  Te146  1  0.92143157  0.24947045  0.76290972  1
  Te  Te147  1  0.90951298  0.57990267  0.08672648  1
  Te  Te148  1  0.93018245  0.57940348  0.40229638  1
  Te  Te149  1  0.91137297  0.57937479  0.74759162  1
  Te  Te150  1  0.93329460  0.91918485  0.09976600  1
  Te  Te151  1  0.92995073  0.92910379  0.40600654  1
  Te  Te152  1  0.92864234  0.92264241  0.73568894  1
  Te  Te153  1  0.26426882  0.08603561  0.23960122  1
  Te  Te154  1  0.23994070  0.07194094  0.58715744  1
  Te  Te155  1  0.25191281  0.09068581  0.91009157  1
  Te  Te156  1  0.24497587  0.40416983  0.25477570  1
  Te  Te157  1  0.25865297  0.42179372  0.59326159  1
  Te  Te158  1  0.23003149  0.44264401  0.95225473  1
  Te  Te159  1  0.22808477  0.73733650  0.23163590  1
  Te  Te160  1  0.21494935  0.77779389  0.59340769  1
  Te  Te161  1  0.23029375  0.76343672  0.93957752  1
  Te  Te162  1  0.57796235  0.08253153  0.25953989  1
  Te  Te163  1  0.58949522  0.08452831  0.57246484  1
  Te  Te164  1  0.57273713  0.09715416  0.91295290  1
  Te  Te165  1  0.59605972  0.42412385  0.24824158  1
  Te  Te166  1  0.58233016  0.41622034  0.60310983  1
  Te  Te167  1  0.56750357  0.39181596  0.87717145  1
  Te  Te168  1  0.59369236  0.76289265  0.23290690  1
  Te  Te169  1  0.59966441  0.79649049  0.62872025  1
  Te  Te170  1  0.57662435  0.75319465  0.90680814  1
  Te  Te171  1  0.92402547  0.06496130  0.22743508  1
  Te  Te172  1  0.88297859  0.12478311  0.60317526  1
  Te  Te173  1  0.92316691  0.06460250  0.92538807  1
  Te  Te174  1  0.90289949  0.40087592  0.20119660  1
  Te  Te175  1  0.91255239  0.39858296  0.56739567  1
  Te  Te176  1  0.94032099  0.40527996  0.92553782  1
  Te  Te177  1  0.92953957  0.74205383  0.26016128  1
  Te  Te178  1  0.90594735  0.73394643  0.58167774  1
  Te  Te179  1  0.88553948  0.73566998  0.91581300  1
