# generated using pymatgen
data_In2Te3
_symmetry_space_group_name_H-M   'P 1'
_cell_length_a   18.96205338
_cell_length_b   18.97554366
_cell_length_c   18.97140000
_cell_angle_alpha   89.80395583
_cell_angle_beta   90.18210317
_cell_angle_gamma   89.83025722
_symmetry_Int_Tables_number   1
_chemical_formula_structural   In2Te3
_chemical_formula_sum   'In72 Te108'
_cell_volume   6826.09483276
_cell_formula_units_Z   36
loop_
 _symmetry_equiv_pos_site_id
 _symmetry_equiv_pos_as_xyz
  1  'x, y, z'
loop_
 _atom_site_type_symbol
 _atom_site_label
 _atom_site_symmetry_multiplicity
 _atom_site_fract_x
 _atom_site_fract_y
 _atom_site_fract_z
 _atom_site_occupancy
  In  In0  1  0.83271108  0.17324780  0.67412756  1
  In  In1  1  0.53701230  0.64020590  0.45261571  1
  In  In2  1  0.32532040  0.31873361  0.68397770  1
  In  In3  1  0.04007877  0.00598503  0.75656921  1
  In  In4  1  0.33203933  0.16971928  0.52926423  1
  In  In5  1  0.14827250  0.86537922  0.00002296  1
  In  In6  1  -0.02407341  0.49792578  0.20485371  1
  In  In7  1  0.16638779  0.49188204  0.32849400  1
  In  In8  1  0.45427300  0.65506895  0.86775053  1
  In  In9  1  0.83626531  0.67982228  0.83665456  1
  In  In10  1  0.53417712  0.83687884  0.03526335  1
  In  In11  1  0.33416584  -0.00459008  0.69615179  1
  In  In12  1  -0.00954262  0.17043508  0.51466501  1
  In  In13  1  0.34061407  0.48463060  0.50516285  1
  In  In14  1  0.68679858  0.80436774  0.43224173  1
  In  In15  1  0.14656938  0.34666688  0.50424540  1
  In  In16  1  0.17138456  0.14919977  -0.00636134  1
  In  In17  1  0.45453444  0.11970772  0.01790363  1
  In  In18  1  0.81092666  0.81689567  0.01511783  1
  In  In19  1  0.67283743  0.17936014  0.18138568  1
  In  In20  1  0.54085980  0.34222663  0.48116348  1
  In  In21  1  -0.02280437  0.81929409  0.47213284  1
  In  In22  1  0.66474355  0.86005430  0.82352492  1
  In  In23  1  0.17757648  0.33288633  0.14060960  1
  In  In24  1  0.64618640  0.66736655  -0.00802827  1
  In  In25  1  0.84427088  0.18647083  0.32841077  1
  In  In26  1  0.02263616  0.33447439  0.69075520  1
  In  In27  1  0.36459797  0.32677718  0.34679120  1
  In  In28  1  0.01076072  0.65577594  0.65549883  1
  In  In29  1  0.67091854  0.64927136  0.64664115  1
  In  In30  1  0.85368876  0.31434345  0.85378446  1
  In  In31  1  0.46485051  0.31133019  0.86140971  1
  In  In32  1  0.33735840  0.66524119  0.30702344  1
  In  In33  1  0.33610136  0.83280320  0.15164379  1
  In  In34  1  0.34992434  0.84207777  0.84791189  1
  In  In35  1  0.50044256  0.16422087  0.66283504  1
  In  In36  1  0.52036103  0.67732734  0.18101695  1
  In  In37  1  0.82622822  0.36775130  0.47209491  1
  In  In38  1  0.83908526  0.51534777  0.00426892  1
  In  In39  1  0.33538217  0.00578315  0.26735786  1
  In  In40  1  0.83195410  -0.01144470  0.18060070  1
  In  In41  1  0.01438504  0.19969958  0.15944647  1
  In  In42  1  0.82752312  0.00806904  0.50095615  1
  In  In43  1  0.17726935  0.67400223  0.85294295  1
  In  In44  1  0.48796580  0.48469108  0.66680438  1
  In  In45  1  0.48935801  0.34113273  0.15380710  1
  In  In46  1  0.66852195  -0.00706373  0.32209990  1
  In  In47  1  0.30544378  0.63139137  0.66233208  1
  In  In48  1  0.82573386  0.00738546  0.82948075  1
  In  In49  1  0.50315609  0.16122410  0.33592223  1
  In  In50  1  -0.02158678  0.65967991  0.33586334  1
  In  In51  1  0.66410615  0.33201885  -0.01662932  1
  In  In52  1  0.00654815  0.66700538  0.01142480  1
  In  In53  1  0.18041455  -0.01299127  0.49194983  1
  In  In54  1  0.50385677  0.81477826  0.66781621  1
  In  In55  1  0.16394750  0.02614058  0.17028743  1
  In  In56  1  0.18383486  0.34597973  0.87125364  1
  In  In57  1  0.83116699  0.86541745  0.65454847  1
  In  In58  1  0.34838593  0.82015234  0.47450478  1
  In  In59  1  0.66718524  0.31364580  0.65086068  1
  In  In60  1  0.51468853  0.00301802  0.50873216  1
  In  In61  1  0.49902494  0.00984780  0.83926444  1
  In  In62  1  0.15621431  0.83008847  0.65364466  1
  In  In63  1  0.84229459  0.16346744  -0.00353444  1
  In  In64  1  0.32320925  0.51541321  0.14741432  1
  In  In65  1  -0.00187973  0.36495285  0.01463992  1
  In  In66  1  0.00676860  0.00563046  0.35406449  1
  In  In67  1  0.13490573  0.65360764  0.48693836  1
  In  In68  1  0.65861350  0.50255124  0.18004682  1
  In  In69  1  0.83367973  0.49891786  0.65611849  1
  In  In70  1  -0.01167397  0.83938454  0.18109286  1
  In  In71  1  0.64961730  0.47763228  0.81198766  1
  Te  Te72  1  0.06056272  0.08339408  0.07529468  1
  Te  Te73  1  0.09576659  0.10068402  0.42818450  1
  Te  Te74  1  0.14063084  0.11127094  0.79229550  1
  Te  Te75  1  0.08163681  0.44745448  0.10686526  1
  Te  Te76  1  0.06664825  0.44098529  0.42272441  1
  Te  Te77  1  0.10501381  0.42549683  0.77155600  1
  Te  Te78  1  0.08818649  0.76324198  0.09513822  1
  Te  Te79  1  0.08986320  0.75926214  0.39192394  1
  Te  Te80  1  0.08076559  0.74658404  0.75351124  1
  Te  Te81  1  0.38494174  0.04401773  0.12330442  1
  Te  Te82  1  0.41087251  0.08423887  0.43253216  1
  Te  Te83  1  0.40588776  0.10723249  0.76657322  1
  Te  Te84  1  0.39834487  0.41762416  0.06402595  1
  Te  Te85  1  0.44698091  0.43825845  0.40798947  1
  Te  Te86  1  0.39972931  0.41996566  0.76955940  1
  Te  Te87  1  0.42818879  0.73731526  0.07596734  1
  Te  Te88  1  0.44297977  0.74132656  0.38617115  1
  Te  Te89  1  0.39173811  0.73841271  0.73917819  1
  Te  Te90  1  0.75449154  0.08598479  0.09315768  1
  Te  Te91  1  0.74917741  0.09309113  0.40251563  1
  Te  Te92  1  0.73930595  0.07743530  0.73341370  1
  Te  Te93  1  0.74284274  0.42371792  0.07354151  1
  Te  Te94  1  0.71689250  0.44314146  0.40191140  1
  Te  Te95  1  0.76136728  0.39381367  0.75205059  1
  Te  Te96  1  0.73330562  0.72024071  0.10157594  1
  Te  Te97  1  0.80712338  0.71736696  0.39669892  1
  Te  Te98  1  0.74329171  0.75495004  0.73895335  1
  Te  Te99  1  0.09410506  0.28013329  0.25014157  1
  Te  Te100  1  0.09697794  0.23846397  0.59878795  1
  Te  Te101  1  0.07775038  0.26228153  0.94069274  1
  Te  Te102  1  0.08714825  0.59439239  0.25012194  1
  Te  Te103  1  0.07879960  0.55286679  0.57547608  1
  Te  Te104  1  0.08466710  0.58166845  0.92233261  1
  Te  Te105  1  0.08856154  0.92456538  0.25697718  1
  Te  Te106  1  0.06874758  0.90944281  0.55943722  1
  Te  Te107  1  0.09308472  0.94864694  0.88928903  1
  Te  Te108  1  0.41367924  0.23555139  0.23842099  1
  Te  Te109  1  0.43278136  0.27940400  0.57640186  1
  Te  Te110  1  0.37982791  0.23222461  0.95419886  1
  Te  Te111  1  0.43130608  0.56813899  0.24108998  1
  Te  Te112  1  0.42900704  0.59422856  0.57217521  1
  Te  Te113  1  0.34562888  0.57152129  0.92136414  1
  Te  Te114  1  0.43333510  0.90055692  0.23898374  1
  Te  Te115  1  0.40478103  0.90883230  0.58625178  1
  Te  Te116  1  0.43684232  0.91772772  0.94284286  1
  Te  Te117  1  0.76597133  0.27878921  0.24181290  1
  Te  Te118  1  0.76893905  0.25231679  0.55950494  1
  Te  Te119  1  0.73922220  0.22894516  0.90193482  1
  Te  Te120  1  0.77512344  0.53236487  0.27677153  1
  Te  Te121  1  0.76682438  0.58460310  0.55399539  1
  Te  Te122  1  0.73737442  0.57815086  0.89769266  1
  Te  Te123  1  0.72521495  0.88906970  0.22460329  1
  Te  Te124  1  0.73118706  0.90084363  0.54862668  1
  Te  Te125  1  0.73965099  0.92518119  0.93386717  1
  Te  Te126  1  0.26327055  0.23002502  0.07836184  1
  Te  Te127  1  0.25923781  0.26514607  0.43597030  1
  Te  Te128  1  0.23861410  0.24275805  0.77513326  1
  Te  Te129  1  0.23918466  0.57796615  0.03913768  1
  Te  Te130  1  0.26157866  0.58293869  0.41876996  1
  Te  Te131  1  0.22031115  0.56424365  0.75920583  1
  Te  Te132  1  0.25274897  0.94585967  0.07485734  1
  Te  Te133  1  0.26790338  0.91679287  0.39377718  1
  Te  Te134  1  0.23724922  0.90055441  0.76101277  1
  Te  Te135  1  0.58170720  0.24469824  0.07551255  1
  Te  Te136  1  0.60728636  0.24380949  0.39703709  1
  Te  Te137  1  0.56787065  0.26518812  0.75473471  1
  Te  Te138  1  0.56697848  0.57181323  0.07542392  1
  Te  Te139  1  0.63624481  0.57326274  0.36748544  1
  Te  Te140  1  0.57049709  0.59111126  0.74732731  1
  Te  Te141  1  0.60901415  0.92200355  0.12534261  1
  Te  Te142  1  0.57354930  0.90983066  0.40592689  1
  Te  Te143  1  0.57414017  0.93525508  0.72769373  1
  Te  Te144  1  0.90238466  0.27097954  0.08540584  1
  Te  Te145  1  0.93494770  0.26986123  0.41517264  1
  Te  Te146  1  0.94083504  0.22922347  0.76500999  1
  Te  Te147  1  0.90953625  0.59813050  0.10600270  1
  Te  Te148  1  0.89538969  0.60306111  0.44409983  1
  Te  Te149  1  0.91608615  0.58322059  0.75184718  1
  Te  Te150  1  0.91208582  0.91628965  0.07407791  1
  Te  Te151  1  0.89068783  0.91924540  0.39554205  1
  Te  Te152  1  0.92191249  0.90675312  0.76511722  1
  Te  Te153  1  0.23114626  0.10759209  0.27139252  1
  Te  Te154  1  0.24188598  0.07316319  0.60236835  1
  Te  Te155  1  0.23123783  0.05337597  0.89805689  1
  Te  Te156  1  0.27035111  0.40968208  0.25490937  1
  Te  Te157  1  0.24513832  0.41664980  0.59852950  1
  Te  Te158  1  0.25979694  0.44241960  0.95958199  1
  Te  Te159  1  0.24647219  0.74449815  0.22570227  1
  Te  Te160  1  0.24552275  0.74302397  0.56665902  1
  Te  Te161  1  0.25418066  0.77133480  0.94059804  1
  Te  Te162  1  0.57513879  0.07436201  0.23380675  1
  Te  Te163  1  0.59807318  0.10310290  0.57359730  1
  Te  Te164  1  0.57335698  0.08533440  0.93931980  1
  Te  Te165  1  0.58968824  0.39160044  0.24793018  1
  Te  Te166  1  0.60510035  0.43539528  0.58389819  1
  Te  Te167  1  0.55899506  0.42139163  0.91733821  1
  Te  Te168  1  0.64338975  0.74056532  0.22912291  1
  Te  Te169  1  0.58689478  0.74441350  0.56070517  1
  Te  Te170  1  0.57433425  0.75819896  0.89124150  1
  Te  Te171  1  0.92969558  0.08920282  0.24557785  1
  Te  Te172  1  0.92179476  0.06815838  0.60246491  1
  Te  Te173  1  0.92567520  0.08239536  0.90718581  1
  Te  Te174  1  0.86891198  0.41378968  0.26134167  1
  Te  Te175  1  0.92252525  0.39685031  0.59111547  1
  Te  Te176  1  0.92348258  0.43864523  0.90446684  1
  Te  Te177  1  0.89339289  0.75248462  0.25453821  1
  Te  Te178  1  0.91070769  0.75368043  0.59120364  1
  Te  Te179  1  0.92356201  0.76347598  0.92498458  1
