# generated using pymatgen
data_In2Te3
_symmetry_space_group_name_H-M   'P 1'
_cell_length_a   18.97161893
_cell_length_b   18.96737667
_cell_length_c   18.95222039
_cell_angle_alpha   89.96849686
_cell_angle_beta   89.91844391
_cell_angle_gamma   89.78565277
_symmetry_Int_Tables_number   1
_chemical_formula_structural   In2Te3
_chemical_formula_sum   'In72 Te108'
_cell_volume   6819.74625848
_cell_formula_units_Z   36
loop_
 _symmetry_equiv_pos_site_id
 _symmetry_equiv_pos_as_xyz
  1  'x, y, z'
loop_
 _atom_site_type_symbol
 _atom_site_label
 _atom_site_symmetry_multiplicity
 _atom_site_fract_x
 _atom_site_fract_y
 _atom_site_fract_z
 _atom_site_occupancy
  In  In0  1  0.65115423  0.34913084  -0.01767140  1
  In  In1  1  0.35298866  0.64967710  -0.01990014  1
  In  In2  1  0.48558555  -0.00706887  0.48217249  1
  In  In3  1  0.15913325  -0.03314552  0.15444173  1
  In  In4  1  0.51449385  -0.00656778  0.14846477  1
  In  In5  1  0.65996002  0.51321058  0.82289423  1
  In  In6  1  0.82855494  0.53262322  0.66142155  1
  In  In7  1  -0.01938837  0.18171943  0.49233372  1
  In  In8  1  0.65167032  0.48953123  0.52709676  1
  In  In9  1  -0.02042560  0.84560776  0.17661595  1
  In  In10  1  0.84806392  0.34539014  0.84153532  1
  In  In11  1  -0.00869065  0.33840644  0.67906996  1
  In  In12  1  0.17760387  0.17425923  0.32177280  1
  In  In13  1  0.65047443  -0.01084267  0.66353061  1
  In  In14  1  0.35877890  0.16266007  0.15844226  1
  In  In15  1  -0.01088269  0.66117848  0.32068609  1
  In  In16  1  -0.01077150  0.17500560  0.17273031  1
  In  In17  1  0.34421445  -0.01648683  0.33152262  1
  In  In18  1  0.54308230  0.17483149  0.67406952  1
  In  In19  1  0.14401852  0.00628947  0.50412119  1
  In  In20  1  0.74636774  0.00097789  0.87408604  1
  In  In21  1  0.34491657  0.48761872  0.13353812  1
  In  In22  1  0.18480617  0.67292812  0.51257474  1
  In  In23  1  0.51289635  0.65422478  0.17655075  1
  In  In24  1  0.01982021  0.49042690  0.84015253  1
  In  In25  1  -0.01362604  0.02350019  0.01000351  1
  In  In26  1  0.79005372  0.32522336  0.52750451  1
  In  In27  1  -0.01777920  0.82605347  0.85249894  1
  In  In28  1  -0.00774394  0.84646658  0.52727119  1
  In  In29  1  0.17234774  0.17665199  -0.03031501  1
  In  In30  1  0.82899639  0.17616202  0.32872596  1
  In  In31  1  0.32924386  0.33024194  0.32734720  1
  In  In32  1  0.16383857  0.36458505  0.52086414  1
  In  In33  1  0.35859591  0.33163632  -0.04995777  1
  In  In34  1  0.50060454  0.48365391  0.33278238  1
  In  In35  1  0.16378995  0.68852106  0.19610531  1
  In  In36  1  0.35501990  0.81268967  0.51243041  1
  In  In37  1  0.00586367  0.00201510  0.66499268  1
  In  In38  1  0.51362058  -0.00919037  0.83111019  1
  In  In39  1  0.80335258  0.71438352  0.85242473  1
  In  In40  1  0.82739237  0.01001838  0.51492136  1
  In  In41  1  0.33843340  0.15404955  0.83347848  1
  In  In42  1  0.15890614  0.49614288  0.02774621  1
  In  In43  1  0.53029707  0.69399536  0.52924201  1
  In  In44  1  0.17207305  0.82137246  -0.00769561  1
  In  In45  1  0.83241167  0.82863179  0.35259991  1
  In  In46  1  0.83666803  0.34635887  0.16856789  1
  In  In47  1  0.31618038  -0.02658991  0.69358050  1
  In  In48  1  -0.00336263  0.68180109  0.67111937  1
  In  In49  1  0.16195466  0.82708600  0.33511598  1
  In  In50  1  0.35953047  0.16959711  0.51464430  1
  In  In51  1  0.20408834  0.52232625  0.67683549  1
  In  In52  1  0.16720101  0.31877408  0.16498422  1
  In  In53  1  0.32131210  0.82938088  0.16737715  1
  In  In54  1  -0.02643969  0.52306177  0.13794948  1
  In  In55  1  0.80876957  0.16305415  0.00532724  1
  In  In56  1  0.18514338  0.65250230  0.81647040  1
  In  In57  1  0.67629863  0.33242030  0.33081378  1
  In  In58  1  0.50959662  0.83532575  -0.01340443  1
  In  In59  1  0.53829023  0.32614584  0.51771219  1
  In  In60  1  0.81481130  0.00671177  0.15873937  1
  In  In61  1  0.68026227  0.50944579  0.16440482  1
  In  In62  1  0.65189144  -0.00167019  0.33811728  1
  In  In63  1  0.48262249  0.66346409  0.81042970  1
  In  In64  1  0.19946528  0.32501874  0.84547205  1
  In  In65  1  0.52473307  0.16216506  -0.01699645  1
  In  In66  1  0.15509753  0.14304103  0.68378339  1
  In  In67  1  0.66997986  0.66881579  0.32099072  1
  In  In68  1  -0.00077919  0.50558300  0.47974988  1
  In  In69  1  0.67501272  0.66664255  0.01561293  1
  In  In70  1  0.80117762  0.83346505  0.67322193  1
  In  In71  1  0.35177099  0.53800983  0.49152408  1
  Te  Te72  1  0.09547428  0.09474614  0.09612536  1
  Te  Te73  1  0.07335265  0.09667420  0.40678833  1
  Te  Te74  1  0.07988705  0.06087121  0.77686359  1
  Te  Te75  1  0.06504734  0.39875303  0.08686528  1
  Te  Te76  1  0.08670815  0.41342448  0.40807157  1
  Te  Te77  1  0.10954561  0.41590813  0.73782706  1
  Te  Te78  1  0.07803132  0.76077666  0.09586220  1
  Te  Te79  1  0.07194841  0.75113531  0.43049158  1
  Te  Te80  1  0.08782015  0.75852370  0.76353973  1
  Te  Te81  1  0.42325274  0.07439990  0.05394955  1
  Te  Te82  1  0.41964606  0.09952208  0.39397073  1
  Te  Te83  1  0.42877161  0.07662082  0.73413390  1
  Te  Te84  1  0.42710513  0.38223359  0.07283982  1
  Te  Te85  1  0.42233916  0.39775522  0.43008519  1
  Te  Te86  1  0.33995606  0.38182834  0.80549782  1
  Te  Te87  1  0.41825259  0.74530587  0.08258935  1
  Te  Te88  1  0.44280653  0.74178118  0.42039736  1
  Te  Te89  1  0.38819370  0.73167541  0.71635535  1
  Te  Te90  1  0.71369932  0.07996563  0.08130711  1
  Te  Te91  1  0.74385151  0.09463140  0.42208356  1
  Te  Te92  1  0.74985614  0.06385166  0.74104155  1
  Te  Te93  1  0.75664551  0.42356622  0.06561261  1
  Te  Te94  1  0.74637681  0.42809552  0.42443543  1
  Te  Te95  1  0.76078059  0.42720923  0.74526118  1
  Te  Te96  1  0.72491211  0.80393269  0.04286826  1
  Te  Te97  1  0.72830710  0.75653901  0.42435715  1
  Te  Te98  1  0.71936638  0.71961944  0.72626904  1
  Te  Te99  1  0.06691560  0.26393330  0.26692194  1
  Te  Te100  1  0.08434951  0.24478140  0.58548500  1
  Te  Te101  1  0.07763195  0.26137030  0.89940481  1
  Te  Te102  1  0.08224436  0.57236994  0.24260538  1
  Te  Te103  1  0.08391973  0.58113118  0.59518513  1
  Te  Te104  1  0.09683301  0.59073147  0.92440168  1
  Te  Te105  1  0.06970289  0.92723548  0.26858835  1
  Te  Te106  1  0.10795430  0.90143237  0.60731750  1
  Te  Te107  1  0.07033069  0.91894537  0.93408369  1
  Te  Te108  1  0.42635443  0.25423273  0.24884295  1
  Te  Te109  1  0.43176246  0.25843158  0.61051788  1
  Te  Te110  1  0.45632999  0.24130660  0.87305398  1
  Te  Te111  1  0.40961414  0.56942740  0.24735550  1
  Te  Te112  1  0.45107175  0.58249483  0.59053168  1
  Te  Te113  1  0.44509824  0.55761752  0.91133656  1
  Te  Te114  1  0.43233382  0.90146640  0.24141554  1
  Te  Te115  1  0.42129604  0.91712679  0.59853079  1
  Te  Te116  1  0.41175967  0.90438587  0.89674874  1
  Te  Te117  1  0.74199504  0.24248932  0.22477870  1
  Te  Te118  1  0.72117922  0.23169532  0.61664108  1
  Te  Te119  1  0.74236381  0.25493913  0.90504323  1
  Te  Te120  1  0.76850857  0.57501862  0.26040209  1
  Te  Te121  1  0.72990381  0.60299738  0.57907126  1
  Te  Te122  1  0.75540531  0.58447223  0.91698263  1
  Te  Te123  1  0.74740251  0.91231142  0.25586141  1
  Te  Te124  1  0.72954237  0.90546939  0.56059909  1
  Te  Te125  1  0.75377656  0.85325682  0.90023714  1
  Te  Te126  1  0.26219333  0.24869581  0.06908598  1
  Te  Te127  1  0.24718993  0.24766750  0.43527190  1
  Te  Te128  1  0.25932999  0.23828598  0.73052799  1
  Te  Te129  1  0.24738315  0.60836206  0.08964238  1
  Te  Te130  1  0.23769893  0.58133686  0.41215947  1
  Te  Te131  1  0.31081323  0.59736544  0.75016208  1
  Te  Te132  1  0.26752301  0.92245633  0.06110625  1
  Te  Te133  1  0.24942711  0.91523733  0.42926385  1
  Te  Te134  1  0.26770650  0.90670796  0.81220546  1
  Te  Te135  1  0.56492315  0.27005316  0.07427285  1
  Te  Te136  1  0.59864014  0.24222063  0.41537270  1
  Te  Te137  1  0.62988031  0.28491008  0.72263289  1
  Te  Te138  1  0.57411290  0.56620651  0.07129338  1
  Te  Te139  1  0.58264562  0.57669699  0.41631599  1
  Te  Te140  1  0.56078964  0.56881574  0.72324414  1
  Te  Te141  1  0.60940125  0.92329842  0.05357454  1
  Te  Te142  1  0.57010583  0.89842837  0.40931544  1
  Te  Te143  1  0.58400730  0.88443959  0.75014158  1
  Te  Te144  1  0.91252072  0.25194480  0.07043048  1
  Te  Te145  1  0.89426337  0.27891629  0.41761844  1
  Te  Te146  1  0.92438217  0.24326866  0.76570815  1
  Te  Te147  1  0.90155208  0.62373396  0.06366500  1
  Te  Te148  1  0.90627359  0.60319137  0.42588378  1
  Te  Te149  1  0.92514668  0.58789794  0.76387100  1
  Te  Te150  1  0.89879288  0.91525431  0.06972995  1
  Te  Te151  1  0.92216592  0.93209219  0.42567097  1
  Te  Te152  1  0.91386874  0.90630513  0.74254324  1
  Te  Te153  1  0.25373316  0.06880976  0.24070796  1
  Te  Te154  1  0.25899934  0.07475108  0.57920303  1
  Te  Te155  1  0.24037710  0.06613149  0.90060868  1
  Te  Te156  1  0.25018565  0.42241012  0.23683247  1
  Te  Te157  1  0.28183947  0.43051058  0.58443877  1
  Te  Te158  1  0.25623241  0.45249229  0.92101412  1
  Te  Te159  1  0.27585992  0.74191390  0.28337146  1
  Te  Te160  1  0.26828723  0.74395106  0.61378175  1
  Te  Te161  1  0.27101261  0.75092141  0.90056814  1
  Te  Te162  1  0.58037622  0.08340901  0.24179087  1
  Te  Te163  1  0.58104844  0.08119224  0.56363850  1
  Te  Te164  1  0.61524526  0.08537652  0.88733056  1
  Te  Te165  1  0.58800625  0.41056159  0.23493604  1
  Te  Te166  1  0.57392257  0.41534799  0.63270354  1
  Te  Te167  1  0.56106778  0.42807212  0.89356674  1
  Te  Te168  1  0.61107350  0.75363448  0.21523394  1
  Te  Te169  1  0.58557397  0.77017750  0.64340271  1
  Te  Te170  1  0.57918183  0.72669957  0.90965308  1
  Te  Te171  1  0.91282393  0.07415391  0.25352217  1
  Te  Te172  1  0.91066064  0.10272925  0.60070468  1
  Te  Te173  1  0.88269597  0.06827271  0.91128431  1
  Te  Te174  1  0.90490396  0.45007050  0.24681094  1
  Te  Te175  1  0.90960815  0.42131524  0.58280555  1
  Te  Te176  1  0.92358733  0.43260848  0.93232798  1
  Te  Te177  1  0.89022025  0.74184110  0.23827347  1
  Te  Te178  1  0.89450691  0.74699992  0.58158271  1
  Te  Te179  1  0.92332509  0.72444693  0.94661935  1
