# generated using pymatgen
data_In2Te3
_symmetry_space_group_name_H-M   'P 1'
_cell_length_a   18.89913318
_cell_length_b   18.89407765
_cell_length_c   18.89751091
_cell_angle_alpha   89.95699068
_cell_angle_beta   89.92953712
_cell_angle_gamma   89.86012246
_symmetry_Int_Tables_number   1
_chemical_formula_structural   In2Te3
_chemical_formula_sum   'In72 Te108'
_cell_volume   6747.92803241
_cell_formula_units_Z   36
loop_
 _symmetry_equiv_pos_site_id
 _symmetry_equiv_pos_as_xyz
  1  'x, y, z'
loop_
 _atom_site_type_symbol
 _atom_site_label
 _atom_site_symmetry_multiplicity
 _atom_site_fract_x
 _atom_site_fract_y
 _atom_site_fract_z
 _atom_site_occupancy
  In  In0  1  0.48931559  0.34126477  0.84485551  1
  In  In1  1  0.37236425  0.00818614  0.12961792  1
  In  In2  1  0.50500654  0.51513622  -0.00048798  1
  In  In3  1  0.33754389  0.17138145  0.81581976  1
  In  In4  1  0.16891501  0.50192977  0.33705137  1
  In  In5  1  0.86093600  0.50249132  0.33802103  1
  In  In6  1  0.34281001  0.84502710  0.81828119  1
  In  In7  1  0.68618106  0.63662373  0.01891716  1
  In  In8  1  -0.00496551  0.82581750  0.84273436  1
  In  In9  1  0.80351891  0.00568658  0.80676462  1
  In  In10  1  0.46298731  0.65375075  0.51397147  1
  In  In11  1  0.32917513  0.33410913  0.00216554  1
  In  In12  1  0.66160855  0.85481402  0.85454163  1
  In  In13  1  0.81682092  0.49511059  0.65570968  1
  In  In14  1  0.84478323  0.83054980  0.66068417  1
  In  In15  1  0.66709799  0.64367833  0.66689321  1
  In  In16  1  0.01213264  0.48602029  0.82901693  1
  In  In17  1  0.49178600  0.31168616  0.47502193  1
  In  In18  1  0.17678922  0.67419302  0.18232706  1
  In  In19  1  0.00753570  0.14979110  0.47135345  1
  In  In20  1  0.00614270  0.19076694  0.84843534  1
  In  In21  1  0.19215017  0.32999935  0.49475981  1
  In  In22  1  0.64954042  0.48784837  0.50828082  1
  In  In23  1  0.34158888  -0.01764129  0.33494171  1
  In  In24  1  0.48422358  0.00367658  0.51271427  1
  In  In25  1  0.31484145  0.01505049  0.62275550  1
  In  In26  1  0.66036398  0.16442663  0.17916085  1
  In  In27  1  0.18373563  0.65957654  0.82865892  1
  In  In28  1  0.36244006  0.68901067  -0.00019102  1
  In  In29  1  0.01486641  0.67598167  0.65615841  1
  In  In30  1  0.84167898  0.17916431  0.01103353  1
  In  In31  1  0.82662333  0.49964658  0.01661360  1
  In  In32  1  0.80810571  0.30466345  0.51158681  1
  In  In33  1  0.66396360  0.69548673  0.32234204  1
  In  In34  1  -0.01020467  -0.00120201  0.00574994  1
  In  In35  1  0.84878446  0.68422760  0.83009475  1
  In  In36  1  0.67467713  0.03022838  0.34558409  1
  In  In37  1  0.01069047  0.66163586  0.32994286  1
  In  In38  1  0.33388195  0.49714175  0.78781160  1
  In  In39  1  0.64867057  0.48687000  0.81689867  1
  In  In40  1  0.00912436  0.86502407  0.46814905  1
  In  In41  1  0.50574832  0.02555653  0.85673630  1
  In  In42  1  0.16090286  0.30719727  0.81236016  1
  In  In43  1  0.32259107  0.50339283  0.17720892  1
  In  In44  1  0.67402454  0.30840464  0.32383412  1
  In  In45  1  0.47403195  0.25286403  0.20803395  1
  In  In46  1  0.17175159  0.16093553  -0.00106630  1
  In  In47  1  0.49472747  0.81843265  0.02481256  1
  In  In48  1  0.50351086  0.69213008  0.81046573  1
  In  In49  1  0.83566531  0.66935073  0.17857121  1
  In  In50  1  0.66011479  0.83079738  0.49571223  1
  In  In51  1  0.17708522  0.68393209  0.51971405  1
  In  In52  1  0.18137905  -0.02067729  0.18492135  1
  In  In53  1  0.65582012  0.00899522  0.65346149  1
  In  In54  1  0.46849811  0.84427142  0.65567906  1
  In  In55  1  0.01833012  0.83373028  0.19321384  1
  In  In56  1  0.15876190  0.49510198  -0.00585739  1
  In  In57  1  0.00288970  -0.00274341  0.61276639  1
  In  In58  1  -0.00715449  0.34104409  0.66338736  1
  In  In59  1  0.81940994  0.34096288  0.83377568  1
  In  In60  1  0.64947948  0.84364179  0.17142585  1
  In  In61  1  0.64659544  0.48787943  0.16548835  1
  In  In62  1  0.17486795  0.14346676  0.63793448  1
  In  In63  1  -0.01639324  0.16326233  0.19343091  1
  In  In64  1  0.67791934  -0.01096163  -0.02107325  1
  In  In65  1  0.33017476  0.69754230  0.33591207  1
  In  In66  1  0.16025752  0.32121985  0.17578354  1
  In  In67  1  0.83629852  0.00273786  0.19763367  1
  In  In68  1  0.15969352  -0.00199606  0.83492005  1
  In  In69  1  0.49913631  0.17965861  0.65774887  1
  In  In70  1  0.00893716  0.33841634  0.31919005  1
  In  In71  1  0.48717457  0.50045705  0.34805659  1
  Te  Te72  1  0.07946591  0.08439801  0.09315384  1
  Te  Te73  1  0.11774950  0.04817082  0.42737455  1
  Te  Te74  1  0.08017961  0.09655420  0.75046412  1
  Te  Te75  1  0.08474425  0.41901765  0.09469637  1
  Te  Te76  1  0.08389809  0.41525131  0.42774493  1
  Te  Te77  1  0.10459110  0.42159241  0.72688484  1
  Te  Te78  1  0.09378658  0.75571584  0.09383952  1
  Te  Te79  1  0.10021589  0.75603086  0.40703212  1
  Te  Te80  1  0.09629858  0.76195480  0.74983809  1
  Te  Te81  1  0.45826378  0.13183068  0.11385735  1
  Te  Te82  1  0.42617932  0.08617157  0.40242477  1
  Te  Te83  1  0.41421316  0.06247041  0.73369855  1
  Te  Te84  1  0.41774078  0.42363564  0.08643435  1
  Te  Te85  1  0.39098043  0.43335372  0.44129899  1
  Te  Te86  1  0.41505451  0.39134877  0.72777872  1
  Te  Te87  1  0.38808127  0.77360336  0.11900026  1
  Te  Te88  1  0.42682593  0.76538115  0.42522910  1
  Te  Te89  1  0.38139931  0.72909336  0.71954233  1
  Te  Te90  1  0.75777810  0.06993172  0.08514282  1
  Te  Te91  1  0.79771398  0.07628797  0.41434909  1
  Te  Te92  1  0.73547142  0.11393359  0.72901413  1
  Te  Te93  1  0.73942138  0.40597277  0.08686679  1
  Te  Te94  1  0.74624786  0.41695142  0.41333166  1
  Te  Te95  1  0.72623963  0.39527709  0.72369184  1
  Te  Te96  1  0.74599722  0.75645942  0.08870696  1
  Te  Te97  1  0.75786522  0.75054311  0.41989200  1
  Te  Te98  1  0.73666094  0.75963587  0.74657362  1
  Te  Te99  1  0.09858703  0.22197315  0.27399836  1
  Te  Te100  1  0.07828561  0.24748607  0.57582696  1
  Te  Te101  1  0.08732005  0.27551304  0.94289683  1
  Te  Te102  1  0.08102611  0.56752731  0.23197776  1
  Te  Te103  1  0.07916065  0.58123529  0.56450027  1
  Te  Te104  1  0.07484137  0.59460453  0.91416059  1
  Te  Te105  1  0.07113693  0.94480575  0.27793693  1
  Te  Te106  1  0.10695020  0.90357761  0.57431320  1
  Te  Te107  1  0.08780169  0.90782565  0.93302271  1
  Te  Te108  1  0.39438682  0.23983424  0.33174731  1
  Te  Te109  1  0.40328438  0.22423229  0.55706610  1
  Te  Te110  1  0.41686075  0.23384225  0.92869928  1
  Te  Te111  1  0.41376358  0.59498922  0.25436150  1
  Te  Te112  1  0.39784940  0.53586646  0.57203635  1
  Te  Te113  1  0.41773377  0.58479374  0.89568356  1
  Te  Te114  1  0.41424418  0.90363918  0.22907841  1
  Te  Te115  1  0.37306577  0.89278254  0.54673927  1
  Te  Te116  1  0.42754263  0.91516045  0.92312177  1
  Te  Te117  1  0.77181717  0.22890255  0.24906696  1
  Te  Te118  1  0.74686525  0.20775677  0.60235938  1
  Te  Te119  1  0.74711950  0.24477225  0.91886612  1
  Te  Te120  1  0.73923030  0.57364790  0.25309507  1
  Te  Te121  1  0.75816394  0.59584266  0.55890040  1
  Te  Te122  1  0.74741206  0.57856039  0.88732372  1
  Te  Te123  1  0.74148749  0.91086274  0.27122811  1
  Te  Te124  1  0.75471419  0.92154111  0.57759568  1
  Te  Te125  1  0.78908711  0.90251413  0.92000311  1
  Te  Te126  1  0.26047041  0.23728893  0.09635270  1
  Te  Te127  1  0.25615063  0.23208388  0.40511688  1
  Te  Te128  1  0.25976048  0.24887359  0.71195499  1
  Te  Te129  1  0.26235087  0.58496622  0.06202268  1
  Te  Te130  1  0.25382019  0.59478226  0.41855300  1
  Te  Te131  1  0.23152779  0.57552504  0.71777413  1
  Te  Te132  1  0.25740428  0.93783327  0.06672694  1
  Te  Te133  1  0.21879119  0.93896677  0.40959211  1
  Te  Te134  1  0.24787298  0.92815947  0.73335023  1
  Te  Te135  1  0.57603619  0.25923671  0.10062367  1
  Te  Te136  1  0.60298823  0.22544187  0.42217849  1
  Te  Te137  1  0.57049395  0.24064955  0.77027102  1
  Te  Te138  1  0.56524707  0.60511297  0.10532577  1
  Te  Te139  1  0.58070658  0.59659405  0.42278199  1
  Te  Te140  1  0.55334516  0.56805553  0.73098008  1
  Te  Te141  1  0.57482733  0.93746239  0.07761640  1
  Te  Te142  1  0.57772779  0.92948876  0.41716982  1
  Te  Te143  1  0.57218124  0.91887941  0.74787900  1
  Te  Te144  1  0.93547599  0.25728293  0.09105148  1
  Te  Te145  1  0.91583777  0.25941481  0.41379195  1
  Te  Te146  1  0.90846629  0.24949693  0.74838755  1
  Te  Te147  1  0.91644049  0.59472132  0.08095677  1
  Te  Te148  1  0.93934455  0.58185187  0.43210255  1
  Te  Te149  1  0.91611764  0.57717142  0.73993417  1
  Te  Te150  1  0.91619048  0.91210784  0.10494489  1
  Te  Te151  1  0.90037531  0.96081051  0.42705994  1
  Te  Te152  1  0.92833635  0.92931589  0.74199720  1
  Te  Te153  1  0.27945266  0.08103121  0.23368801  1
  Te  Te154  1  0.24559080  0.09708533  0.51075343  1
  Te  Te155  1  0.26415522  0.07695861  0.91246542  1
  Te  Te156  1  0.25709123  0.40024539  0.26532456  1
  Te  Te157  1  0.28371539  0.42725171  0.56035356  1
  Te  Te158  1  0.25076335  0.41063298  0.89558058  1
  Te  Te159  1  0.22817587  0.78118515  0.26842850  1
  Te  Te160  1  0.28406346  0.75317974  0.59311265  1
  Te  Te161  1  0.25873984  0.76127687  0.91455840  1
  Te  Te162  1  0.56673266  0.07869993  0.25582156  1
  Te  Te163  1  0.59384257  0.10410403  0.55367902  1
  Te  Te164  1  0.61164324  0.10644939  0.91673414  1
  Te  Te165  1  0.56230483  0.40245265  0.26046911  1
  Te  Te166  1  0.57353366  0.38505501  0.57708004  1
  Te  Te167  1  0.59399539  0.41061666  0.93555789  1
  Te  Te168  1  0.55598463  0.77105978  0.25928967  1
  Te  Te169  1  0.57291498  0.74850730  0.59534812  1
  Te  Te170  1  0.59223792  0.73586193  0.92761437  1
  Te  Te171  1  0.92324933  0.07184235  0.30045527  1
  Te  Te172  1  0.91129627  0.10542502  0.57730478  1
  Te  Te173  1  0.91266152  0.08199351  0.90195467  1
  Te  Te174  1  0.91303673  0.41309707  0.23568253  1
  Te  Te175  1  0.90642705  0.41485626  0.56427883  1
  Te  Te176  1  0.91836612  0.41453335  0.92217637  1
  Te  Te177  1  0.90949716  0.76103685  0.27402483  1
  Te  Te178  1  0.93260924  0.76209040  0.56117990  1
  Te  Te179  1  0.91970192  0.74607317  0.94152990  1
