# generated using pymatgen
data_In2Te3
_symmetry_space_group_name_H-M   'P 1'
_cell_length_a   18.95026435
_cell_length_b   18.96018802
_cell_length_c   18.96869987
_cell_angle_alpha   90.30203550
_cell_angle_beta   90.11674859
_cell_angle_gamma   90.12365430
_symmetry_Int_Tables_number   1
_chemical_formula_structural   In2Te3
_chemical_formula_sum   'In72 Te108'
_cell_volume   6815.33989244
_cell_formula_units_Z   36
loop_
 _symmetry_equiv_pos_site_id
 _symmetry_equiv_pos_as_xyz
  1  'x, y, z'
loop_
 _atom_site_type_symbol
 _atom_site_label
 _atom_site_symmetry_multiplicity
 _atom_site_fract_x
 _atom_site_fract_y
 _atom_site_fract_z
 _atom_site_occupancy
  In  In0  1  0.49654849  0.13189288  -0.00809927  1
  In  In1  1  0.14731450  0.51227072  0.03120342  1
  In  In2  1  0.17941362  0.33633477  0.48040607  1
  In  In3  1  -0.00333653  0.33827633  0.32226601  1
  In  In4  1  0.66103457  0.51473171  0.47641537  1
  In  In5  1  -0.02713361  0.52056689  0.46357394  1
  In  In6  1  0.66040111  0.18823547  0.17316288  1
  In  In7  1  0.63348702  0.72517301  0.66410420  1
  In  In8  1  0.68201951  0.85009343  0.13957395  1
  In  In9  1  0.33509776  0.82973589  0.84122663  1
  In  In10  1  0.01683973  0.83132053  0.84259620  1
  In  In11  1  0.01941621  -0.01830471  0.35981697  1
  In  In12  1  0.34740600  0.65505111  0.65437916  1
  In  In13  1  0.33490370  -0.01167151  0.34272304  1
  In  In14  1  0.34953392  0.52325804  0.47133837  1
  In  In15  1  0.31565646  0.01500023  0.66906761  1
  In  In16  1  0.01486111  0.19028897  0.18560054  1
  In  In17  1  0.01468265  0.33795568  0.01354427  1
  In  In18  1  0.01659563  -0.01434437  0.65792860  1
  In  In19  1  0.83058797  -0.03060617  0.17216542  1
  In  In20  1  0.48786858  0.52077202  0.00925103  1
  In  In21  1  0.48295450  0.32759344  0.50816360  1
  In  In22  1  0.67416721  0.67418695  0.02138542  1
  In  In23  1  0.34004866  0.83026208  0.48830827  1
  In  In24  1  0.67542237  -0.01269338  -0.01279321  1
  In  In25  1  0.00314434  0.14638441  0.52287764  1
  In  In26  1  0.17131159  0.82829592  0.63154906  1
  In  In27  1  0.70197583  0.67691136  0.30515958  1
  In  In28  1  0.00823859  0.50145404  0.83851317  1
  In  In29  1  0.45886683  0.01332949  0.17728829  1
  In  In30  1  0.52088393  0.15209695  0.65470776  1
  In  In31  1  0.84863880  0.12925660  0.35958765  1
  In  In32  1  0.30438347  0.32247221  0.66069515  1
  In  In33  1  0.51165142  0.34721540  0.17260616  1
  In  In34  1  -0.03116752  0.69091659  0.63501129  1
  In  In35  1  0.19791017  0.70380637  0.83552774  1
  In  In36  1  0.30508029  0.66961895  0.01691684  1
  In  In37  1  0.16034167  0.16669572  0.67614398  1
  In  In38  1  0.81774795  0.52322293  0.03726469  1
  In  In39  1  0.82858376  0.70245674  0.50414649  1
  In  In40  1  0.50129041  0.17244879  0.34877482  1
  In  In41  1  0.53428829  -0.01898939  0.79529029  1
  In  In42  1  0.16587622  0.14794014  -0.02201781  1
  In  In43  1  0.49824045  0.66345660  0.17569362  1
  In  In44  1  0.16671121  0.32314373  0.86305348  1
  In  In45  1  0.35606945  0.31409421  0.01215111  1
  In  In46  1  0.51025553  -0.01942511  0.51697786  1
  In  In47  1  0.68085144  -0.02345266  0.32793412  1
  In  In48  1  0.49029087  0.82048695  -0.00070001  1
  In  In49  1  0.52137059  0.67245206  0.83461743  1
  In  In50  1  0.68087592  0.31153098  0.66925000  1
  In  In51  1  0.79405248  -0.01641656  0.80842473  1
  In  In52  1  0.80849989  0.16083650  -0.01821008  1
  In  In53  1  0.66552000  0.48491302  0.86102340  1
  In  In54  1  0.83355341  0.32105485  0.53307733  1
  In  In55  1  0.66350483  0.32730793  0.35239646  1
  In  In56  1  0.48404371  0.48546081  0.65898477  1
  In  In57  1  0.33123991  0.48875289  0.83106791  1
  In  In58  1  0.00166214  0.67050813  0.00407406  1
  In  In59  1  0.82855198  0.34186768  0.16461178  1
  In  In60  1  0.80573612  0.85145712  0.64215343  1
  In  In61  1  0.13645024  0.51552347  0.63769765  1
  In  In62  1  0.33101151  0.67251773  0.32936035  1
  In  In63  1  0.30715610  0.16870176  0.16642953  1
  In  In64  1  0.84544921  0.30242160  0.83725887  1
  In  In65  1  0.00204862  0.76385427  0.30726538  1
  In  In66  1  0.16062532  0.69911286  0.18597451  1
  In  In67  1  -0.00781375  0.00600438  0.01397357  1
  In  In68  1  0.17490557  -0.04144649  0.16198007  1
  In  In69  1  0.84332035  0.50765786  0.66227563  1
  In  In70  1  0.32095182  0.36087894  0.32423323  1
  In  In71  1  -0.01991864  0.31474581  0.69640796  1
  Te  Te72  1  0.09131051  0.08443675  0.10423844  1
  Te  Te73  1  0.08156413  0.10605465  0.40530875  1
  Te  Te74  1  0.06709243  0.08625703  0.75433191  1
  Te  Te75  1  0.07988586  0.41670234  0.12284704  1
  Te  Te76  1  0.08412341  0.43046810  0.40821537  1
  Te  Te77  1  0.09842273  0.40775996  0.75536767  1
  Te  Te78  1  0.09361554  0.76413323  0.07106672  1
  Te  Te79  1  0.06360060  0.76054169  0.44239154  1
  Te  Te80  1  0.08804897  0.74151108  0.73037083  1
  Te  Te81  1  0.37522770  0.07382731  0.06852426  1
  Te  Te82  1  0.42172946  0.07627082  0.43199477  1
  Te  Te83  1  0.42558541  0.07906587  0.75106712  1
  Te  Te84  1  0.40616734  0.42855059  0.09881319  1
  Te  Te85  1  0.44021477  0.42254236  0.40046636  1
  Te  Te86  1  0.41086877  0.38884445  0.75034004  1
  Te  Te87  1  0.40108179  0.75440722  0.10074340  1
  Te  Te88  1  0.42963483  0.74120235  0.41603567  1
  Te  Te89  1  0.42385326  0.74862412  0.74591704  1
  Te  Te90  1  0.74078211  0.07878400  0.10006057  1
  Te  Te91  1  0.72965569  0.07679560  0.42638431  1
  Te  Te92  1  0.76991600  0.11423316  0.74835612  1
  Te  Te93  1  0.73770835  0.40539324  0.06943571  1
  Te  Te94  1  0.76368618  0.41108351  0.43299469  1
  Te  Te95  1  0.76830156  0.41387108  0.75393769  1
  Te  Te96  1  0.78152604  0.74564436  0.09879305  1
  Te  Te97  1  0.70471479  0.75023830  0.43827072  1
  Te  Te98  1  0.76484896  0.74007962  0.72698922  1
  Te  Te99  1  0.11732702  0.26775792  0.26367516  1
  Te  Te100  1  0.08561774  0.26796582  0.58544124  1
  Te  Te101  1  0.05681557  0.23226044  0.91179478  1
  Te  Te102  1  0.06488178  0.63300370  0.27623753  1
  Te  Te103  1  0.06578647  0.61401670  0.54229769  1
  Te  Te104  1  0.11244287  0.59224457  0.90281692  1
  Te  Te105  1  0.06206896  0.89637427  0.24411417  1
  Te  Te106  1  0.12731873  0.95217050  0.56346652  1
  Te  Te107  1  0.09015210  0.94081058  0.91690898  1
  Te  Te108  1  0.42028747  0.24299616  0.24096797  1
  Te  Te109  1  0.40192757  0.23124452  0.58922429  1
  Te  Te110  1  0.40590564  0.21813226  0.91452292  1
  Te  Te111  1  0.41032580  0.57454512  0.24948368  1
  Te  Te112  1  0.45269643  0.59683338  0.56298343  1
  Te  Te113  1  0.39883450  0.60809154  0.90984969  1
  Te  Te114  1  0.42292361  0.90279016  0.26254959  1
  Te  Te115  1  0.40278598  0.91174178  0.60072056  1
  Te  Te116  1  0.43749627  0.92373062  0.90231772  1
  Te  Te117  1  0.76618414  0.23823444  0.27098454  1
  Te  Te118  1  0.77137142  0.20964011  0.60804551  1
  Te  Te119  1  0.73003339  0.26612941  0.91953454  1
  Te  Te120  1  0.79455567  0.56876568  0.26520684  1
  Te  Te121  1  0.74956162  0.58819005  0.57851507  1
  Te  Te122  1  0.75515077  0.59266655  0.91765297  1
  Te  Te123  1  0.80664005  0.88396662  0.30261295  1
  Te  Te124  1  0.75748646  0.96871418  0.56938679  1
  Te  Te125  1  0.76051749  0.89106120  0.91787458  1
  Te  Te126  1  0.22941172  0.25425566  0.06930395  1
  Te  Te127  1  0.27604136  0.25188845  0.41131648  1
  Te  Te128  1  0.25464660  0.23597132  0.77546257  1
  Te  Te129  1  0.24541323  0.58227373  0.12220777  1
  Te  Te130  1  0.24183545  0.56732577  0.38444354  1
  Te  Te131  1  0.24841127  0.57629151  0.73903730  1
  Te  Te132  1  0.27221360  0.90283619  0.07011799  1
  Te  Te133  1  0.23469954  0.89169078  0.40012887  1
  Te  Te134  1  0.24381224  0.90375179  0.74510670  1
  Te  Te135  1  0.56671354  0.24412696  0.07060715  1
  Te  Te136  1  0.59299490  0.23723127  0.45150332  1
  Te  Te137  1  0.57360607  0.25286200  0.74681189  1
  Te  Te138  1  0.59696745  0.57306489  0.10137673  1
  Te  Te139  1  0.59672502  0.61863322  0.39564684  1
  Te  Te140  1  0.58221359  0.56072661  0.75297479  1
  Te  Te141  1  0.56525833  0.93176808  0.08475351  1
  Te  Te142  1  0.57360122  0.90883413  0.40296785  1
  Te  Te143  1  0.59673756  0.86690010  0.71994290  1
  Te  Te144  1  0.91221198  0.23724029  0.07953965  1
  Te  Te145  1  0.92335574  0.25081300  0.42912663  1
  Te  Te146  1  0.90401931  0.19606573  0.74659124  1
  Te  Te147  1  0.94618127  0.56605754  0.09140793  1
  Te  Te148  1  0.87500391  0.60794597  0.39286436  1
  Te  Te149  1  0.92861977  0.59552280  0.75131494  1
  Te  Te150  1  0.92532443  0.89791517  0.08813411  1
  Te  Te151  1  0.90131520  0.91815457  0.42163503  1
  Te  Te152  1  0.91665980  0.90028807  0.74239980  1
  Te  Te153  1  0.23832590  0.06609445  0.25347516  1
  Te  Te154  1  0.23331529  0.09004911  0.57211890  1
  Te  Te155  1  0.21368797  0.03293209  0.90401132  1
  Te  Te156  1  0.21356733  0.38612925  0.22832368  1
  Te  Te157  1  0.26255131  0.43926216  0.57250546  1
  Te  Te158  1  0.24858959  0.42679759  0.94209450  1
  Te  Te159  1  0.23891267  0.78309043  0.28325061  1
  Te  Te160  1  0.25259974  0.72254688  0.55957681  1
  Te  Te161  1  0.23429702  0.79738356  0.96059884  1
  Te  Te162  1  0.58257033  0.08376741  0.25259086  1
  Te  Te163  1  0.61533128  0.04895665  0.60140295  1
  Te  Te164  1  0.60174855  0.07862405  0.89346759  1
  Te  Te165  1  0.60902173  0.41964216  0.25392581  1
  Te  Te166  1  0.59462892  0.41355262  0.58140231  1
  Te  Te167  1  0.54739533  0.42235831  0.91822479  1
  Te  Te168  1  0.59952219  0.76555406  0.23107864  1
  Te  Te169  1  0.58447489  0.82387262  0.56981407  1
  Te  Te170  1  0.60742430  0.76473851  0.91928387  1
  Te  Te171  1  0.92107279  0.07844002  0.23877345  1
  Te  Te172  1  0.90861451  0.04116276  0.56849879  1
  Te  Te173  1  0.88965217  0.05514221  0.91381632  1
  Te  Te174  1  0.89565375  0.43142252  0.26272976  1
  Te  Te175  1  0.94355018  0.42474666  0.58543345  1
  Te  Te176  1  0.91931443  0.41357384  0.92200945  1
  Te  Te177  1  0.86986705  0.75801514  0.23445385  1
  Te  Te178  1  0.95011129  0.80591151  0.52949712  1
  Te  Te179  1  0.91988918  0.74548221  0.90834620  1
