# generated using pymatgen
data_In2Te3
_symmetry_space_group_name_H-M   'P 1'
_cell_length_a   18.92369694
_cell_length_b   18.93095920
_cell_length_c   18.93224788
_cell_angle_alpha   89.95685426
_cell_angle_beta   90.08377645
_cell_angle_gamma   89.86086427
_symmetry_Int_Tables_number   1
_chemical_formula_structural   In2Te3
_chemical_formula_sum   'In72 Te108'
_cell_volume   6782.32999570
_cell_formula_units_Z   36
loop_
 _symmetry_equiv_pos_site_id
 _symmetry_equiv_pos_as_xyz
  1  'x, y, z'
loop_
 _atom_site_type_symbol
 _atom_site_label
 _atom_site_symmetry_multiplicity
 _atom_site_fract_x
 _atom_site_fract_y
 _atom_site_fract_z
 _atom_site_occupancy
  In  In0  1  0.18086059  0.49566556  0.00173731  1
  In  In1  1  0.83066622  0.68807164  0.16912980  1
  In  In2  1  0.51630845  0.14849214  0.31927462  1
  In  In3  1  0.00843307  0.68319156  0.68013484  1
  In  In4  1  -0.00145288  -0.01019531  -0.01130691  1
  In  In5  1  0.18368708  0.84897963  0.31800642  1
  In  In6  1  0.34721074  0.14640291  0.15156744  1
  In  In7  1  0.15651870  0.83909576  -0.00773344  1
  In  In8  1  0.65924553  0.84378757  0.51124021  1
  In  In9  1  0.31922586  0.83957732  0.15696174  1
  In  In10  1  0.34263149  0.84449415  0.83182735  1
  In  In11  1  0.16576345  0.13681102  0.01394581  1
  In  In12  1  0.84271504  0.01577384  0.15659848  1
  In  In13  1  0.35629864  -0.00003109  0.64594638  1
  In  In14  1  0.81939115  0.65483185  0.53552765  1
  In  In15  1  0.51078109  0.15615593  0.66180639  1
  In  In16  1  0.15547606  0.16094679  0.68371320  1
  In  In17  1  0.49595460  0.33157525  0.17461275  1
  In  In18  1  0.64251829  0.49773094  0.15640564  1
  In  In19  1  0.82907971  0.83992206  0.32480016  1
  In  In20  1  0.80638630  0.67051983  0.83394419  1
  In  In21  1  0.17555228  0.16632926  0.33115015  1
  In  In22  1  0.54033683  0.52995378  0.68555863  1
  In  In23  1  0.66542738  0.34008427  0.66595533  1
  In  In24  1  0.01471303  0.50025867  0.82724070  1
  In  In25  1  0.82940140  0.34653175  0.50193179  1
  In  In26  1  0.33299470  -0.00627056  0.32966917  1
  In  In27  1  0.16046337  0.83220406  0.66872979  1
  In  In28  1  0.65645703  0.51820918  0.51262976  1
  In  In29  1  0.34988554  0.66725516  -0.01683923  1
  In  In30  1  0.18880844  0.68369301  0.50682298  1
  In  In31  1  0.65943368  -0.01116838  0.66587046  1
  In  In32  1  0.78228271  0.12321710  0.35167157  1
  In  In33  1  0.52460318  0.50818253  -0.02651615  1
  In  In34  1  0.01065530  0.68364520  0.00471318  1
  In  In35  1  0.17111376  0.34387944  0.18173189  1
  In  In36  1  0.65312479  0.65800406  0.34702128  1
  In  In37  1  -0.01487108  0.83173710  0.50342957  1
  In  In38  1  0.82984240  0.16333437  -0.00573908  1
  In  In39  1  0.79631348  0.83769081  -0.01454408  1
  In  In40  1  -0.00099304  0.15534575  0.48805793  1
  In  In41  1  0.84935507  0.18921903  0.66319996  1
  In  In42  1  -0.00903002  0.65207470  0.32423094  1
  In  In43  1  0.51820254  0.82636753  0.67446331  1
  In  In44  1  -0.01029983  0.30121941  0.00477701  1
  In  In45  1  0.16519655  0.35561970  0.84892419  1
  In  In46  1  0.32454506  0.16557184  0.47723221  1
  In  In47  1  0.51407200  0.81540788  -0.02279012  1
  In  In48  1  0.49687086  0.15819813  0.00544074  1
  In  In49  1  0.50245811  0.83147456  0.32805008  1
  In  In50  1  0.82692691  0.33399639  0.82107881  1
  In  In51  1  0.66806241  0.17729229  0.84734664  1
  In  In52  1  0.18345160  0.31234049  0.53082910  1
  In  In53  1  0.37406513  0.54050578  0.17866460  1
  In  In54  1  0.31493619  0.14884970  0.84222653  1
  In  In55  1  0.32451962  0.34967698  -0.01521519  1
  In  In56  1  0.17650810  0.51036095  0.34080441  1
  In  In57  1  0.35353342  0.36142541  0.68297487  1
  In  In58  1  0.82721578  -0.00755423  0.82962237  1
  In  In59  1  0.00613417  0.49043742  0.54329043  1
  In  In60  1  0.84581402  0.48551192  0.34074939  1
  In  In61  1  0.67001840  0.83178730  0.14974559  1
  In  In62  1  0.00061661  0.50476724  0.19238047  1
  In  In63  1  0.66809632  0.16003130  0.16443967  1
  In  In64  1  0.35646932  0.48648537  0.49897252  1
  In  In65  1  -0.00564600  0.00010322  0.68271965  1
  In  In66  1  0.48588953  0.69011284  0.49746816  1
  In  In67  1  0.49817938  0.30328177  0.47802148  1
  In  In68  1  0.00605966  0.34216114  0.32970689  1
  In  In69  1  0.81579534  0.49789400  0.00004483  1
  In  In70  1  0.31068763  0.65071891  0.69352326  1
  In  In71  1  0.00976832  -0.01374730  0.33091917  1
  Te  Te72  1  0.05564007  0.07999645  0.09086138  1
  Te  Te73  1  0.10292391  0.06880326  0.42082433  1
  Te  Te74  1  0.09192240  0.06496054  0.77280965  1
  Te  Te75  1  0.07766096  0.41702846  0.08369341  1
  Te  Te76  1  0.08751466  0.42231707  0.42976464  1
  Te  Te77  1  0.09100942  0.41381732  0.73607570  1
  Te  Te78  1  0.09454661  0.75602762  0.09839518  1
  Te  Te79  1  0.07341396  0.73845075  0.42198180  1
  Te  Te80  1  0.08362986  0.76647671  0.77592989  1
  Te  Te81  1  0.40006029  0.05340180  0.04965577  1
  Te  Te82  1  0.42696244  0.07289947  0.42093595  1
  Te  Te83  1  0.42293202  0.07869043  0.75801935  1
  Te  Te84  1  0.41483281  0.42694973  0.07788917  1
  Te  Te85  1  0.41388885  0.39542380  0.40016604  1
  Te  Te86  1  0.45592825  0.43501069  0.76961073  1
  Te  Te87  1  0.42217991  0.75250485  0.08449868  1
  Te  Te88  1  0.40037858  0.78101206  0.42117610  1
  Te  Te89  1  0.41955965  0.73940154  0.75347680  1
  Te  Te90  1  0.73629275  0.06697636  0.06167703  1
  Te  Te91  1  0.69288944  0.04475242  0.43685221  1
  Te  Te92  1  0.74954432  0.10251339  0.74183886  1
  Te  Te93  1  0.74103268  0.41069631  0.09001970  1
  Te  Te94  1  0.72992900  0.42490170  0.41655670  1
  Te  Te95  1  0.73961474  0.43277548  0.75447060  1
  Te  Te96  1  0.73142966  0.72183901  0.06165394  1
  Te  Te97  1  0.76331016  0.73758045  0.41851289  1
  Te  Te98  1  0.70815703  0.74828900  0.75182308  1
  Te  Te99  1  0.07712208  0.24070385  0.24164040  1
  Te  Te100  1  0.06396186  0.24654156  0.59152030  1
  Te  Te101  1  0.09824617  0.24028847  0.91914566  1
  Te  Te102  1  0.10698219  0.60147290  0.24009236  1
  Te  Te103  1  0.10045198  0.59641985  0.59621750  1
  Te  Te104  1  0.09555436  0.59069490  0.91832515  1
  Te  Te105  1  0.08458494  0.91243983  0.22980221  1
  Te  Te106  1  0.07998856  0.92244324  0.57708681  1
  Te  Te107  1  0.06851280  0.90311427  0.89033525  1
  Te  Te108  1  0.40688654  0.23797121  0.25446682  1
  Te  Te109  1  0.40248414  0.24768955  0.59019279  1
  Te  Te110  1  0.40751779  0.24799216  0.91221974  1
  Te  Te111  1  0.45721778  0.60642653  0.27790709  1
  Te  Te112  1  0.42149221  0.58420229  0.60051513  1
  Te  Te113  1  0.44286445  0.60051996  0.89071837  1
  Te  Te114  1  0.42653227  0.92384032  0.23407010  1
  Te  Te115  1  0.45217441  0.91420968  0.57509578  1
  Te  Te116  1  0.42101519  0.92225851  0.92963204  1
  Te  Te117  1  0.73302603  0.23823900  0.27331076  1
  Te  Te118  1  0.73931369  0.24634434  0.57287530  1
  Te  Te119  1  0.74557201  0.27509204  0.93386420  1
  Te  Te120  1  0.76373515  0.58801085  0.26162156  1
  Te  Te121  1  0.75561068  0.55108887  0.61746552  1
  Te  Te122  1  0.72576536  0.56672080  0.90493564  1
  Te  Te123  1  0.74561795  0.92999314  0.23871077  1
  Te  Te124  1  0.75991223  0.90895668  0.59428607  1
  Te  Te125  1  0.71535927  0.91633720  0.88979038  1
  Te  Te126  1  0.25120773  0.25778031  0.08314438  1
  Te  Te127  1  0.25139414  0.27772239  0.40137202  1
  Te  Te128  1  0.25546446  0.26338182  0.75163574  1
  Te  Te129  1  0.26204697  0.59195874  0.08351339  1
  Te  Te130  1  0.27480105  0.59262532  0.42130202  1
  Te  Te131  1  0.23025060  0.55565722  0.76730631  1
  Te  Te132  1  0.24656856  0.93173825  0.06568083  1
  Te  Te133  1  0.24858680  0.92240206  0.42641844  1
  Te  Te134  1  0.25750270  0.92873316  0.73743255  1
  Te  Te135  1  0.58571348  0.25790716  0.07804193  1
  Te  Te136  1  0.60386751  0.24175755  0.39582821  1
  Te  Te137  1  0.57446838  0.25712895  0.75482680  1
  Te  Te138  1  0.57035924  0.59867507  0.07979701  1
  Te  Te139  1  0.54156210  0.57352697  0.40599918  1
  Te  Te140  1  0.61301767  0.62519790  0.77902408  1
  Te  Te141  1  0.58788915  0.91302192  0.06056616  1
  Te  Te142  1  0.60405435  0.92115579  0.39639026  1
  Te  Te143  1  0.57538869  0.92537895  0.76933108  1
  Te  Te144  1  0.91190278  0.22443299  0.10071571  1
  Te  Te145  1  0.91230341  0.25467188  0.41127842  1
  Te  Te146  1  0.93210585  0.24779075  0.76864633  1
  Te  Te147  1  0.91826963  0.58322754  0.09027667  1
  Te  Te148  1  0.92086624  0.57472522  0.44060518  1
  Te  Te149  1  0.91613279  0.59118134  0.75750459  1
  Te  Te150  1  0.90198940  0.90423750  0.07326954  1
  Te  Te151  1  0.90124082  0.92945029  0.42287602  1
  Te  Te152  1  0.91015911  0.90063544  0.75083857  1
  Te  Te153  1  0.24295385  0.07261717  0.23393321  1
  Te  Te154  1  0.24607642  0.09054998  0.58295845  1
  Te  Te155  1  0.24251372  0.04890988  0.92395499  1
  Te  Te156  1  0.26864163  0.44052332  0.24209018  1
  Te  Te157  1  0.25031990  0.43139891  0.59386138  1
  Te  Te158  1  0.27810851  0.46129655  0.88216478  1
  Te  Te159  1  0.26776209  0.74583495  0.25815262  1
  Te  Te160  1  0.27729014  0.76611373  0.59654974  1
  Te  Te161  1  0.24950696  0.75062312  0.90615354  1
  Te  Te162  1  0.56481972  0.06568913  0.20902543  1
  Te  Te163  1  0.58593101  0.07348675  0.56482337  1
  Te  Te164  1  0.57678062  0.08179238  0.90839895  1
  Te  Te165  1  0.57761057  0.41751395  0.26004704  1
  Te  Te166  1  0.56184433  0.41447949  0.57439056  1
  Te  Te167  1  0.56836527  0.41312632  0.87169309  1
  Te  Te168  1  0.58576317  0.73926817  0.23903492  1
  Te  Te169  1  0.60367437  0.72452033  0.58375498  1
  Te  Te170  1  0.60024035  0.75192237  0.86904161  1
  Te  Te171  1  0.90724144  0.08660906  0.27402789  1
  Te  Te172  1  0.90694563  0.07784364  0.57778816  1
  Te  Te173  1  0.92078614  0.08876654  0.90018183  1
  Te  Te174  1  0.90091452  0.39638236  0.23159464  1
  Te  Te175  1  0.90264860  0.41318406  0.61004755  1
  Te  Te176  1  0.92813264  0.41865516  0.92761401  1
  Te  Te177  1  0.93602491  0.76849866  0.24316997  1
  Te  Te178  1  0.89892577  0.76133204  0.60691147  1
  Te  Te179  1  0.90466111  0.75060990  0.91947327  1
