# generated using pymatgen
data_In2Te3
_symmetry_space_group_name_H-M   'P 1'
_cell_length_a   18.88230561
_cell_length_b   18.86978190
_cell_length_c   18.89415805
_cell_angle_alpha   89.86430404
_cell_angle_beta   90.08217141
_cell_angle_gamma   90.10073083
_symmetry_Int_Tables_number   1
_chemical_formula_structural   In2Te3
_chemical_formula_sum   'In72 Te108'
_cell_volume   6732.04660413
_cell_formula_units_Z   36
loop_
 _symmetry_equiv_pos_site_id
 _symmetry_equiv_pos_as_xyz
  1  'x, y, z'
loop_
 _atom_site_type_symbol
 _atom_site_label
 _atom_site_symmetry_multiplicity
 _atom_site_fract_x
 _atom_site_fract_y
 _atom_site_fract_z
 _atom_site_occupancy
  In  In0  1  0.16848908  0.32503582  0.51965253  1
  In  In1  1  0.84046957  0.65013419  0.17614226  1
  In  In2  1  0.02443180  0.19854009  0.87782932  1
  In  In3  1  -0.02216728  0.19344661  0.13239147  1
  In  In4  1  0.82963160  0.49987712  -0.00659862  1
  In  In5  1  0.69214886  0.50548079  0.50213220  1
  In  In6  1  0.01853447  0.68519622  0.35326504  1
  In  In7  1  0.33810122  0.66242050  0.02456629  1
  In  In8  1  0.48975177  0.50971114  0.65703359  1
  In  In9  1  0.63604068  0.16200224  0.47835803  1
  In  In10  1  0.33738850  0.33501516  0.01116702  1
  In  In11  1  0.81389336  0.49656701  0.32402157  1
  In  In12  1  0.85780762  0.67841172  0.82949742  1
  In  In13  1  0.48388846  0.82420576  0.00283488  1
  In  In14  1  0.17231059  0.49169770  0.00276234  1
  In  In15  1  0.17207718  -0.00945336  0.17460396  1
  In  In16  1  0.67195293  0.00194723  0.02000518  1
  In  In17  1  0.50030806  0.64866776  0.47783419  1
  In  In18  1  0.00746586  0.52230039  0.50559843  1
  In  In19  1  0.84063204  0.19165200  0.68098627  1
  In  In20  1  0.66436674  0.49869449  0.83493212  1
  In  In21  1  0.34888290  0.52196835  0.83206475  1
  In  In22  1  0.16845264  0.83501717  0.01998007  1
  In  In23  1  0.69176032  0.01314032  0.64711107  1
  In  In24  1  0.51192692  -0.00619172  0.83024290  1
  In  In25  1  0.30591193  0.17641052  0.85439874  1
  In  In26  1  0.84798047  0.35749671  0.50627631  1
  In  In27  1  0.51470174  0.67548635  0.19089500  1
  In  In28  1  0.31965146  0.85159909  0.83612925  1
  In  In29  1  0.51110225  0.30330293  0.49453604  1
  In  In30  1  -0.00049735  0.48695428  0.14916795  1
  In  In31  1  0.83173189  -0.00964962  0.16563914  1
  In  In32  1  0.66178907  0.82983312  0.17701604  1
  In  In33  1  0.83643631  0.83977334  0.64131277  1
  In  In34  1  0.81188265  0.79268725  0.34060563  1
  In  In35  1  0.01322975  0.17403620  0.53078490  1
  In  In36  1  0.17973806  0.49539886  0.31642335  1
  In  In37  1  0.49832877  0.81874127  0.64773025  1
  In  In38  1  0.31935057  0.13387269  0.49111460  1
  In  In39  1  0.50942048  0.17887329  0.67455650  1
  In  In40  1  0.47620441  0.14818586  0.01450453  1
  In  In41  1  0.48264225  0.68195045  0.85713780  1
  In  In42  1  0.34320021  0.49684900  0.15605880  1
  In  In43  1  0.14652734  0.16682455  0.34539809  1
  In  In44  1  0.65739595  0.14934750  0.17616274  1
  In  In45  1  0.65210805  0.82012084  0.85198071  1
  In  In46  1  0.00102912  -0.00280762  -0.00361617  1
  In  In47  1  0.00396926  0.67025525  0.66673273  1
  In  In48  1  0.03388962  0.47227708  0.82528500  1
  In  In49  1  -0.01416548  0.34070795  0.32351963  1
  In  In50  1  0.35057957  0.34968995  0.31935892  1
  In  In51  1  0.17126121  -0.02728067  0.50636525  1
  In  In52  1  0.02342928  -0.01836326  0.67632948  1
  In  In53  1  0.52010446  0.47055279  0.29755833  1
  In  In54  1  0.31380538  0.70291266  0.30783239  1
  In  In55  1  0.84487134  0.00814943  0.48236450  1
  In  In56  1  0.84264296  0.01826264  0.81920361  1
  In  In57  1  0.67910477  0.33660332  0.00723494  1
  In  In58  1  0.31668583  0.33644992  0.68525664  1
  In  In59  1  0.67678115  0.32249061  0.67010803  1
  In  In60  1  0.84842710  0.83071118  0.00555049  1
  In  In61  1  0.39031300  -0.02724662  0.32257922  1
  In  In62  1  0.33562287  0.18436656  0.17538407  1
  In  In63  1  0.66890978  0.66292095  0.64267643  1
  In  In64  1  0.17424160  0.00653364  0.82624664  1
  In  In65  1  0.81769060  0.35450761  0.84010594  1
  In  In66  1  0.81823733  0.17817330  0.31696828  1
  In  In67  1  0.32236167  0.00848208  0.65794766  1
  In  In68  1  0.31448585  0.81689064  0.50931953  1
  In  In69  1  0.16104078  0.65725424  0.81234187  1
  In  In70  1  -0.00484063  -0.03169888  0.32167260  1
  In  In71  1  0.33056511  0.52986675  0.48239658  1
  Te  Te72  1  0.07674451  0.08436062  0.09457998  1
  Te  Te73  1  0.06617909  0.06655169  0.42749590  1
  Te  Te74  1  0.06664287  0.09560923  0.76651440  1
  Te  Te75  1  0.08552509  0.38804469  0.07301045  1
  Te  Te76  1  0.08738617  0.41163658  0.41381081  1
  Te  Te77  1  0.12503903  0.38580886  0.75014420  1
  Te  Te78  1  0.11281342  0.72906334  0.10431795  1
  Te  Te79  1  0.09948603  0.76643850  0.45465505  1
  Te  Te80  1  0.07464916  0.76258887  0.75813040  1
  Te  Te81  1  0.39942675  0.06803353  0.11062290  1
  Te  Te82  1  0.43065334  0.09467076  0.40434169  1
  Te  Te83  1  0.40912220  0.08417052  0.75820170  1
  Te  Te84  1  0.43513698  0.39551530  0.10401376  1
  Te  Te85  1  0.42644398  0.42208701  0.43127492  1
  Te  Te86  1  0.42885718  0.41198560  0.75551333  1
  Te  Te87  1  0.39703676  0.76830918  0.11919140  1
  Te  Te88  1  0.41396030  0.75522761  0.41136078  1
  Te  Te89  1  0.40370465  0.75712007  0.74899530  1
  Te  Te90  1  0.77201102  0.09855653  0.07975060  1
  Te  Te91  1  0.73818621  0.07881204  0.39977018  1
  Te  Te92  1  0.73559856  0.10699969  0.75676728  1
  Te  Te93  1  0.72458866  0.45586756  0.09202064  1
  Te  Te94  1  0.73871644  0.39285375  0.40929485  1
  Te  Te95  1  0.75472864  0.43897480  0.72828661  1
  Te  Te96  1  0.75450405  0.74614220  0.08922685  1
  Te  Te97  1  0.70066460  0.73323468  0.41357668  1
  Te  Te98  1  0.74413279  0.75761739  0.74512411  1
  Te  Te99  1  0.07611793  0.25104342  0.24095595  1
  Te  Te100  1  0.06216115  0.28473476  0.61622191  1
  Te  Te101  1  0.11593055  0.27021467  0.97097554  1
  Te  Te102  1  0.06612672  0.57430748  0.25396360  1
  Te  Te103  1  0.10703454  0.59067908  0.59149920  1
  Te  Te104  1  0.08234361  0.58166393  0.91990078  1
  Te  Te105  1  0.10824588  0.88896769  0.26744590  1
  Te  Te106  1  0.05850484  0.89180779  0.56233646  1
  Te  Te107  1  0.08923697  0.90995993  0.91103349  1
  Te  Te108  1  0.44239040  0.25584088  0.25245861  1
  Te  Te109  1  0.39804299  0.24050346  0.58669260  1
  Te  Te110  1  0.42195624  0.25100184  0.91387475  1
  Te  Te111  1  0.40911200  0.58080113  0.26566612  1
  Te  Te112  1  0.40179327  0.61349918  0.58888928  1
  Te  Te113  1  0.43743385  0.56643362  0.95466192  1
  Te  Te114  1  0.44086179  0.87320395  0.22742408  1
  Te  Te115  1  0.41337401  0.92100248  0.57353899  1
  Te  Te116  1  0.41016934  0.93381435  0.92602702  1
  Te  Te117  1  0.74391098  0.26170089  0.22324027  1
  Te  Te118  1  0.74733516  0.23637487  0.56506914  1
  Te  Te119  1  0.74708364  0.24806162  0.91099109  1
  Te  Te120  1  0.72581476  0.58384262  0.24255185  1
  Te  Te121  1  0.78376131  0.59577578  0.57652837  1
  Te  Te122  1  0.75178030  0.59933076  0.90853747  1
  Te  Te123  1  0.75020365  0.91651072  0.26767358  1
  Te  Te124  1  0.73939851  0.91243084  0.54678161  1
  Te  Te125  1  0.75377064  0.92091930  0.91198066  1
  Te  Te126  1  0.24061972  0.23498724  0.06819027  1
  Te  Te127  1  0.25612357  0.25923377  0.41085346  1
  Te  Te128  1  0.21616569  0.25672390  0.76413215  1
  Te  Te129  1  0.23000973  0.58975484  0.10517729  1
  Te  Te130  1  0.23219264  0.61043539  0.40069004  1
  Te  Te131  1  0.25832989  0.58109017  0.73351233  1
  Te  Te132  1  0.26575907  0.93002757  0.07763502  1
  Te  Te133  1  0.26795727  0.91932172  0.40559717  1
  Te  Te134  1  0.23212086  0.90538907  0.72425734  1
  Te  Te135  1  0.58001249  0.23747388  0.07941655  1
  Te  Te136  1  0.57806467  0.25058305  0.37368742  1
  Te  Te137  1  0.58617362  0.26124254  0.76761044  1
  Te  Te138  1  0.54618716  0.60093443  0.07008538  1
  Te  Te139  1  0.59301202  0.55923153  0.39981814  1
  Te  Te140  1  0.57035536  0.60673326  0.75019927  1
  Te  Te141  1  0.56845719  0.91996566  0.09307972  1
  Te  Te142  1  0.53834794  0.96228454  0.36545065  1
  Te  Te143  1  0.59428756  0.90939838  0.73378374  1
  Te  Te144  1  0.92135747  0.30072932  0.05061214  1
  Te  Te145  1  0.92171729  0.23927059  0.42621317  1
  Te  Te146  1  0.92770394  0.26793849  0.77527994  1
  Te  Te147  1  0.92751703  0.59236484  0.06588973  1
  Te  Te148  1  0.91212666  0.58278871  0.40275877  1
  Te  Te149  1  0.93119354  0.56654765  0.75939251  1
  Te  Te150  1  0.94031440  0.90481542  0.10229510  1
  Te  Te151  1  0.90924665  0.88775148  0.41685190  1
  Te  Te152  1  0.91765531  0.90392070  0.75478213  1
  Te  Te153  1  0.24725389  0.08906917  0.26544732  1
  Te  Te154  1  0.21502067  0.09588497  0.59343344  1
  Te  Te155  1  0.24067765  0.07544802  0.93736183  1
  Te  Te156  1  0.24298355  0.39591806  0.22304286  1
  Te  Te157  1  0.26066645  0.43027840  0.57889453  1
  Te  Te158  1  0.26313368  0.41969742  0.90685896  1
  Te  Te159  1  0.19997395  0.75933707  0.22922540  1
  Te  Te160  1  0.20092344  0.73836196  0.56470839  1
  Te  Te161  1  0.25836405  0.73756959  0.91836044  1
  Te  Te162  1  0.59002707  0.03456966  0.24188715  1
  Te  Te163  1  0.56732865  0.07286729  0.58215416  1
  Te  Te164  1  0.58809650  0.08410635  0.92281746  1
  Te  Te165  1  0.62817690  0.42421654  0.21184735  1
  Te  Te166  1  0.58376723  0.41655338  0.58093874  1
  Te  Te167  1  0.58450295  0.41294671  0.92105817  1
  Te  Te168  1  0.59436770  0.75579158  0.29049822  1
  Te  Te169  1  0.59333158  0.75724767  0.54578020  1
  Te  Te170  1  0.59387691  0.72698085  0.95807011  1
  Te  Te171  1  0.92422890  0.08678578  0.25202597  1
  Te  Te172  1  0.91193531  0.07391846  0.60315103  1
  Te  Te173  1  0.91332848  0.09918734  0.92536328  1
  Te  Te174  1  0.89257517  0.40864049  0.22626405  1
  Te  Te175  1  0.93676774  0.42798438  0.59715992  1
  Te  Te176  1  0.93517054  0.40616072  0.93465548  1
  Te  Te177  1  0.92642965  0.75202345  0.24937370  1
  Te  Te178  1  0.89812728  0.72421001  0.57345625  1
  Te  Te179  1  0.94169615  0.75502490  0.92236826  1
