# generated using pymatgen
data_In2Te3
_symmetry_space_group_name_H-M   'P 1'
_cell_length_a   18.96818386
_cell_length_b   18.96670490
_cell_length_c   18.97792700
_cell_angle_alpha   89.98308076
_cell_angle_beta   89.98008666
_cell_angle_gamma   90.00337039
_symmetry_Int_Tables_number   1
_chemical_formula_structural   In2Te3
_chemical_formula_sum   'In72 Te108'
_cell_volume   6827.57318024
_cell_formula_units_Z   36
loop_
 _symmetry_equiv_pos_site_id
 _symmetry_equiv_pos_as_xyz
  1  'x, y, z'
loop_
 _atom_site_type_symbol
 _atom_site_label
 _atom_site_symmetry_multiplicity
 _atom_site_fract_x
 _atom_site_fract_y
 _atom_site_fract_z
 _atom_site_occupancy
  In  In0  1  0.48622327  0.49654895  -0.00566936  1
  In  In1  1  0.33193931  0.51991150  0.18128693  1
  In  In2  1  0.67453046  0.84778970  0.50436703  1
  In  In3  1  0.81075482  0.34654112  0.82704429  1
  In  In4  1  0.70560212  0.07579124  0.30297941  1
  In  In5  1  0.36043192  0.36178640  0.34156558  1
  In  In6  1  -0.00840892  0.50238097  0.82836508  1
  In  In7  1  0.14996942  -0.02126124  0.47432762  1
  In  In8  1  0.84379215  0.84313745  -0.02058079  1
  In  In9  1  0.31596137  0.83653427  0.14881963  1
  In  In10  1  0.50219454  0.82313852  0.34670386  1
  In  In11  1  0.65279616  0.62420300  0.69068332  1
  In  In12  1  0.84010298  0.66940386  0.82326301  1
  In  In13  1  0.00277604  0.85177145  0.16454116  1
  In  In14  1  0.15633241  0.30388494  0.81283519  1
  In  In15  1  0.17655631  0.66327053  0.83187059  1
  In  In16  1  0.34240504  0.14941257  0.16641522  1
  In  In17  1  0.33393530  0.16517947  0.51066153  1
  In  In18  1  0.50690468  0.36003731  0.16968506  1
  In  In19  1  0.15277778  0.14799446  -0.01837799  1
  In  In20  1  0.52211713  0.64793675  0.49766854  1
  In  In21  1  0.17651139  0.63117115  0.51697489  1
  In  In22  1  0.37095967  0.34580445  0.68214878  1
  In  In23  1  -0.01639636  0.00312532  0.67004439  1
  In  In24  1  0.33595227  0.65267341  0.66027346  1
  In  In25  1  -0.01203215  0.03181294  0.32552239  1
  In  In26  1  0.15710803  0.48452620  0.01516129  1
  In  In27  1  0.49384888  0.16092455  0.00974555  1
  In  In28  1  0.53098056  0.02264625  0.49231987  1
  In  In29  1  0.68838339  0.01307100  0.67303692  1
  In  In30  1  0.80995510  0.03793227  0.51584782  1
  In  In31  1  0.02083338  0.64574347  0.66957598  1
  In  In32  1  0.83370314  0.65830632  0.51914895  1
  In  In33  1  0.66552303  0.82955222  0.83400835  1
  In  In34  1  -0.02425560  0.19934903  0.15070059  1
  In  In35  1  0.16498636  0.33430521  0.16167145  1
  In  In36  1  0.46805862  0.83043536  0.67053582  1
  In  In37  1  -0.00968803  0.64405500  0.31998333  1
  In  In38  1  0.15783188  0.15830439  0.34985956  1
  In  In39  1  0.34227495  0.80822510  0.51307061  1
  In  In40  1  0.80845752  0.46650671  0.35812840  1
  In  In41  1  0.68256878  0.03832277  0.02706066  1
  In  In42  1  0.48931030  0.00046465  0.83741669  1
  In  In43  1  0.83318265  0.02512540  0.81760157  1
  In  In44  1  -0.00370145  0.16115297  0.83675394  1
  In  In45  1  0.33675658  0.48978030  0.50321729  1
  In  In46  1  0.34320305  0.30911817  -0.02852231  1
  In  In47  1  0.48948239  0.66852010  0.18705300  1
  In  In48  1  0.83283857  0.49991494  0.01335400  1
  In  In49  1  0.66026973  0.65270425  0.33538385  1
  In  In50  1  0.15843702  0.66599656  0.17437849  1
  In  In51  1  -0.00299266  0.00539663  0.01323249  1
  In  In52  1  0.17650286  -0.00929796  0.83335368  1
  In  In53  1  -0.01577916  0.33486517  0.37729423  1
  In  In54  1  0.68587489  0.49332794  0.15872312  1
  In  In55  1  -0.00229944  0.32538991  0.64581029  1
  In  In56  1  0.67186399  0.66452464  -0.00976255  1
  In  In57  1  0.32499928  -0.00154579  0.67342805  1
  In  In58  1  -0.00688177  0.83503699  0.50434392  1
  In  In59  1  0.35089050  0.00568337  0.35358941  1
  In  In60  1  0.36719559  0.17836648  0.82965117  1
  In  In61  1  0.16488210  0.82878994  -0.01065051  1
  In  In62  1  0.15993653  0.33436538  0.50382965  1
  In  In63  1  0.80974276  0.44971272  0.64052224  1
  In  In64  1  0.68045867  0.34148564  -0.00147491  1
  In  In65  1  0.15313480  0.80503503  0.31714700  1
  In  In66  1  0.84369660  0.68282677  0.14793825  1
  In  In67  1  0.64691421  0.24108876  0.51082576  1
  In  In68  1  0.81450087  0.87249277  0.32676066  1
  In  In69  1  0.49806175  0.84549912  -0.01679133  1
  In  In70  1  0.51740301  0.00968635  0.16462805  1
  In  In71  1  0.33436447  0.50750156  0.83594717  1
  Te  Te72  1  0.08130201  0.09323718  0.10199026  1
  Te  Te73  1  0.05654959  0.09824097  0.44685264  1
  Te  Te74  1  0.09186355  0.08351150  0.74954729  1
  Te  Te75  1  0.05918134  0.40440405  0.08926913  1
  Te  Te76  1  0.09414614  0.42590877  0.41143726  1
  Te  Te77  1  0.08039355  0.41402924  0.74314958  1
  Te  Te78  1  0.07167028  0.74849407  0.08138134  1
  Te  Te79  1  0.07329902  0.73332215  0.42418127  1
  Te  Te80  1  0.07725163  0.74389358  0.75969341  1
  Te  Te81  1  0.40657124  0.05219613  0.06923920  1
  Te  Te82  1  0.44025027  0.11255247  0.41104741  1
  Te  Te83  1  0.43414802  0.08790415  0.72565359  1
  Te  Te84  1  0.38677523  0.40847157  0.07919315  1
  Te  Te85  1  0.44857153  0.40435078  0.45153728  1
  Te  Te86  1  0.45263074  0.44966057  0.76250190  1
  Te  Te87  1  0.42252013  0.75348510  0.08174836  1
  Te  Te88  1  0.41594229  0.71940564  0.41517038  1
  Te  Te89  1  0.41874315  0.72518800  0.75647336  1
  Te  Te90  1  0.75926632  0.14413182  0.10408012  1
  Te  Te91  1  0.80156508  0.13843992  0.40433360  1
  Te  Te92  1  0.74140537  0.12226433  0.75571731  1
  Te  Te93  1  0.78032538  0.38658747  0.10710898  1
  Te  Te94  1  0.74210732  0.34943946  0.42972714  1
  Te  Te95  1  0.70671569  0.41535529  0.74415286  1
  Te  Te96  1  0.74472458  0.76714025  0.07348334  1
  Te  Te97  1  0.75651267  0.75144067  0.41830459  1
  Te  Te98  1  0.73885155  0.74168817  0.73498731  1
  Te  Te99  1  0.07999193  0.25005033  0.25855604  1
  Te  Te100  1  0.10329392  0.23619224  0.59558059  1
  Te  Te101  1  0.06837147  0.26040622  0.92890399  1
  Te  Te102  1  0.08256110  0.56189498  0.24402088  1
  Te  Te103  1  0.06592494  0.55148384  0.56778388  1
  Te  Te104  1  0.08359918  0.57811005  0.92082321  1
  Te  Te105  1  0.08654640  0.92981491  0.26332139  1
  Te  Te106  1  0.08745050  0.91159961  0.59337867  1
  Te  Te107  1  0.06794283  0.91901300  0.91189577  1
  Te  Te108  1  0.41454494  0.25978009  0.24077376  1
  Te  Te109  1  0.42940805  0.27044397  0.55945270  1
  Te  Te110  1  0.46769893  0.26774707  0.89871697  1
  Te  Te111  1  0.44417814  0.55569144  0.26763091  1
  Te  Te112  1  0.43789434  0.56485784  0.59128459  1
  Te  Te113  1  0.39370527  0.59495654  0.93782560  1
  Te  Te114  1  0.42252602  0.91542419  0.25309183  1
  Te  Te115  1  0.42633244  0.93191055  0.55661666  1
  Te  Te116  1  0.39600943  0.90469542  0.89541257  1
  Te  Te117  1  0.71135462  0.21076740  0.23440872  1
  Te  Te118  1  0.76561007  0.29503742  0.58734036  1
  Te  Te119  1  0.73280074  0.24415740  0.90031159  1
  Te  Te120  1  0.76885221  0.58849792  0.24754387  1
  Te  Te121  1  0.72654236  0.56547885  0.57305848  1
  Te  Te122  1  0.75502761  0.57308554  0.90505918  1
  Te  Te123  1  0.73065415  0.94610228  0.23475368  1
  Te  Te124  1  0.77325374  0.91279619  0.59726698  1
  Te  Te125  1  0.73913197  0.93464861  0.91387839  1
  Te  Te126  1  0.25191206  0.23440833  0.07468766  1
  Te  Te127  1  0.26391839  0.25189017  0.40459450  1
  Te  Te128  1  0.26752232  0.23913396  0.73452456  1
  Te  Te129  1  0.24766155  0.58950300  0.07738560  1
  Te  Te130  1  0.25949220  0.57541498  0.41228840  1
  Te  Te131  1  0.23809839  0.56349243  0.73423799  1
  Te  Te132  1  0.22629562  0.92692940  0.08054824  1
  Te  Te133  1  0.25614112  0.88939178  0.40990248  1
  Te  Te134  1  0.26321162  0.89776577  0.75774237  1
  Te  Te135  1  0.58007354  0.26056370  0.08277217  1
  Te  Te136  1  0.60991128  0.29445593  0.37597200  1
  Te  Te137  1  0.51489640  0.28998815  0.69223349  1
  Te  Te138  1  0.58516999  0.58555303  0.09020557  1
  Te  Te139  1  0.60438449  0.55071333  0.42344091  1
  Te  Te140  1  0.56745456  0.55318743  0.78524626  1
  Te  Te141  1  0.59576289  0.91914079  0.07254037  1
  Te  Te142  1  0.60159341  0.92777216  0.39815696  1
  Te  Te143  1  0.58284012  0.91708994  0.73780734  1
  Te  Te144  1  0.87011625  0.24048357  0.05660641  1
  Te  Te145  1  0.93052660  0.21464566  0.44226746  1
  Te  Te146  1  0.91527186  0.25871777  0.75551562  1
  Te  Te147  1  0.92773354  0.57778742  0.09336738  1
  Te  Te148  1  0.90521761  0.56876792  0.42041944  1
  Te  Te149  1  0.89298929  0.55976432  0.72816444  1
  Te  Te150  1  0.89347152  0.92931820  0.09526945  1
  Te  Te151  1  0.91004346  0.93724516  0.42622089  1
  Te  Te152  1  0.91208456  0.91567763  0.76351841  1
  Te  Te153  1  0.25111542  0.07381164  0.26220508  1
  Te  Te154  1  0.23821832  0.06452789  0.56897430  1
  Te  Te155  1  0.26794080  0.08810945  0.90623328  1
  Te  Te156  1  0.24626009  0.42010150  0.25639441  1
  Te  Te157  1  0.25502842  0.40625658  0.59749539  1
  Te  Te158  1  0.24034446  0.40006846  0.90527674  1
  Te  Te159  1  0.27043289  0.73541203  0.25204923  1
  Te  Te160  1  0.23320384  0.74799857  0.59558939  1
  Te  Te161  1  0.26124487  0.73895927  0.92524844  1
  Te  Te162  1  0.57060602  0.11882385  0.24748867  1
  Te  Te163  1  0.60719443  0.10934394  0.58606808  1
  Te  Te164  1  0.58658565  0.08519001  0.91631934  1
  Te  Te165  1  0.60819344  0.41780729  0.26161099  1
  Te  Te166  1  0.61964315  0.36018454  0.60957983  1
  Te  Te167  1  0.60244928  0.44370404  0.92062681  1
  Te  Te168  1  0.59669830  0.75825694  0.24644843  1
  Te  Te169  1  0.57703809  0.76193761  0.58155921  1
  Te  Te170  1  0.57035213  0.73581629  0.90324566  1
  Te  Te171  1  0.90133155  0.09559782  0.22695379  1
  Te  Te172  1  0.90264005  0.10745056  0.60507906  1
  Te  Te173  1  0.90287170  0.09415534  0.93522904  1
  Te  Te174  1  0.89930063  0.39248007  0.27158140  1
  Te  Te175  1  0.91603647  0.40236793  0.54943303  1
  Te  Te176  1  0.91368888  0.41139603  0.91965432  1
  Te  Te177  1  0.91669763  0.77013962  0.26299497  1
  Te  Te178  1  0.92024740  0.74723961  0.60286348  1
  Te  Te179  1  0.92217611  0.73281219  0.92591830  1
