# generated using pymatgen
data_In2Te3
_symmetry_space_group_name_H-M   'P 1'
_cell_length_a   18.77298499
_cell_length_b   18.76864023
_cell_length_c   18.77849798
_cell_angle_alpha   89.96061456
_cell_angle_beta   90.05028587
_cell_angle_gamma   89.96536203
_symmetry_Int_Tables_number   1
_chemical_formula_structural   In2Te3
_chemical_formula_sum   'In72 Te108'
_cell_volume   6616.47452523
_cell_formula_units_Z   36
loop_
 _symmetry_equiv_pos_site_id
 _symmetry_equiv_pos_as_xyz
  1  'x, y, z'
loop_
 _atom_site_type_symbol
 _atom_site_label
 _atom_site_symmetry_multiplicity
 _atom_site_fract_x
 _atom_site_fract_y
 _atom_site_fract_z
 _atom_site_occupancy
  In  In0  1  0.00436138  0.80182923  0.15764833  1
  In  In1  1  0.17522208  -0.00724606  0.15739305  1
  In  In2  1  0.01203291  0.34974791  0.67278015  1
  In  In3  1  0.31228463  0.83058988  0.51343130  1
  In  In4  1  0.67291866  0.67342321  0.33038176  1
  In  In5  1  0.16958916  0.84393403  0.34802364  1
  In  In6  1  0.50446290  0.83018829  0.30892632  1
  In  In7  1  0.51560950  0.17287525  0.68776144  1
  In  In8  1  0.32591429  0.13885881  0.52113388  1
  In  In9  1  -0.04149355  0.33690348  0.32612181  1
  In  In10  1  0.29226054  0.34305904  0.31046898  1
  In  In11  1  -0.02325325  0.65421184  0.34332130  1
  In  In12  1  0.15814433  0.33649348  0.84775952  1
  In  In13  1  0.68990770  0.34917300  0.34693740  1
  In  In14  1  0.51588558  0.16962941  0.34175720  1
  In  In15  1  0.34807661  0.34589421  0.66143106  1
  In  In16  1  0.51720437  0.66284494  0.50545422  1
  In  In17  1  0.84048940  0.17844743  -0.01817683  1
  In  In18  1  0.66446893  0.50637464  0.15215367  1
  In  In19  1  0.69002529  0.84127045  0.82204043  1
  In  In20  1  0.67896345  0.66337839  0.00020322  1
  In  In21  1  0.51015258  0.52236375  0.33150334  1
  In  In22  1  0.14066399  0.14415882  0.32875483  1
  In  In23  1  0.33471131  0.66566188  0.31882872  1
  In  In24  1  -0.01642506  0.83449966  0.51798033  1
  In  In25  1  0.84219892  0.64629711  0.13337499  1
  In  In26  1  0.52188520  0.51314917  0.65611755  1
  In  In27  1  -0.00899917  0.34912158  -0.01339637  1
  In  In28  1  0.84025747  0.33205140  0.51242039  1
  In  In29  1  0.66543789  0.81566728  0.50731679  1
  In  In30  1  0.32728280  0.16689223  0.14769935  1
  In  In31  1  0.82404257  -0.01200138  0.18019817  1
  In  In32  1  0.33617503  0.83471677  0.15792371  1
  In  In33  1  0.32000498  -0.00508250  -0.00082420  1
  In  In34  1  0.49945662  0.82542726  0.02164780  1
  In  In35  1  0.55860662  0.36008518  0.84810372  1
  In  In36  1  0.83690231  0.16860517  0.67404230  1
  In  In37  1  0.84564893  0.63969072  0.82293425  1
  In  In38  1  0.81765302  0.36011785  0.16977830  1
  In  In39  1  0.00277489  -0.00057133  -0.01671401  1
  In  In40  1  0.67951031  0.00864731  0.33433657  1
  In  In41  1  0.50024404  0.16662814  0.00277612  1
  In  In42  1  0.30888489  0.80935565  0.82917449  1
  In  In43  1  0.00926472  0.51047647  0.51912795  1
  In  In44  1  0.00038820  -0.00051678  0.35933052  1
  In  In45  1  -0.00318412  0.15229397  0.17594110  1
  In  In46  1  0.16143819  0.16008233  0.65737716  1
  In  In47  1  0.00422836  -0.01692808  0.68082032  1
  In  In48  1  0.16061853  -0.00935072  0.83729337  1
  In  In49  1  0.16341281  0.65190909  0.52263434  1
  In  In50  1  0.64825942  -0.00952490  -0.00246077  1
  In  In51  1  0.48783198  0.33943581  0.14189047  1
  In  In52  1  0.50499670  0.00443107  0.82885876  1
  In  In53  1  0.67334482  0.01553447  0.67770461  1
  In  In54  1  0.52130506  0.36336090  0.50822165  1
  In  In55  1  0.14894404  0.50861029  0.67467585  1
  In  In56  1  0.66259713  0.17398626  0.17409723  1
  In  In57  1  0.49059024  -0.00528387  0.52079300  1
  In  In58  1  0.49224477  0.66305120  0.82616932  1
  In  In59  1  0.37267753  0.51296069  0.49160463  1
  In  In60  1  0.33347876  0.34775893  -0.00906711  1
  In  In61  1  0.15064239  0.36331393  0.14606398  1
  In  In62  1  0.34436392  0.15206168  0.82909760  1
  In  In63  1  0.82604491  -0.00167870  0.48953771  1
  In  In64  1  0.15837612  0.49563148  0.30511146  1
  In  In65  1  0.83845640  0.80570503  -0.01454447  1
  In  In66  1  0.81876448  0.35459395  0.81710180  1
  In  In67  1  0.16601299  0.65081206  0.12678112  1
  In  In68  1  0.16631395  0.32448423  0.50752982  1
  In  In69  1  0.85769347  0.81490797  0.68264698  1
  In  In70  1  0.33342782  0.51011836  0.84142889  1
  In  In71  1  0.13862871  0.65495104  0.84503623  1
  Te  Te72  1  0.09083750  0.08979716  0.07495512  1
  Te  Te73  1  0.09122534  0.07446864  0.44772203  1
  Te  Te74  1  0.07434962  0.09438217  0.76212872  1
  Te  Te75  1  0.05832822  0.45518233  0.07234695  1
  Te  Te76  1  0.08092549  0.41685369  0.41865757  1
  Te  Te77  1  0.06624694  0.44122827  0.78321152  1
  Te  Te78  1  0.07630969  0.73861047  0.04527497  1
  Te  Te79  1  0.08078914  0.74031877  0.42042670  1
  Te  Te80  1  0.10187106  0.73918902  0.72548823  1
  Te  Te81  1  0.42428886  0.06483981  0.08735521  1
  Te  Te82  1  0.41711851  0.07702256  0.41372150  1
  Te  Te83  1  0.41079496  0.06662610  0.72339251  1
  Te  Te84  1  0.43941263  0.43934147  0.04382213  1
  Te  Te85  1  0.41622204  0.40420567  0.39409213  1
  Te  Te86  1  0.43839989  0.42052284  0.75799858  1
  Te  Te87  1  0.39902861  0.73128314  0.07499968  1
  Te  Te88  1  0.41918980  0.74574946  0.41859809  1
  Te  Te89  1  0.42190966  0.76368444  0.74296863  1
  Te  Te90  1  0.75063726  0.08497278  0.08249898  1
  Te  Te91  1  0.74604208  0.10366318  0.42428110  1
  Te  Te92  1  0.76345909  0.08290796  0.77236993  1
  Te  Te93  1  0.74300836  0.42146724  0.05487860  1
  Te  Te94  1  0.78640680  0.43710922  0.41755854  1
  Te  Te95  1  0.72132644  0.45918232  0.75008919  1
  Te  Te96  1  0.74565480  0.76092126  0.09692450  1
  Te  Te97  1  0.76417872  0.73084967  0.43433346  1
  Te  Te98  1  0.74592689  0.72683348  0.74010044  1
  Te  Te99  1  0.08770392  0.26420297  0.25058669  1
  Te  Te100  1  0.05935319  0.24124952  0.57531659  1
  Te  Te101  1  0.07113311  0.24335536  0.92098890  1
  Te  Te102  1  0.06677880  0.59372188  0.23494003  1
  Te  Te103  1  0.04524108  0.62678633  0.63172547  1
  Te  Te104  1  0.05360294  0.58067799  0.94732092  1
  Te  Te105  1  0.07037553  0.91931558  0.24357128  1
  Te  Te106  1  0.09163613  0.90428728  0.58892168  1
  Te  Te107  1  0.07959727  0.89301599  0.91366601  1
  Te  Te108  1  0.41782196  0.24691335  0.24366960  1
  Te  Te109  1  0.42584089  0.25234716  0.57029613  1
  Te  Te110  1  0.42935679  0.25810243  0.90096997  1
  Te  Te111  1  0.42617759  0.58953665  0.23067166  1
  Te  Te112  1  0.40715569  0.60338970  0.60487765  1
  Te  Te113  1  0.42671912  0.58166548  0.93257748  1
  Te  Te114  1  0.39834035  0.91989223  0.26000254  1
  Te  Te115  1  0.42540767  0.88347942  0.59450347  1
  Te  Te116  1  0.41830533  0.91320527  0.91537689  1
  Te  Te117  1  0.76464482  0.24740240  0.25954874  1
  Te  Te118  1  0.74536418  0.26243240  0.60269763  1
  Te  Te119  1  0.74320796  0.26349339  0.90938998  1
  Te  Te120  1  0.76071423  0.57842566  0.24530019  1
  Te  Te121  1  0.73937515  0.54245053  0.62935554  1
  Te  Te122  1  0.74606185  0.56194666  0.91061478  1
  Te  Te123  1  0.74001903  0.89668528  0.25964179  1
  Te  Te124  1  0.75725341  0.91210483  0.59741003  1
  Te  Te125  1  0.76508471  0.92704913  0.92199934  1
  Te  Te126  1  0.23512612  0.25929820  0.06921242  1
  Te  Te127  1  0.25421857  0.23769342  0.41827187  1
  Te  Te128  1  0.25202663  0.26071161  0.74418655  1
  Te  Te129  1  0.25410100  0.54511252  0.07515833  1
  Te  Te130  1  0.24670478  0.57395501  0.41132166  1
  Te  Te131  1  0.25191974  0.59431812  0.74576873  1
  Te  Te132  1  0.22904989  0.88947396  0.06025751  1
  Te  Te133  1  0.25645656  0.93471015  0.42326664  1
  Te  Te134  1  0.25748605  0.92325751  0.74856843  1
  Te  Te135  1  0.59915189  0.26352235  0.06820848  1
  Te  Te136  1  0.60244203  0.25651719  0.43195647  1
  Te  Te137  1  0.61119312  0.27244539  0.74027993  1
  Te  Te138  1  0.57327769  0.60178270  0.08529392  1
  Te  Te139  1  0.61234630  0.56895749  0.43123715  1
  Te  Te140  1  0.60063110  0.57382073  0.76971384  1
  Te  Te141  1  0.58560977  0.91200519  0.10482726  1
  Te  Te142  1  0.58202081  0.91287004  0.42238632  1
  Te  Te143  1  0.58126041  0.90901031  0.73792807  1
  Te  Te144  1  0.91672770  0.25690245  0.09886265  1
  Te  Te145  1  0.92223665  0.23964227  0.42837577  1
  Te  Te146  1  0.92759337  0.25932768  0.76149842  1
  Te  Te147  1  0.92255752  0.57225248  0.03117927  1
  Te  Te148  1  0.89867500  0.56426625  0.43354841  1
  Te  Te149  1  0.91967378  0.56574339  0.71626697  1
  Te  Te150  1  0.91744852  0.91210832  0.08444342  1
  Te  Te151  1  0.89977400  0.89507283  0.40384486  1
  Te  Te152  1  0.92681268  0.90225962  0.77973389  1
  Te  Te153  1  0.25676150  0.07988606  0.25277026  1
  Te  Te154  1  0.24414594  0.04890710  0.60458566  1
  Te  Te155  1  0.24002108  0.09972762  0.92314728  1
  Te  Te156  1  0.27330149  0.45216023  0.19959953  1
  Te  Te157  1  0.25102849  0.43068762  0.57806391  1
  Te  Te158  1  0.22783046  0.44572998  0.93302853  1
  Te  Te159  1  0.22583796  0.74465155  0.24430604  1
  Te  Te160  1  0.21736252  0.76225173  0.61172645  1
  Te  Te161  1  0.24794871  0.71582724  0.92523776  1
  Te  Te162  1  0.57294533  0.07041107  0.24039615  1
  Te  Te163  1  0.59061352  0.09602442  0.57776752  1
  Te  Te164  1  0.59647549  0.10079276  0.90282939  1
  Te  Te165  1  0.58435740  0.40470105  0.24926231  1
  Te  Te166  1  0.63141742  0.43314797  0.58289163  1
  Te  Te167  1  0.63136981  0.45150815  0.93873293  1
  Te  Te168  1  0.57152694  0.72302244  0.23286842  1
  Te  Te169  1  0.59753526  0.73150897  0.60804789  1
  Te  Te170  1  0.59252988  0.76270738  0.91177049  1
  Te  Te171  1  0.90350074  0.08299797  0.27247510  1
  Te  Te172  1  0.91827037  0.07079175  0.58747194  1
  Te  Te173  1  0.91250740  0.08080666  0.89722379  1
  Te  Te174  1  0.92047197  0.44471223  0.23505819  1
  Te  Te175  1  0.90302642  0.44306488  0.61533478  1
  Te  Te176  1  0.89597138  0.44158284  0.91550882  1
  Te  Te177  1  0.89776681  0.74287474  0.24724307  1
  Te  Te178  1  0.88382695  0.73174105  0.56096653  1
  Te  Te179  1  0.93099202  0.74450532  0.88821995  1
