# generated using pymatgen
data_In2Te3
_symmetry_space_group_name_H-M   'P 1'
_cell_length_a   18.88518022
_cell_length_b   18.90266078
_cell_length_c   18.90856896
_cell_angle_alpha   90.11903878
_cell_angle_beta   90.18260033
_cell_angle_gamma   90.22004050
_symmetry_Int_Tables_number   1
_chemical_formula_structural   In2Te3
_chemical_formula_sum   'In72 Te108'
_cell_volume   6749.88508967
_cell_formula_units_Z   36
loop_
 _symmetry_equiv_pos_site_id
 _symmetry_equiv_pos_as_xyz
  1  'x, y, z'
loop_
 _atom_site_type_symbol
 _atom_site_label
 _atom_site_symmetry_multiplicity
 _atom_site_fract_x
 _atom_site_fract_y
 _atom_site_fract_z
 _atom_site_occupancy
  In  In0  1  0.02364656  0.65008416  0.30386565  1
  In  In1  1  -0.00731420  0.17393556  0.51301938  1
  In  In2  1  0.15782482  0.86628183  0.30971481  1
  In  In3  1  0.34630831  0.18951241  0.84520456  1
  In  In4  1  0.29646068  0.18039668  0.13732317  1
  In  In5  1  0.14990761  0.30214301  0.86326632  1
  In  In6  1  0.00986184  0.66666970  0.02218553  1
  In  In7  1  0.67578723  0.00063350  -0.01689861  1
  In  In8  1  0.50773542  0.65484087  0.50118885  1
  In  In9  1  0.86615079  0.02424807  0.86896027  1
  In  In10  1  0.16879254  0.16250828  0.33620245  1
  In  In11  1  0.16913344  0.51016687  0.64097164  1
  In  In12  1  0.16911440  0.69764288  0.82492662  1
  In  In13  1  0.49718993  0.01443251  0.83423015  1
  In  In14  1  0.68765597  0.81764650  0.84098584  1
  In  In15  1  -0.00590740  -0.01421597  0.32454712  1
  In  In16  1  0.49228493  0.32490901  0.15592982  1
  In  In17  1  0.17100977  0.48821246  0.01171115  1
  In  In18  1  0.32523060  0.49432590  0.82179953  1
  In  In19  1  0.48115898  0.83056655  0.68096423  1
  In  In20  1  -0.00650096  0.82817120  0.52396223  1
  In  In21  1  -0.01293116  0.50564559  0.49034860  1
  In  In22  1  0.48627543  0.00710101  0.17812994  1
  In  In23  1  0.54678859  0.81529849  -0.02437556  1
  In  In24  1  0.01488995  0.15720764  0.14973346  1
  In  In25  1  0.32027958  0.38159332  0.29830263  1
  In  In26  1  0.66568703  0.35580133  0.32808829  1
  In  In27  1  0.01201926  0.32330627  0.67193196  1
  In  In28  1  0.83505928  0.33782742  0.16353015  1
  In  In29  1  0.46680488  0.63971550  0.19032735  1
  In  In30  1  0.50694832  0.48841977  0.01317064  1
  In  In31  1  0.16538076  0.82387549  -0.00423770  1
  In  In32  1  0.16924571  0.85641083  0.65993565  1
  In  In33  1  0.69668343  0.82924128  0.49779978  1
  In  In34  1  0.68131759  0.82566846  0.16158199  1
  In  In35  1  0.00348125  0.34335769  0.32649678  1
  In  In36  1  0.87071886  -0.01049277  0.14012342  1
  In  In37  1  0.83836351  0.65445649  0.14911244  1
  In  In38  1  0.82915204  0.15496946  0.67729638  1
  In  In39  1  0.66503377  0.33245701  0.68675389  1
  In  In40  1  0.34107449  0.84552684  0.48835436  1
  In  In41  1  0.82643602  0.16795262  0.36520749  1
  In  In42  1  0.64886227  0.16296365  0.15411004  1
  In  In43  1  0.34652585  -0.00152835  -0.00418941  1
  In  In44  1  0.66043215  0.18768726  0.83823843  1
  In  In45  1  0.84024734  0.63840169  0.84072418  1
  In  In46  1  0.50140482  -0.01028259  0.51752952  1
  In  In47  1  0.34414060  0.82181986  0.78892661  1
  In  In48  1  0.81863657  0.50785580  0.66248002  1
  In  In49  1  0.67709706  0.66927147  0.67545864  1
  In  In50  1  0.64981534  0.49953647  0.49847840  1
  In  In51  1  0.67431848  0.17232199  0.51325057  1
  In  In52  1  0.84474827  0.33041108  0.83643911  1
  In  In53  1  0.33210096  0.63842044  0.02051206  1
  In  In54  1  0.16721573  0.66162574  0.47172458  1
  In  In55  1  0.50034798  0.17051496  0.32168731  1
  In  In56  1  0.26392980  0.02978898  0.67891845  1
  In  In57  1  0.31712285  0.01050692  0.33818254  1
  In  In58  1  0.48733914  0.35043992  0.84696522  1
  In  In59  1  0.67231392  -0.00956889  0.64898263  1
  In  In60  1  0.32426631  0.48766746  0.49042909  1
  In  In61  1  0.83534535  0.81441781  0.31875368  1
  In  In62  1  0.67021506  0.48755713  0.16206859  1
  In  In63  1  0.36529976  0.69399986  0.66135213  1
  In  In64  1  0.83607048  0.50267145  0.33775246  1
  In  In65  1  0.12382490  0.03653984  0.85103502  1
  In  In66  1  0.14911067  0.31140166  0.50249843  1
  In  In67  1  -0.00565590  0.49817478  0.84245395  1
  In  In68  1  0.46954219  0.31005185  0.53028082  1
  In  In69  1  0.33367065  0.81120565  0.16203496  1
  In  In70  1  0.00397054  0.84380284  0.83000487  1
  In  In71  1  0.51300456  0.81918785  0.35313905  1
  Te  Te72  1  0.12031913  0.11846431  0.05282792  1
  Te  Te73  1  0.07065292  0.08234852  0.41746282  1
  Te  Te74  1  0.06971625  0.11345621  0.73858284  1
  Te  Te75  1  0.09612242  0.36962847  0.05915172  1
  Te  Te76  1  0.09285504  0.42690100  0.41783740  1
  Te  Te77  1  0.09921439  0.42229948  0.75170467  1
  Te  Te78  1  0.11955040  0.72913883  0.09882804  1
  Te  Te79  1  0.07912614  0.76524478  0.40376525  1
  Te  Te80  1  0.07236359  0.75558023  0.72548553  1
  Te  Te81  1  0.41819355  0.10216060  0.08258260  1
  Te  Te82  1  0.42485304  0.08047721  0.41912605  1
  Te  Te83  1  0.39697071  0.07786418  0.74509690  1
  Te  Te84  1  0.40558797  0.42973216  0.10179374  1
  Te  Te85  1  0.42231712  0.39901089  0.41590729  1
  Te  Te86  1  0.40226235  0.40314302  0.73785664  1
  Te  Te87  1  0.43837683  0.74770810  0.07033070  1
  Te  Te88  1  0.40450337  0.73207525  0.41315598  1
  Te  Te89  1  0.46782010  0.71080587  0.77909586  1
  Te  Te90  1  0.75515205  0.07822784  0.08655701  1
  Te  Te91  1  0.74950619  0.06862424  0.44040191  1
  Te  Te92  1  0.73778779  0.06904487  0.76822036  1
  Te  Te93  1  0.75118558  0.41122748  0.06759975  1
  Te  Te94  1  0.75893932  0.41341536  0.43325709  1
  Te  Te95  1  0.74648450  0.43040996  0.76981565  1
  Te  Te96  1  0.76159932  0.75092052  0.06676008  1
  Te  Te97  1  0.73039825  0.73818909  0.38868715  1
  Te  Te98  1  0.78527429  0.75112145  0.74518218  1
  Te  Te99  1  0.09153002  0.25498663  0.24281163  1
  Te  Te100  1  0.10538799  0.20833723  0.61847959  1
  Te  Te101  1  0.06342268  0.19522588  0.93374831  1
  Te  Te102  1  0.09971383  0.54113694  0.24262945  1
  Te  Te103  1  0.07013571  0.60414825  0.57394077  1
  Te  Te104  1  0.10566521  0.58918295  0.90862334  1
  Te  Te105  1  0.06928935  0.93098553  0.20744207  1
  Te  Te106  1  0.07037639  0.93667061  0.58920322  1
  Te  Te107  1  0.06045040  0.92696842  0.95356305  1
  Te  Te108  1  0.38832507  0.24399694  0.24986520  1
  Te  Te109  1  0.37522727  0.21200385  0.58104008  1
  Te  Te110  1  0.42947922  0.25694333  0.94567560  1
  Te  Te111  1  0.37784783  0.57952202  0.28854762  1
  Te  Te112  1  0.41340867  0.56907540  0.58455298  1
  Te  Te113  1  0.41633635  0.57263913  0.91562796  1
  Te  Te114  1  0.41276066  0.90876870  0.26867228  1
  Te  Te115  1  0.38898590  0.93240899  0.60474084  1
  Te  Te116  1  0.42690871  0.90088364  0.90982670  1
  Te  Te117  1  0.74240643  0.24583678  0.25676131  1
  Te  Te118  1  0.76417890  0.26526892  0.59434274  1
  Te  Te119  1  0.76353126  0.24429422  0.92469038  1
  Te  Te120  1  0.74619183  0.58672128  0.25057616  1
  Te  Te121  1  0.74943161  0.59769736  0.56228660  1
  Te  Te122  1  0.72628353  0.58303946  0.91176530  1
  Te  Te123  1  0.76901666  0.92543443  0.23548455  1
  Te  Te124  1  0.78300768  0.90312970  0.59881148  1
  Te  Te125  1  0.77769363  0.90471343  0.92911860  1
  Te  Te126  1  0.22321124  0.28873866  0.06390851  1
  Te  Te127  1  0.24970760  0.27645772  0.39476580  1
  Te  Te128  1  0.24884336  0.26261570  0.76212191  1
  Te  Te129  1  0.23676508  0.57599700  0.11637234  1
  Te  Te130  1  0.25581544  0.57539170  0.38740909  1
  Te  Te131  1  0.25092055  0.60446554  0.73330491  1
  Te  Te132  1  0.25550236  0.91601175  0.08412669  1
  Te  Te133  1  0.22958837  0.93100987  0.43263755  1
  Te  Te134  1  0.22412154  0.92171335  0.78877377  1
  Te  Te135  1  0.59834585  0.27099018  0.07034049  1
  Te  Te136  1  0.58493770  0.25615848  0.41705620  1
  Te  Te137  1  0.55754691  0.24625981  0.74629400  1
  Te  Te138  1  0.57980626  0.59278171  0.09850034  1
  Te  Te139  1  0.57986946  0.58015246  0.39834461  1
  Te  Te140  1  0.55765044  0.59930586  0.71917530  1
  Te  Te141  1  0.57753925  0.92984104  0.08251387  1
  Te  Te142  1  0.59807400  0.92385338  0.42152245  1
  Te  Te143  1  0.59130982  0.91318607  0.76064211  1
  Te  Te144  1  0.90649179  0.23492104  0.08058922  1
  Te  Te145  1  0.91473264  0.27477259  0.42881035  1
  Te  Te146  1  0.93388886  0.22757916  0.76373860  1
  Te  Te147  1  0.91719656  0.56170412  0.06498655  1
  Te  Te148  1  0.91733928  0.61158767  0.40737022  1
  Te  Te149  1  0.93359619  0.58115387  0.73087491  1
  Te  Te150  1  0.96608935  0.89878624  0.07691470  1
  Te  Te151  1  0.90757921  0.90528195  0.41719570  1
  Te  Te152  1  0.93626968  0.95454599  0.76049104  1
  Te  Te153  1  0.23423055  0.07456256  0.22978611  1
  Te  Te154  1  0.25866890  0.11456696  0.55937261  1
  Te  Te155  1  0.25325752  0.08770392  0.91590520  1
  Te  Te156  1  0.20711850  0.43059876  0.21600755  1
  Te  Te157  1  0.24874754  0.39482911  0.58545714  1
  Te  Te158  1  0.25865796  0.40173324  0.92169945  1
  Te  Te159  1  0.23628681  0.75435373  0.25579874  1
  Te  Te160  1  0.24789993  0.75057514  0.57158438  1
  Te  Te161  1  0.27960113  0.74672290  0.91819381  1
  Te  Te162  1  0.59675532  0.06889377  0.26342713  1
  Te  Te163  1  0.57406530  0.09582805  0.59990834  1
  Te  Te164  1  0.57347282  0.10072983  0.93169460  1
  Te  Te165  1  0.56010965  0.42683500  0.25007367  1
  Te  Te166  1  0.57268581  0.40747802  0.59110349  1
  Te  Te167  1  0.59516944  0.43105145  0.90982064  1
  Te  Te168  1  0.57321252  0.74804523  0.23549506  1
  Te  Te169  1  0.57899379  0.76953413  0.58056157  1
  Te  Te170  1  0.62615591  0.69896893  0.91296360  1
  Te  Te171  1  0.91280227  0.09856875  0.25902186  1
  Te  Te172  1  0.89704809  0.07864868  0.57144983  1
  Te  Te173  1  0.93751139  0.10861327  0.96958012  1
  Te  Te174  1  0.92673305  0.43746591  0.23534071  1
  Te  Te175  1  0.91914046  0.41572636  0.59213011  1
  Te  Te176  1  0.92611734  0.40835896  0.93442798  1
  Te  Te177  1  0.93428501  0.74608768  0.22658354  1
  Te  Te178  1  0.87252869  0.77399428  0.58601977  1
  Te  Te179  1  0.93237656  0.73837288  0.91268290  1
