# generated using pymatgen
data_In2Te3
_symmetry_space_group_name_H-M   'P 1'
_cell_length_a   18.91990247
_cell_length_b   18.90599855
_cell_length_c   18.89329363
_cell_angle_alpha   90.07116292
_cell_angle_beta   90.10789159
_cell_angle_gamma   90.09793459
_symmetry_Int_Tables_number   1
_chemical_formula_structural   In2Te3
_chemical_formula_sum   'In72 Te108'
_cell_volume   6758.09739851
_cell_formula_units_Z   36
loop_
 _symmetry_equiv_pos_site_id
 _symmetry_equiv_pos_as_xyz
  1  'x, y, z'
loop_
 _atom_site_type_symbol
 _atom_site_label
 _atom_site_symmetry_multiplicity
 _atom_site_fract_x
 _atom_site_fract_y
 _atom_site_fract_z
 _atom_site_occupancy
  In  In0  1  0.46743012  -0.00958700  0.85235357  1
  In  In1  1  0.35005712  0.68152444  0.33303456  1
  In  In2  1  0.01271589  0.50130262  0.81688019  1
  In  In3  1  0.81754899  -0.01491960  0.16321111  1
  In  In4  1  0.02990587  -0.01130370  0.00422075  1
  In  In5  1  0.79995090  0.70318370  0.83523197  1
  In  In6  1  0.35064586  0.69605267  0.68686464  1
  In  In7  1  0.86498745  0.17042014  -0.00404821  1
  In  In8  1  0.83733206  0.68929805  0.18577273  1
  In  In9  1  -0.02579430  0.47548005  0.49931638  1
  In  In10  1  0.64547458  0.00317140  0.67726343  1
  In  In11  1  0.14362979  0.48833829  0.34197294  1
  In  In12  1  0.15388552  0.47770679  0.66734930  1
  In  In13  1  0.50395897  0.69368925  0.50848173  1
  In  In14  1  0.00597451  0.12676763  0.82080779  1
  In  In15  1  0.52046555  0.16938502  0.67013680  1
  In  In16  1  0.01593670  0.48439803  0.17310596  1
  In  In17  1  0.32081035  0.30664993  0.69700282  1
  In  In18  1  0.32225266  0.49118422  0.82844788  1
  In  In19  1  -0.02223121  0.31687009  0.33908623  1
  In  In20  1  0.62801739  0.68319097  0.32421246  1
  In  In21  1  -0.05395232  0.67589389  0.64720266  1
  In  In22  1  0.50962122  0.53513555  0.67697541  1
  In  In23  1  0.00513887  0.29643390  0.65986614  1
  In  In24  1  0.82947381  0.35185525  0.83532634  1
  In  In25  1  0.50374282  0.15287330  0.34053060  1
  In  In26  1  0.16607659  0.67132461  0.52412364  1
  In  In27  1  0.33337372  0.14657578  0.15748630  1
  In  In28  1  -0.01638653  0.16219115  0.18210999  1
  In  In29  1  -0.02465970  0.84299530  0.81000170  1
  In  In30  1  0.18865234  0.84575705  -0.02359387  1
  In  In31  1  0.80249825  0.33657334  0.52274881  1
  In  In32  1  0.51148074  0.47470227  -0.02297967  1
  In  In33  1  0.65131811  0.84094009  0.48640743  1
  In  In34  1  0.81535677  0.52648802  -0.01628617  1
  In  In35  1  0.81179760  0.84722147  0.00747727  1
  In  In36  1  0.34148737  0.33783361  -0.02342201  1
  In  In37  1  0.66499267  0.51170163  0.49891259  1
  In  In38  1  0.51020858  0.69617734  0.86508663  1
  In  In39  1  0.00936111  0.64988383  -0.00621992  1
  In  In40  1  0.84089559  0.14771071  0.64660754  1
  In  In41  1  0.51686470  0.34529375  0.15610260  1
  In  In42  1  0.65871875  0.82196937  0.17028589  1
  In  In43  1  0.22103483  0.64883107  0.14487897  1
  In  In44  1  0.03359850  0.81459112  0.18337472  1
  In  In45  1  0.79663849  0.50753410  0.68522652  1
  In  In46  1  0.64835949  0.51489432  0.16862317  1
  In  In47  1  0.66851515  0.00667331  0.33965710  1
  In  In48  1  0.35528777  0.14248495  0.48143412  1
  In  In49  1  0.37196596  -0.03048029  0.65629648  1
  In  In50  1  0.19060146  -0.01543034  0.17659602  1
  In  In51  1  0.22149453  0.14662050  -0.09759399  1
  In  In52  1  0.16082113  0.01675795  0.49807261  1
  In  In53  1  0.82143924  0.18353091  0.34905758  1
  In  In54  1  0.03047996  0.33110300  0.00339173  1
  In  In55  1  0.31443681  0.48173396  0.51074745  1
  In  In56  1  0.17395497  0.15509233  0.30815224  1
  In  In57  1  0.48775629  -0.01544148  0.17933423  1
  In  In58  1  0.45239196  0.66696930  0.12384264  1
  In  In59  1  -0.02116702  -0.01842454  0.38302019  1
  In  In60  1  0.17343810  0.69756806  0.82308980  1
  In  In61  1  0.32471607  0.32813632  0.33372101  1
  In  In62  1  0.51364332  0.33029634  0.49570008  1
  In  In63  1  0.67513608  0.19077934  0.82294546  1
  In  In64  1  0.18834772  0.82893124  0.35611229  1
  In  In65  1  0.00359629  0.65326663  0.35457353  1
  In  In66  1  0.82320833  0.84948817  0.65563233  1
  In  In67  1  0.68066171  0.00620515  -0.02274088  1
  In  In68  1  0.20047166  0.33518816  0.15151203  1
  In  In69  1  0.16984449  0.87198464  0.67800160  1
  In  In70  1  0.49348096  0.19246697  -0.00383871  1
  In  In71  1  0.81090434  0.36327461  0.19057118  1
  Te  Te72  1  0.08977973  0.08356759  0.10784640  1
  Te  Te73  1  0.06875834  0.10308604  0.40543111  1
  Te  Te74  1  0.12038593  0.08900997  0.73440130  1
  Te  Te75  1  0.11785763  0.43722313  0.07135477  1
  Te  Te76  1  0.08058203  0.38789327  0.43474316  1
  Te  Te77  1  0.08600494  0.37961261  0.76219310  1
  Te  Te78  1  0.10636006  0.74458418  0.06799557  1
  Te  Te79  1  0.07937358  0.75926791  0.43626676  1
  Te  Te80  1  0.06357392  0.74740550  0.72814867  1
  Te  Te81  1  0.42766128  0.07439143  0.06566451  1
  Te  Te82  1  0.45840433  0.04391182  0.43452218  1
  Te  Te83  1  0.41691413  0.08916672  0.74523877  1
  Te  Te84  1  0.40882820  0.42146024  0.08286879  1
  Te  Te85  1  0.41478489  0.41853167  0.41590857  1
  Te  Te86  1  0.41254063  0.42462500  0.72774041  1
  Te  Te87  1  0.38163437  0.77236353  0.04549651  1
  Te  Te88  1  0.40714690  0.78013745  0.43220130  1
  Te  Te89  1  0.46133290  0.77609605  0.74506281  1
  Te  Te90  1  0.75986283  0.09472272  0.07822919  1
  Te  Te91  1  0.74812917  0.08868998  0.43291604  1
  Te  Te92  1  0.75394521  0.08121512  0.75336263  1
  Te  Te93  1  0.73934870  0.43197904  0.07362375  1
  Te  Te94  1  0.74386705  0.41730189  0.41713028  1
  Te  Te95  1  0.71270695  0.42418191  0.77670739  1
  Te  Te96  1  0.74110720  0.73346296  0.07625709  1
  Te  Te97  1  0.73255834  0.75221938  0.40046798  1
  Te  Te98  1  0.72214790  0.76466761  0.72618564  1
  Te  Te99  1  0.09175605  0.27159975  0.23973237  1
  Te  Te100  1  0.07004151  0.17161488  0.61111260  1
  Te  Te101  1  0.08107006  0.21157616  0.92766487  1
  Te  Te102  1  0.09583496  0.59953845  0.23913369  1
  Te  Te103  1  0.06569167  0.57466442  0.58707288  1
  Te  Te104  1  0.11010250  0.58262149  0.90312955  1
  Te  Te105  1  0.08716625  0.92654493  0.27385126  1
  Te  Te106  1  0.07255645  0.93047523  0.58367849  1
  Te  Te107  1  0.08980639  0.91668206  0.88438799  1
  Te  Te108  1  0.41358149  0.24478917  0.24237240  1
  Te  Te109  1  0.41263945  0.25029659  0.58065697  1
  Te  Te110  1  0.41113898  0.24535868  0.88625818  1
  Te  Te111  1  0.41661473  0.58797653  0.24403121  1
  Te  Te112  1  0.39927010  0.59180069  0.57698132  1
  Te  Te113  1  0.41254724  0.57886726  0.91136313  1
  Te  Te114  1  0.36764909  0.92881210  0.24240335  1
  Te  Te115  1  0.41824615  0.86078243  0.56683640  1
  Te  Te116  1  0.45780204  0.87367692  0.95364475  1
  Te  Te117  1  0.74479092  0.24310735  0.23942774  1
  Te  Te118  1  0.73550234  0.24453209  0.61475356  1
  Te  Te119  1  0.75822054  0.25875673  0.93337539  1
  Te  Te120  1  0.74225603  0.59797017  0.25766608  1
  Te  Te121  1  0.74762157  0.60073775  0.58467147  1
  Te  Te122  1  0.71631651  0.59930854  0.90219077  1
  Te  Te123  1  0.75145258  0.89624926  0.26490358  1
  Te  Te124  1  0.73868677  0.94356716  0.57014536  1
  Te  Te125  1  0.74933550  0.90784648  0.89020140  1
  Te  Te126  1  0.25205946  0.22684390  0.05810294  1
  Te  Te127  1  0.24562724  0.23243372  0.41978591  1
  Te  Te128  1  0.22627228  0.21150380  0.76385984  1
  Te  Te129  1  0.31088443  0.59359276  0.04615117  1
  Te  Te130  1  0.23848369  0.58706900  0.41919275  1
  Te  Te131  1  0.24209541  0.58693059  0.72849044  1
  Te  Te132  1  0.26883633  0.93558670  0.06319959  1
  Te  Te133  1  0.26071770  0.92781979  0.43599793  1
  Te  Te134  1  0.28108763  0.91616183  0.76813461  1
  Te  Te135  1  0.59858897  0.25970138  0.07149676  1
  Te  Te136  1  0.59518327  0.23894072  0.41656871  1
  Te  Te137  1  0.56428744  0.27608250  0.76813826  1
  Te  Te138  1  0.56966234  0.58711845  0.06200985  1
  Te  Te139  1  0.55853236  0.58553137  0.41756768  1
  Te  Te140  1  0.59160749  0.60016940  0.78144294  1
  Te  Te141  1  0.59926968  0.93102350  0.08381803  1
  Te  Te142  1  0.56293408  0.91497455  0.39072993  1
  Te  Te143  1  0.55541868  0.91249055  0.75466286  1
  Te  Te144  1  0.92289419  0.27721722  0.10012737  1
  Te  Te145  1  0.91061431  0.24821068  0.45468513  1
  Te  Te146  1  0.91074234  0.23984866  0.76971593  1
  Te  Te147  1  0.91813932  0.58326382  0.09731128  1
  Te  Te148  1  0.90144836  0.58306322  0.43202392  1
  Te  Te149  1  0.90108151  0.59542550  0.77458185  1
  Te  Te150  1  0.93470794  0.90324465  0.09695052  1
  Te  Te151  1  0.88164694  0.91298105  0.46703902  1
  Te  Te152  1  0.92333650  0.94584063  0.71564718  1
  Te  Te153  1  0.29126475  0.05741073  0.27984113  1
  Te  Te154  1  0.27722122  0.06890149  0.58791241  1
  Te  Te155  1  0.30343833  0.02471052  0.88202786  1
  Te  Te156  1  0.25562927  0.43666717  0.25162867  1
  Te  Te157  1  0.23387558  0.37761387  0.58670115  1
  Te  Te158  1  0.23220327  0.40235796  0.90216791  1
  Te  Te159  1  0.26134691  0.76165007  0.23770347  1
  Te  Te160  1  0.25367243  0.77296027  0.59551671  1
  Te  Te161  1  0.28341019  0.75340076  0.90664816  1
  Te  Te162  1  0.58846864  0.08514637  0.23403646  1
  Te  Te163  1  0.56214749  0.06789337  0.57092904  1
  Te  Te164  1  0.58167006  0.09104809  0.89822007  1
  Te  Te165  1  0.58512342  0.42057371  0.26092834  1
  Te  Te166  1  0.58089594  0.42731741  0.59382871  1
  Te  Te167  1  0.58464930  0.39401468  0.87861847  1
  Te  Te168  1  0.53657421  0.75582808  0.22756825  1
  Te  Te169  1  0.61062367  0.74701647  0.59636571  1
  Te  Te170  1  0.58628800  0.79744760  0.93976037  1
  Te  Te171  1  0.90521297  0.06172854  0.26401983  1
  Te  Te172  1  0.95425584  0.06128689  0.60431244  1
  Te  Te173  1  0.91695645  0.05016301  0.92052256  1
  Te  Te174  1  0.91290189  0.43883774  0.27527540  1
  Te  Te175  1  0.90978017  0.41683491  0.62465037  1
  Te  Te176  1  0.92940721  0.42908585  0.93136566  1
  Te  Te177  1  0.92693339  0.76691111  0.28035206  1
  Te  Te178  1  0.90445150  0.77881205  0.54746188  1
  Te  Te179  1  0.92140194  0.75582327  0.92974661  1
