# generated using pymatgen
data_In2Te3
_symmetry_space_group_name_H-M   'P 1'
_cell_length_a   18.95839314
_cell_length_b   18.99619011
_cell_length_c   19.00296045
_cell_angle_alpha   90.01064597
_cell_angle_beta   90.05218516
_cell_angle_gamma   90.04556356
_symmetry_Int_Tables_number   1
_chemical_formula_structural   In2Te3
_chemical_formula_sum   'In72 Te108'
_cell_volume   6843.66861258
_cell_formula_units_Z   36
loop_
 _symmetry_equiv_pos_site_id
 _symmetry_equiv_pos_as_xyz
  1  'x, y, z'
loop_
 _atom_site_type_symbol
 _atom_site_label
 _atom_site_symmetry_multiplicity
 _atom_site_fract_x
 _atom_site_fract_y
 _atom_site_fract_z
 _atom_site_occupancy
  In  In0  1  -0.00766701  0.65416486  0.00154569  1
  In  In1  1  0.82977251  0.49452069  0.67999725  1
  In  In2  1  0.35863429  0.15479278  0.82617757  1
  In  In3  1  0.79860259  0.29045043  0.18921174  1
  In  In4  1  -0.01014372  0.35060435  0.65938839  1
  In  In5  1  0.35722273  -0.02122260  0.00157670  1
  In  In6  1  0.81007135  0.68398136  0.82627595  1
  In  In7  1  0.49563571  0.67240281  0.17655569  1
  In  In8  1  0.83492878  0.31549000  0.49226185  1
  In  In9  1  0.52539938  0.31825905  0.17023305  1
  In  In10  1  0.49829057  0.34135486  0.49364272  1
  In  In11  1  0.03254433  0.50109623  0.83001775  1
  In  In12  1  0.48174360  0.67035083  0.50274769  1
  In  In13  1  0.82737651  0.15056094  0.65264325  1
  In  In14  1  0.16027071  0.35508312  0.50032834  1
  In  In15  1  0.34912133  0.49123955  0.16024142  1
  In  In16  1  0.62966723  0.80158560  -0.02236194  1
  In  In17  1  0.68230898  0.02317579  0.33809863  1
  In  In18  1  0.32649991  0.65776757  0.33551352  1
  In  In19  1  0.33326568  0.30832860  -0.02826047  1
  In  In20  1  0.15210302  0.83197830  0.33265652  1
  In  In21  1  0.15333884  0.16146097  -0.01306858  1
  In  In22  1  0.65577780  0.83934545  0.48877004  1
  In  In23  1  -0.00645672  0.15599709  0.84740866  1
  In  In24  1  0.19615441  0.49437649  0.00165426  1
  In  In25  1  -0.00270660  0.15963352  0.48207534  1
  In  In26  1  0.36145448  0.68190865  -0.01607182  1
  In  In27  1  0.35324752  0.81830729  0.82243769  1
  In  In28  1  0.65732418  0.16921993  0.79776636  1
  In  In29  1  0.00495751  0.83237213  0.51071571  1
  In  In30  1  0.65149577  0.66237788  0.34284219  1
  In  In31  1  -0.00602490  -0.00251497  0.00613558  1
  In  In32  1  -0.00821438  0.50544038  0.17491711  1
  In  In33  1  0.52334293  0.86333945  0.32448515  1
  In  In34  1  0.66108665  0.50763349  0.83760969  1
  In  In35  1  0.83789037  0.49181959  0.01613028  1
  In  In36  1  0.68534682  0.50759040  0.50786569  1
  In  In37  1  0.50843198  0.15146532  0.00513861  1
  In  In38  1  0.18454189  0.16201275  0.66567924  1
  In  In39  1  0.49396482  0.82594391  0.66426801  1
  In  In40  1  0.17752433  0.00371859  0.16481332  1
  In  In41  1  -0.01530380  0.31400263  0.02396127  1
  In  In42  1  0.34876851  0.33848200  0.69154162  1
  In  In43  1  0.83503587  -0.01277201  0.50332311  1
  In  In44  1  0.66320369  0.17045692  0.49327013  1
  In  In45  1  0.50301536  0.50940941  0.66666033  1
  In  In46  1  0.81244912  0.81810196  -0.00319727  1
  In  In47  1  0.17484948  0.83357073  0.66617752  1
  In  In48  1  0.80561858  0.03508076  0.18236057  1
  In  In49  1  0.64785149  0.49376993  0.14945017  1
  In  In50  1  0.33098798  0.84777358  0.18000628  1
  In  In51  1  0.00046529  0.68446550  0.31972894  1
  In  In52  1  0.32920725  0.81918584  0.51612962  1
  In  In53  1  0.16689089  0.50100442  0.33941783  1
  In  In54  1  0.49782356  0.01838071  0.81450282  1
  In  In55  1  0.84301948  0.66520136  0.50524725  1
  In  In56  1  0.31986015  0.18642170  0.49766930  1
  In  In57  1  0.48746472  0.49713511  -0.03233985  1
  In  In58  1  0.19153567  0.51945260  0.67887051  1
  In  In59  1  0.30545077  0.18570543  0.18241739  1
  In  In60  1  -0.00708676  0.85332257  0.79582985  1
  In  In61  1  0.82050676  0.32763868  0.84484191  1
  In  In62  1  0.67423842  0.00724567  0.65383867  1
  In  In63  1  -0.02902434  0.81634751  0.14647231  1
  In  In64  1  0.83579107  0.50333614  0.32375079  1
  In  In65  1  0.33068301  0.34059377  0.34660534  1
  In  In66  1  0.34192874  0.01036846  0.36048970  1
  In  In67  1  -0.00849947  0.00461947  0.33802605  1
  In  In68  1  0.11235680  0.32307315  0.21011680  1
  In  In69  1  0.17274500  -0.01837818  0.82612386  1
  In  In70  1  0.01986209  0.66488806  0.66177390  1
  In  In71  1  0.54750499  0.02381139  0.15231014  1
  Te  Te72  1  0.07498233  0.09159479  0.09469667  1
  Te  Te73  1  0.09044592  0.06003531  0.42949290  1
  Te  Te74  1  0.08601449  0.08150865  0.75339200  1
  Te  Te75  1  0.07756639  0.42353960  0.07904600  1
  Te  Te76  1  0.06852665  0.41012454  0.39959610  1
  Te  Te77  1  0.10395354  0.40455052  0.74188250  1
  Te  Te78  1  0.07752595  0.74137098  0.08262562  1
  Te  Te79  1  0.09076712  0.73566460  0.43183538  1
  Te  Te80  1  0.09607682  0.74542830  0.76307996  1
  Te  Te81  1  0.39311079  0.09788493  0.09000756  1
  Te  Te82  1  0.42254638  0.11590422  0.41804605  1
  Te  Te83  1  0.40607782  0.07426041  0.71451185  1
  Te  Te84  1  0.42127088  0.39165368  0.07206851  1
  Te  Te85  1  0.40282562  0.43454818  0.43101723  1
  Te  Te86  1  0.46538131  0.39967515  0.76298489  1
  Te  Te87  1  0.42729317  0.77488090  0.08927899  1
  Te  Te88  1  0.42733409  0.76449230  0.38935816  1
  Te  Te89  1  0.39725318  0.72473305  0.71574712  1
  Te  Te90  1  0.73477754  0.13946536  0.10396154  1
  Te  Te91  1  0.78001654  0.10180134  0.42301695  1
  Te  Te92  1  0.77847243  0.05653022  0.76108466  1
  Te  Te93  1  0.74624522  0.39685022  0.08598952  1
  Te  Te94  1  0.75047517  0.41293980  0.40977069  1
  Te  Te95  1  0.73200731  0.40339059  0.74841327  1
  Te  Te96  1  0.72224712  0.72454643  0.06283360  1
  Te  Te97  1  0.75326559  0.74825439  0.41529596  1
  Te  Te98  1  0.70579837  0.77964671  0.78805356  1
  Te  Te99  1  0.03130712  0.21452700  0.26148228  1
  Te  Te100  1  0.07885503  0.24981190  0.58572646  1
  Te  Te101  1  0.07665756  0.26741195  0.91145402  1
  Te  Te102  1  0.09431251  0.59258173  0.24185732  1
  Te  Te103  1  0.08015992  0.55492080  0.58986010  1
  Te  Te104  1  0.10878283  0.59109450  0.92221196  1
  Te  Te105  1  0.07265245  0.91398121  0.23213013  1
  Te  Te106  1  0.07826483  0.92115282  0.59976994  1
  Te  Te107  1  0.07528385  0.90884958  0.91567573  1
  Te  Te108  1  0.41677131  0.25195316  0.25899586  1
  Te  Te109  1  0.42169728  0.25318395  0.58997564  1
  Te  Te110  1  0.45801965  0.25267028  0.90039016  1
  Te  Te111  1  0.42749378  0.56880479  0.26309901  1
  Te  Te112  1  0.40105897  0.59831209  0.60450359  1
  Te  Te113  1  0.40727826  0.58517640  0.87707779  1
  Te  Te114  1  0.42876732  0.94847430  0.23917460  1
  Te  Te115  1  0.43306878  0.91077135  0.56079926  1
  Te  Te116  1  0.44596737  0.90633550  0.90734012  1
  Te  Te117  1  0.69870484  0.23057075  0.28230441  1
  Te  Te118  1  0.74026897  0.25828215  0.59553949  1
  Te  Te119  1  0.73491770  0.22859014  0.90741540  1
  Te  Te120  1  0.73329378  0.58077658  0.24530359  1
  Te  Te121  1  0.75025919  0.60168783  0.60773131  1
  Te  Te122  1  0.75592568  0.58601277  0.92827928  1
  Te  Te123  1  0.74375655  0.92239460  0.25263218  1
  Te  Te124  1  0.75443615  0.89461976  0.59027854  1
  Te  Te125  1  0.71958453  0.90959388  0.92578606  1
  Te  Te126  1  0.23091623  0.26109875  0.07385056  1
  Te  Te127  1  0.22072232  0.25497986  0.40406901  1
  Te  Te128  1  0.25342885  0.24778228  0.76929473  1
  Te  Te129  1  0.27538879  0.59581061  0.08144076  1
  Te  Te130  1  0.25600742  0.57302197  0.43016784  1
  Te  Te131  1  0.28003421  0.54610643  0.79362724  1
  Te  Te132  1  0.24245189  0.90607534  0.06918554  1
  Te  Te133  1  0.24708173  0.90812005  0.42190683  1
  Te  Te134  1  0.27722114  0.92126723  0.73813292  1
  Te  Te135  1  0.61045605  0.23275664  0.08108056  1
  Te  Te136  1  0.59598775  0.26965916  0.40389609  1
  Te  Te137  1  0.54546213  0.25908514  0.76668784  1
  Te  Te138  1  0.56034292  0.58830317  0.06875645  1
  Te  Te139  1  0.57081199  0.57001263  0.42968830  1
  Te  Te140  1  0.58731413  0.60352107  0.75028923  1
  Te  Te141  1  0.61415674  0.92159605  0.07577591  1
  Te  Te142  1  0.58024271  0.95588519  0.43017061  1
  Te  Te143  1  0.58751714  0.91871296  0.74246827  1
  Te  Te144  1  0.88156730  0.22443597  0.07988550  1
  Te  Te145  1  0.93641020  0.26453015  0.39580498  1
  Te  Te146  1  0.91344023  0.24903406  0.74284769  1
  Te  Te147  1  0.89603085  0.59906464  0.10518558  1
  Te  Te148  1  0.92884859  0.58443844  0.41087326  1
  Te  Te149  1  0.92117319  0.58304188  0.76405472  1
  Te  Te150  1  0.88278196  0.92997891  0.08832601  1
  Te  Te151  1  0.91223661  0.89695527  0.40932036  1
  Te  Te152  1  0.88743773  0.94443863  0.76320979  1
  Te  Te153  1  0.23713450  0.08742992  0.27419609  1
  Te  Te154  1  0.25409874  0.07735705  0.57138383  1
  Te  Te155  1  0.25848981  0.07451454  0.92076036  1
  Te  Te156  1  0.24236647  0.40999198  0.23140892  1
  Te  Te157  1  0.26497134  0.41615389  0.59068371  1
  Te  Te158  1  0.26916994  0.41937283  0.89513564  1
  Te  Te159  1  0.24135545  0.74550630  0.24495119  1
  Te  Te160  1  0.23947989  0.72857640  0.58603709  1
  Te  Te161  1  0.25824405  0.76158053  0.91798956  1
  Te  Te162  1  0.59302352  0.11684111  0.25972169  1
  Te  Te163  1  0.58294649  0.10528192  0.59674225  1
  Te  Te164  1  0.59868273  0.07766045  0.91015332  1
  Te  Te165  1  0.57598053  0.42411670  0.25620189  1
  Te  Te166  1  0.59398556  0.41675440  0.58671958  1
  Te  Te167  1  0.60346231  0.41518748  0.93560460  1
  Te  Te168  1  0.59935068  0.76295011  0.24100106  1
  Te  Te169  1  0.59065723  0.73975482  0.58093963  1
  Te  Te170  1  0.58636612  0.72056203  0.85883305  1
  Te  Te171  1  0.91764092  0.10578310  0.25554330  1
  Te  Te172  1  0.93314106  0.06694279  0.58680547  1
  Te  Te173  1  0.90090592  0.08501261  0.93399535  1
  Te  Te174  1  0.90099163  0.40114004  0.23366643  1
  Te  Te175  1  0.90548054  0.43201871  0.56524705  1
  Te  Te176  1  0.92365024  0.42003883  0.91235335  1
  Te  Te177  1  0.89104485  0.74763668  0.24708238  1
  Te  Te178  1  0.91247070  0.75518300  0.60570430  1
  Te  Te179  1  0.92230740  0.75334693  0.90515345  1
