# generated using pymatgen
data_In2Te3
_symmetry_space_group_name_H-M   'P 1'
_cell_length_a   18.95998217
_cell_length_b   18.93151879
_cell_length_c   18.95761753
_cell_angle_alpha   89.91155521
_cell_angle_beta   90.00320813
_cell_angle_gamma   90.07524375
_symmetry_Int_Tables_number   1
_chemical_formula_structural   In2Te3
_chemical_formula_sum   'In72 Te108'
_cell_volume   6804.65711184
_cell_formula_units_Z   36
loop_
 _symmetry_equiv_pos_site_id
 _symmetry_equiv_pos_as_xyz
  1  'x, y, z'
loop_
 _atom_site_type_symbol
 _atom_site_label
 _atom_site_symmetry_multiplicity
 _atom_site_fract_x
 _atom_site_fract_y
 _atom_site_fract_z
 _atom_site_occupancy
  In  In0  1  0.83938652  0.83383655  0.68360498  1
  In  In1  1  -0.01071115  0.32262405  0.68959303  1
  In  In2  1  0.15243785  0.33225272  0.20006879  1
  In  In3  1  0.36297844  0.68140688  0.01899870  1
  In  In4  1  0.52300260  0.31822876  0.50367104  1
  In  In5  1  0.33488545  0.32383801  0.32720673  1
  In  In6  1  0.50601367  -0.01173591  0.83149999  1
  In  In7  1  -0.00797311  0.01369879  0.68225033  1
  In  In8  1  0.68041161  0.67973602  0.33166096  1
  In  In9  1  0.33955146  0.32574900  0.00674890  1
  In  In10  1  0.68087456  0.49228554  0.82677016  1
  In  In11  1  0.83476772  0.51817363  0.64847700  1
  In  In12  1  0.15102001  -0.03514784  0.88230928  1
  In  In13  1  0.20086081  0.76008091  0.18440247  1
  In  In14  1  0.15370160  0.15438548  0.01112942  1
  In  In15  1  0.16088359  0.33896919  0.82622145  1
  In  In16  1  0.30858098  0.71869240  0.63914057  1
  In  In17  1  -0.00232988  0.83099688  0.50263132  1
  In  In18  1  0.48895078  0.82689610  0.30741456  1
  In  In19  1  0.50879415  0.67276233  0.48140107  1
  In  In20  1  0.32985098  -0.02990665  0.66058049  1
  In  In21  1  0.15086416  0.17343288  0.33097580  1
  In  In22  1  0.68855752  0.16220352  0.83540279  1
  In  In23  1  -0.01076079  0.31353966  0.02594993  1
  In  In24  1  0.51591356  0.73433514  0.88467869  1
  In  In25  1  0.16871426  0.54082415  -0.00153774  1
  In  In26  1  0.33629512  0.85040702  0.85070382  1
  In  In27  1  0.34878149  0.17268319  0.48231010  1
  In  In28  1  0.51562105  0.13640499  0.68206748  1
  In  In29  1  0.82465210  0.32215360  0.50047585  1
  In  In30  1  -0.01285515  0.50774841  0.14861875  1
  In  In31  1  0.49550995  0.32345911  0.15897452  1
  In  In32  1  0.01442327  0.67615013  0.65985159  1
  In  In33  1  0.83887821  -0.02728192  0.48143439  1
  In  In34  1  0.84392194  0.47981274  0.34886939  1
  In  In35  1  0.03248814  0.68762069  0.32476650  1
  In  In36  1  0.83729410  0.01462172  0.86386556  1
  In  In37  1  0.01062233  0.15503496  0.49409560  1
  In  In38  1  0.16490150  0.01274809  0.50182253  1
  In  In39  1  0.00570816  0.84638076  0.14352309  1
  In  In40  1  0.17239247  -0.02650655  0.13311946  1
  In  In41  1  0.46773124  0.53666840  0.30710764  1
  In  In42  1  0.84750944  0.29979161  0.84851002  1
  In  In43  1  0.68534304  0.64163633  0.66353650  1
  In  In44  1  0.34135263  0.12830682  0.13653219  1
  In  In45  1  0.66297488  0.33584267  0.66276754  1
  In  In46  1  0.16879742  0.68822076  0.81288724  1
  In  In47  1  0.50673628  0.49744374  0.00955321  1
  In  In48  1  0.01178482  0.51976193  0.49039427  1
  In  In49  1  0.66596253  0.00167807  0.32124776  1
  In  In50  1  0.48450292  0.32406099  0.87063501  1
  In  In51  1  0.33310871  0.00895739  0.33605882  1
  In  In52  1  0.16900345  0.52299135  0.33963757  1
  In  In53  1  0.83258644  0.28983772  0.16782444  1
  In  In54  1  0.67661284  0.81980094  0.49500811  1
  In  In55  1  0.66133114  0.15669112  0.50310124  1
  In  In56  1  0.48484547  0.84862146  0.66753494  1
  In  In57  1  0.66213186  0.85489043  0.16549349  1
  In  In58  1  0.65476328  0.16261214  0.16092261  1
  In  In59  1  0.01370887  0.30467456  0.32888468  1
  In  In60  1  0.48990756  0.48282159  0.65648718  1
  In  In61  1  0.84944882  0.00318366  0.18202483  1
  In  In62  1  0.85255478  0.70197247  0.86706048  1
  In  In63  1  0.65635909  0.51021219  0.16531757  1
  In  In64  1  0.82164655  0.68885189  0.14739199  1
  In  In65  1  0.31432677  0.33149643  0.66109802  1
  In  In66  1  0.15066383  0.16241846  0.68357460  1
  In  In67  1  0.33944302  0.49618444  0.50292565  1
  In  In68  1  0.31922534  0.52922263  0.82791512  1
  In  In69  1  -0.00376961  0.49350077  0.83060767  1
  In  In70  1  0.64904690  -0.01905765  -0.00113849  1
  In  In71  1  0.81035420  0.50795828  0.01459061  1
  Te  Te72  1  0.06529878  0.04395717  0.05711672  1
  Te  Te73  1  0.06931975  0.05987721  0.39186983  1
  Te  Te74  1  0.08712741  0.07180565  0.78547056  1
  Te  Te75  1  0.09059686  0.41997843  0.07502691  1
  Te  Te76  1  0.08464905  0.41489784  0.40755495  1
  Te  Te77  1  0.09082048  0.43243340  0.73066061  1
  Te  Te78  1  0.09757832  0.74965507  0.07625962  1
  Te  Te79  1  0.10728700  0.74432714  0.44249539  1
  Te  Te80  1  0.06893511  0.77583913  0.75168510  1
  Te  Te81  1  0.43512255  0.03771946  0.06870578  1
  Te  Te82  1  0.43647339  0.07890155  0.41527705  1
  Te  Te83  1  0.40063956  0.06832593  0.75328093  1
  Te  Te84  1  0.40341891  0.42947138  0.09623486  1
  Te  Te85  1  0.42758531  0.40881111  0.41529854  1
  Te  Te86  1  0.40490578  0.41357794  0.76403258  1
  Te  Te87  1  0.41484340  0.79517430  0.09731171  1
  Te  Te88  1  0.41276234  0.76378939  0.41971215  1
  Te  Te89  1  0.40747374  0.75059758  0.75663647  1
  Te  Te90  1  0.74298041  0.06244298  0.08905375  1
  Te  Te91  1  0.75799278  0.08061614  0.41069151  1
  Te  Te92  1  0.75998278  0.06967830  0.75041466  1
  Te  Te93  1  0.74788916  0.40473010  0.10326916  1
  Te  Te94  1  0.73962101  0.39771481  0.40877982  1
  Te  Te95  1  0.77478728  0.40570953  0.74383353  1
  Te  Te96  1  0.72753192  0.76598358  0.06515904  1
  Te  Te97  1  0.77638360  0.75818354  0.40785408  1
  Te  Te98  1  0.74792324  0.74123471  0.76292972  1
  Te  Te99  1  0.04985210  0.21002219  0.21161536  1
  Te  Te100  1  0.07942813  0.25445368  0.58604884  1
  Te  Te101  1  0.07759490  0.25301724  0.91764941  1
  Te  Te102  1  0.09101546  0.58754827  0.22511644  1
  Te  Te103  1  0.10187712  0.59170565  0.57907602  1
  Te  Te104  1  0.07228130  0.60383282  0.90229027  1
  Te  Te105  1  0.12052195  0.88096610  0.24154718  1
  Te  Te106  1  0.07717123  0.92757675  0.59192112  1
  Te  Te107  1  0.06786094  0.86727800  0.96048277  1
  Te  Te108  1  0.40632861  0.22700320  0.23761779  1
  Te  Te109  1  0.42771376  0.24758669  0.59924538  1
  Te  Te110  1  0.39962791  0.21964118  0.92719999  1
  Te  Te111  1  0.39666370  0.63059326  0.21700811  1
  Te  Te112  1  0.41782834  0.59829343  0.58876331  1
  Te  Te113  1  0.43213064  0.59040486  0.90731201  1
  Te  Te114  1  0.37994720  0.90412014  0.23840731  1
  Te  Te115  1  0.40887649  0.90525722  0.55579405  1
  Te  Te116  1  0.41587264  0.93775631  0.94142170  1
  Te  Te117  1  0.73043555  0.24289000  0.25946408  1
  Te  Te118  1  0.75349131  0.23356025  0.60096909  1
  Te  Te119  1  0.73579643  0.26134023  0.93305283  1
  Te  Te120  1  0.77081621  0.57538857  0.24489724  1
  Te  Te121  1  0.75289794  0.58374549  0.54740298  1
  Te  Te122  1  0.74314405  0.59908696  0.91428587  1
  Te  Te123  1  0.76557903  0.90328688  0.26343155  1
  Te  Te124  1  0.74993045  0.91337248  0.59005735  1
  Te  Te125  1  0.72726043  0.91380183  0.88885087  1
  Te  Te126  1  0.24257093  0.25400882  0.10070032  1
  Te  Te127  1  0.23764107  0.25767852  0.42369839  1
  Te  Te128  1  0.25626100  0.23868847  0.76626557  1
  Te  Te129  1  0.27082643  0.58970892  0.09272853  1
  Te  Te130  1  0.27059614  0.59847411  0.41780355  1
  Te  Te131  1  0.24467965  0.59723321  0.71740766  1
  Te  Te132  1  0.28054269  0.86614818  0.10152999  1
  Te  Te133  1  0.25250927  0.92165662  0.42623307  1
  Te  Te134  1  0.23240458  0.91004481  0.75875957  1
  Te  Te135  1  0.57501881  0.24457212  0.06676733  1
  Te  Te136  1  0.58280125  0.23223126  0.40315894  1
  Te  Te137  1  0.57208894  0.26112231  0.75703144  1
  Te  Te138  1  0.59317244  0.60005799  0.06795494  1
  Te  Te139  1  0.58653866  0.57663472  0.39494492  1
  Te  Te140  1  0.57724055  0.56906141  0.74763800  1
  Te  Te141  1  0.55764650  0.96042201  0.12823075  1
  Te  Te142  1  0.58701029  0.89963741  0.40286497  1
  Te  Te143  1  0.59259500  0.91305448  0.74076639  1
  Te  Te144  1  0.88676456  0.20646827  0.05329300  1
  Te  Te145  1  0.90921975  0.23259225  0.41076897  1
  Te  Te146  1  0.92399558  0.21252283  0.75997475  1
  Te  Te147  1  0.91832352  0.60646300  0.05803353  1
  Te  Te148  1  0.92582229  0.59850080  0.39635397  1
  Te  Te149  1  0.90492498  0.59350228  0.76055185  1
  Te  Te150  1  0.88583313  0.90408556  0.07283530  1
  Te  Te151  1  0.93980404  0.91217260  0.39458787  1
  Te  Te152  1  0.92557289  0.91588523  0.77588311  1
  Te  Te153  1  0.23137648  0.08310391  0.23474328  1
  Te  Te154  1  0.25635435  0.10008934  0.59021653  1
  Te  Te155  1  0.24478646  0.06191525  0.94179534  1
  Te  Te156  1  0.25675168  0.43027256  0.25300029  1
  Te  Te157  1  0.23772187  0.41602813  0.57168524  1
  Te  Te158  1  0.24690921  0.42777574  0.91877667  1
  Te  Te159  1  0.29099074  0.70775243  0.29408381  1
  Te  Te160  1  0.22015341  0.78457898  0.54439785  1
  Te  Te161  1  0.25791136  0.74227924  0.92109002  1
  Te  Te162  1  0.56255406  0.07502204  0.24314951  1
  Te  Te163  1  0.57729562  0.05982127  0.57632014  1
  Te  Te164  1  0.58205694  0.09091139  0.91481693  1
  Te  Te165  1  0.56104632  0.42725306  0.24906693  1
  Te  Te166  1  0.60103235  0.43403060  0.56609713  1
  Te  Te167  1  0.59780968  0.41028874  0.92496688  1
  Te  Te168  1  0.58596878  0.73825544  0.23065603  1
  Te  Te169  1  0.58500060  0.74116699  0.59650299  1
  Te  Te170  1  0.60227627  0.83595347  0.95252521  1
  Te  Te171  1  0.93139471  0.11116155  0.23655035  1
  Te  Te172  1  0.90908207  0.07662701  0.57343009  1
  Te  Te173  1  0.92327083  0.10165004  0.94474111  1
  Te  Te174  1  0.92603537  0.40352591  0.24143705  1
  Te  Te175  1  0.92513018  0.41774544  0.57670676  1
  Te  Te176  1  0.91295040  0.41987954  0.93411858  1
  Te  Te177  1  0.92635995  0.75356851  0.23632991  1
  Te  Te178  1  0.90239900  0.74068788  0.58154184  1
  Te  Te179  1  0.92324609  0.80554889  0.94903441  1
