# generated using pymatgen
data_In2Te3
_symmetry_space_group_name_H-M   'P 1'
_cell_length_a   18.86764491
_cell_length_b   18.86818416
_cell_length_c   18.86592330
_cell_angle_alpha   89.95078000
_cell_angle_beta   90.08576328
_cell_angle_gamma   90.01444476
_symmetry_Int_Tables_number   1
_chemical_formula_structural   In2Te3
_chemical_formula_sum   'In72 Te108'
_cell_volume   6716.22450380
_cell_formula_units_Z   36
loop_
 _symmetry_equiv_pos_site_id
 _symmetry_equiv_pos_as_xyz
  1  'x, y, z'
loop_
 _atom_site_type_symbol
 _atom_site_label
 _atom_site_symmetry_multiplicity
 _atom_site_fract_x
 _atom_site_fract_y
 _atom_site_fract_z
 _atom_site_occupancy
  In  In0  1  0.33125663  0.51239596  0.18318646  1
  In  In1  1  0.51484297  0.50175354  -0.00603140  1
  In  In2  1  0.64235419  0.51149242  0.17740209  1
  In  In3  1  0.65436528  0.32661706  0.64596110  1
  In  In4  1  0.63016716  0.81979919  0.27451402  1
  In  In5  1  0.19314430  0.16202369  0.00071554  1
  In  In6  1  0.48776751  0.34470622  0.50877946  1
  In  In7  1  0.16188155  0.65778925  0.80942251  1
  In  In8  1  -0.00400453  -0.00603204  0.31292015  1
  In  In9  1  0.01308135  0.67869091  0.34538554  1
  In  In10  1  0.51575943  -0.00533350  0.47476944  1
  In  In11  1  0.85978150  0.17860943  0.36499593  1
  In  In12  1  0.83728073  0.67211064  0.84423186  1
  In  In13  1  0.85681216  0.49800741  0.34402158  1
  In  In14  1  0.66746377  0.36788129  0.33591669  1
  In  In15  1  -0.00620534  -0.02638460  -0.01517576  1
  In  In16  1  0.32572804  -0.01045749  0.66181385  1
  In  In17  1  0.66071752  0.16729078  0.51290069  1
  In  In18  1  0.67444211  -0.00826286  0.63894469  1
  In  In19  1  0.66467936  -0.00827576  -0.02593731  1
  In  In20  1  0.51619185  0.65396188  0.47659898  1
  In  In21  1  -0.01667024  0.50160904  0.15309101  1
  In  In22  1  0.31779632  0.17322725  0.83478680  1
  In  In23  1  0.02346501  0.14299088  0.82584500  1
  In  In24  1  0.83140654  0.50788531  0.65022125  1
  In  In25  1  0.48321394  0.82573741  0.03496936  1
  In  In26  1  0.25220184  0.66112586  0.62106350  1
  In  In27  1  0.01316219  0.83675506  0.49391831  1
  In  In28  1  0.84231640  -0.00673874  0.50382244  1
  In  In29  1  0.02253287  0.17074387  0.19631790  1
  In  In30  1  0.18879786  0.17042341  0.35241272  1
  In  In31  1  0.34524656  0.32831622  0.35017857  1
  In  In32  1  0.17189576  0.00186212  0.50458944  1
  In  In33  1  0.32347987  0.01786736  0.00883872  1
  In  In34  1  0.65750228  0.16167594  0.16095807  1
  In  In35  1  0.34299377  0.67597916  0.34543387  1
  In  In36  1  0.02155194  0.31948882  0.64248540  1
  In  In37  1  0.66424251  0.34349931  0.01898077  1
  In  In38  1  0.33301738  -0.01336222  0.33874808  1
  In  In39  1  0.82403249  0.16469663  0.66281694  1
  In  In40  1  -0.00632588  0.34716522  0.01030479  1
  In  In41  1  0.15358525  0.32892636  0.81309929  1
  In  In42  1  0.50476072  0.01674653  0.85023555  1
  In  In43  1  0.48602119  0.49153099  0.66461562  1
  In  In44  1  0.82502686  0.15647033  0.01338876  1
  In  In45  1  0.48279632  -0.00030480  0.16581224  1
  In  In46  1  0.00462077  0.83619072  0.17426936  1
  In  In47  1  0.82488599  0.65564260  0.16427399  1
  In  In48  1  0.14216058  0.47154887  0.36294667  1
  In  In49  1  -0.03063356  -0.00612274  0.68955566  1
  In  In50  1  0.17261276  0.67609323  0.17357587  1
  In  In51  1  0.66067957  0.66274417  0.65804304  1
  In  In52  1  0.64968322  0.17036141  0.80750195  1
  In  In53  1  0.03592381  0.66390064  0.63009945  1
  In  In54  1  0.15516044  0.48789053  -0.00885968  1
  In  In55  1  0.48709476  0.16671996  0.32592119  1
  In  In56  1  0.32063815  0.83298410  0.83009193  1
  In  In57  1  0.82557950  0.68945392  0.46985244  1
  In  In58  1  0.15660081  0.84870452  -0.00200557  1
  In  In59  1  0.16182706  0.00090033  0.17032548  1
  In  In60  1  0.49675026  0.66263208  0.83986738  1
  In  In61  1  0.69259572  0.66193728  0.00491531  1
  In  In62  1  0.67728976  0.81432585  0.82541800  1
  In  In63  1  0.32586794  0.32881418  0.00919889  1
  In  In64  1  0.80873916  0.34552586  0.17927643  1
  In  In65  1  -0.01161134  0.48780507  0.82508690  1
  In  In66  1  0.83386687  0.33821597  0.82976614  1
  In  In67  1  0.84882618  0.80964883  0.01300163  1
  In  In68  1  0.50650469  0.83126134  0.65536539  1
  In  In69  1  0.32777002  0.34178299  0.65781475  1
  In  In70  1  0.36595001  0.68216794  0.01603181  1
  In  In71  1  0.34397993  0.50059403  0.49727674  1
  Te  Te72  1  0.07319442  0.08096431  0.07551005  1
  Te  Te73  1  0.07878995  0.07699397  0.40764851  1
  Te  Te74  1  0.08642652  0.08511274  0.70811767  1
  Te  Te75  1  0.09631401  0.40664839  0.10450606  1
  Te  Te76  1  0.04917103  0.38911779  0.44831103  1
  Te  Te77  1  0.08765565  0.43284886  0.72541532  1
  Te  Te78  1  0.07565973  0.74489914  0.07702727  1
  Te  Te79  1  0.11566934  0.74493254  0.43283916  1
  Te  Te80  1  0.08546178  0.75739540  0.73257239  1
  Te  Te81  1  0.42130516  0.10105619  0.07773756  1
  Te  Te82  1  0.40502683  0.08852141  0.42707318  1
  Te  Te83  1  0.41256805  0.08319910  0.75348418  1
  Te  Te84  1  0.41315950  0.43010852  0.08475782  1
  Te  Te85  1  0.44057272  0.43810657  0.39893719  1
  Te  Te86  1  0.41772581  0.40210591  0.75839490  1
  Te  Te87  1  0.40278558  0.75778364  0.13844677  1
  Te  Te88  1  0.42987694  0.76447134  0.42700364  1
  Te  Te89  1  0.41487220  0.74801519  0.74411829  1
  Te  Te90  1  0.74429803  0.05634028  0.09165370  1
  Te  Te91  1  0.75130673  0.08615233  0.42238599  1
  Te  Te92  1  0.75148956  0.06779321  0.75543606  1
  Te  Te93  1  0.75051245  0.44901109  0.08662952  1
  Te  Te94  1  0.77465378  0.40698047  0.42706617  1
  Te  Te95  1  0.74472839  0.41509651  0.73612820  1
  Te  Te96  1  0.73563315  0.76664019  0.10701582  1
  Te  Te97  1  0.74312056  0.77233466  0.37342678  1
  Te  Te98  1  0.76814158  0.74588530  0.72710238  1
  Te  Te99  1  0.10543505  0.26340511  0.27109503  1
  Te  Te100  1  0.10382971  0.26093755  0.53099150  1
  Te  Te101  1  0.07800427  0.25328139  0.92534425  1
  Te  Te102  1  0.08139180  0.57570897  0.25206012  1
  Te  Te103  1  0.13906067  0.57171592  0.57467744  1
  Te  Te104  1  0.07148953  0.58408774  0.90989058  1
  Te  Te105  1  0.10640702  0.89842520  0.26805383  1
  Te  Te106  1  0.07548100  0.92594720  0.59740054  1
  Te  Te107  1  0.08425143  0.91318560  0.88683428  1
  Te  Te108  1  0.40241900  0.24926579  0.23955490  1
  Te  Te109  1  0.40619412  0.24495805  0.57695207  1
  Te  Te110  1  0.41060154  0.24549495  0.92196999  1
  Te  Te111  1  0.43343289  0.58736245  0.26134320  1
  Te  Te112  1  0.41438930  0.60289427  0.58690780  1
  Te  Te113  1  0.40150119  0.57289112  0.91527396  1
  Te  Te114  1  0.43102228  0.90356397  0.26557513  1
  Te  Te115  1  0.41991139  0.91489429  0.56462293  1
  Te  Te116  1  0.41771049  0.91233677  0.92256283  1
  Te  Te117  1  0.74498304  0.23947932  0.26720892  1
  Te  Te118  1  0.76770911  0.26494935  0.56355063  1
  Te  Te119  1  0.74794682  0.24450723  0.91412719  1
  Te  Te120  1  0.74780319  0.57710181  0.26933579  1
  Te  Te121  1  0.74468550  0.58940265  0.55357682  1
  Te  Te122  1  0.73651937  0.57791640  0.89408651  1
  Te  Te123  1  0.74684702  0.90851925  0.28947286  1
  Te  Te124  1  0.76426302  0.89384553  0.57994488  1
  Te  Te125  1  0.77166762  0.90331699  0.90790692  1
  Te  Te126  1  0.24060957  0.25290418  0.10372849  1
  Te  Te127  1  0.25253590  0.26602873  0.45012041  1
  Te  Te128  1  0.23110254  0.23570899  0.72640629  1
  Te  Te129  1  0.24580977  0.58212339  0.07382300  1
  Te  Te130  1  0.24380554  0.57523427  0.40776243  1
  Te  Te131  1  0.26941002  0.58333182  0.74486327  1
  Te  Te132  1  0.25797514  0.91030798  0.09351335  1
  Te  Te133  1  0.25372220  0.89779126  0.43243905  1
  Te  Te134  1  0.23404894  0.89558974  0.73024933  1
  Te  Te135  1  0.57117697  0.27031084  0.10823209  1
  Te  Te136  1  0.58237732  0.25571919  0.41520931  1
  Te  Te137  1  0.55855707  0.25772403  0.73356493  1
  Te  Te138  1  0.57341828  0.61071764  0.08487772  1
  Te  Te139  1  0.60763756  0.57782731  0.38835434  1
  Te  Te140  1  0.58378551  0.57375751  0.75357789  1
  Te  Te141  1  0.58983007  0.92010703  0.08629901  1
  Te  Te142  1  0.61437235  0.91434396  0.39770917  1
  Te  Te143  1  0.58473371  0.91833812  0.75733409  1
  Te  Te144  1  0.91011211  0.25220934  0.09707221  1
  Te  Te145  1  0.96672061  0.25559012  0.43203970  1
  Te  Te146  1  0.92864465  0.24935720  0.75152525  1
  Te  Te147  1  0.91670774  0.59799522  0.06477783  1
  Te  Te148  1  0.93729233  0.58640896  0.43845905  1
  Te  Te149  1  0.92883622  0.59382486  0.73207603  1
  Te  Te150  1  0.90651732  0.92372538  0.09921461  1
  Te  Te151  1  0.91270694  0.90374052  0.40102213  1
  Te  Te152  1  0.86472480  0.93736845  0.77350942  1
  Te  Te153  1  0.26159959  0.08536994  0.24548586  1
  Te  Te154  1  0.26661642  0.09207579  0.57275311  1
  Te  Te155  1  0.23138804  0.06011639  0.89567726  1
  Te  Te156  1  0.24860134  0.41696731  0.26753959  1
  Te  Te157  1  0.23948909  0.43465226  0.58080438  1
  Te  Te158  1  0.24705174  0.40881756  0.90141018  1
  Te  Te159  1  0.25345217  0.76120776  0.26046599  1
  Te  Te160  1  0.22939865  0.78089596  0.53784817  1
  Te  Te161  1  0.24982218  0.74123810  0.92951680  1
  Te  Te162  1  0.58365170  0.07137676  0.25848044  1
  Te  Te163  1  0.56376662  0.08358934  0.59375841  1
  Te  Te164  1  0.58332981  0.11494262  0.93519176  1
  Te  Te165  1  0.56837663  0.39304684  0.22907624  1
  Te  Te166  1  0.59118258  0.43976748  0.56607230  1
  Te  Te167  1  0.59119094  0.40899861  0.91014760  1
  Te  Te168  1  0.55270383  0.69080634  0.30638424  1
  Te  Te169  1  0.59886612  0.76078759  0.56036931  1
  Te  Te170  1  0.57978480  0.75721335  0.92818548  1
  Te  Te171  1  0.90204316  0.09193769  0.24498938  1
  Te  Te172  1  0.92687102  0.09582570  0.57706516  1
  Te  Te173  1  0.91400636  0.08339585  0.91360965  1
  Te  Te174  1  0.92996054  0.39928328  0.25381910  1
  Te  Te175  1  0.93062438  0.42115738  0.58102385  1
  Te  Te176  1  0.89483063  0.43239209  0.93254082  1
  Te  Te177  1  0.91264032  0.74501201  0.25352102  1
  Te  Te178  1  0.91858222  0.74948429  0.57483995  1
  Te  Te179  1  0.93566744  0.76255470  0.90504867  1
