# generated using pymatgen
data_In2Te3
_symmetry_space_group_name_H-M   'P 1'
_cell_length_a   18.83082025
_cell_length_b   18.85993166
_cell_length_c   18.85602822
_cell_angle_alpha   89.89370932
_cell_angle_beta   90.05459202
_cell_angle_gamma   89.95771399
_symmetry_Int_Tables_number   1
_chemical_formula_structural   In2Te3
_chemical_formula_sum   'In72 Te108'
_cell_volume   6696.66398999
_cell_formula_units_Z   36
loop_
 _symmetry_equiv_pos_site_id
 _symmetry_equiv_pos_as_xyz
  1  'x, y, z'
loop_
 _atom_site_type_symbol
 _atom_site_label
 _atom_site_symmetry_multiplicity
 _atom_site_fract_x
 _atom_site_fract_y
 _atom_site_fract_z
 _atom_site_occupancy
  In  In0  1  0.02523579  0.51878915  0.48985567  1
  In  In1  1  0.00991361  0.66615111  -0.00706854  1
  In  In2  1  0.16919945  0.16653687  0.63272940  1
  In  In3  1  0.86083000  0.17753079  0.68118681  1
  In  In4  1  0.82119919  0.48369456  0.67332635  1
  In  In5  1  -0.01259598  0.32236747  -0.01110433  1
  In  In6  1  0.16269628  0.48835331  0.33652180  1
  In  In7  1  0.84517142  0.34008179  0.83938877  1
  In  In8  1  -0.00763279  0.47481287  0.17689801  1
  In  In9  1  -0.00979357  -0.00100432  0.66153493  1
  In  In10  1  0.49724087  -0.00499094  0.18598303  1
  In  In11  1  0.15006211  -0.03055047  0.20110397  1
  In  In12  1  0.51929593  0.17133590  0.66081308  1
  In  In13  1  0.65999604  0.13594184  0.48298274  1
  In  In14  1  0.83386429  0.68558798  0.17744773  1
  In  In15  1  0.17914303  0.17847573  0.01429929  1
  In  In16  1  0.48591129  -0.00891401  0.83788452  1
  In  In17  1  0.50226191  0.31447506  0.48847327  1
  In  In18  1  0.49721365  0.36035824  0.83948794  1
  In  In19  1  0.17285173  0.31905825  0.17845445  1
  In  In20  1  0.84527362  0.50873635  0.35059925  1
  In  In21  1  0.67900767  0.03220487  0.02488400  1
  In  In22  1  0.48880123  0.66449109  0.15982303  1
  In  In23  1  0.32513334  0.34180533  0.01806090  1
  In  In24  1  0.16747345  0.82065716  0.67266437  1
  In  In25  1  0.69824922  0.34285642  0.67415553  1
  In  In26  1  0.19530644  -0.01989314  0.45547571  1
  In  In27  1  0.69202543  0.17004228  0.85767817  1
  In  In28  1  0.48942042  0.67326235  0.47640879  1
  In  In29  1  0.16212537  0.68974661  0.49895437  1
  In  In30  1  0.66046742  0.84034506  0.50609382  1
  In  In31  1  0.15182422  0.37237053  0.80904386  1
  In  In32  1  0.82263408  0.17287112  0.02369239  1
  In  In33  1  0.84455752  0.31740565  0.49715857  1
  In  In34  1  0.19639489  0.16009986  0.34060133  1
  In  In35  1  0.82057695  0.67220513  0.82989267  1
  In  In36  1  0.00341005  0.16049820  0.48247188  1
  In  In37  1  0.66443294  0.48609572  0.17408912  1
  In  In38  1  0.34498640  -0.00832681  0.03163190  1
  In  In39  1  0.49634860  0.51462796  0.32854381  1
  In  In40  1  0.47907124  0.83128819  0.30524142  1
  In  In41  1  0.34375612  0.84455412  0.17845167  1
  In  In42  1  0.64967349  -0.00643507  0.65480812  1
  In  In43  1  0.50108107  0.53079729  0.68814757  1
  In  In44  1  0.33292984  0.16516045  0.83332426  1
  In  In45  1  0.49113454  0.81697639  -0.02949709  1
  In  In46  1  0.83867721  -0.01362991  0.82570131  1
  In  In47  1  0.16869045  0.67681131  0.16009112  1
  In  In48  1  0.31808051  0.66694471  0.69543844  1
  In  In49  1  0.53575924  0.20403277  0.03178964  1
  In  In50  1  0.00811186  0.66320154  0.65002493  1
  In  In51  1  0.15220252  -0.01400328  0.82902641  1
  In  In52  1  0.82672200  0.48858452  0.00522086  1
  In  In53  1  0.65710655  0.67269953  0.68100968  1
  In  In54  1  0.33937114  0.34357296  0.65932560  1
  In  In55  1  0.66498524  -0.00948652  0.32149262  1
  In  In56  1  0.85386611  0.83190628  0.33877151  1
  In  In57  1  0.83699710  0.67642822  0.49450855  1
  In  In58  1  0.84790633  0.83994220  0.02422599  1
  In  In59  1  0.68690856  0.31769561  0.33258212  1
  In  In60  1  -0.02684831  0.18040388  0.83030425  1
  In  In61  1  0.16037982  0.51456846  -0.01778072  1
  In  In62  1  0.62645010  0.49833961  0.51664093  1
  In  In63  1  0.34324546  -0.03712074  0.62297552  1
  In  In64  1  0.30819434  0.48588388  0.50077023  1
  In  In65  1  0.01881043  -0.02946299  -0.00322059  1
  In  In66  1  0.32916670  0.50837672  0.15318819  1
  In  In67  1  0.66295924  0.83433622  0.14831127  1
  In  In68  1  -0.00867999  0.13243567  0.20059463  1
  In  In69  1  0.65864721  0.82794021  0.83184657  1
  In  In70  1  0.46826953  0.51530667  -0.01391366  1
  In  In71  1  0.01272146  0.83942955  0.49083182  1
  Te  Te72  1  0.08696484  0.08157280  0.08589565  1
  Te  Te73  1  0.08517605  0.06421645  0.39647779  1
  Te  Te74  1  0.08253174  0.09629556  0.74715335  1
  Te  Te75  1  0.09660595  0.40734958  0.07447962  1
  Te  Te76  1  0.07310750  0.40186565  0.41413890  1
  Te  Te77  1  0.03916101  0.42442707  0.73477625  1
  Te  Te78  1  0.07904495  0.76350175  0.07934584  1
  Te  Te79  1  0.10095512  0.77238019  0.38786912  1
  Te  Te80  1  0.07357140  0.74456339  0.75590334  1
  Te  Te81  1  0.43651532  0.09750327  0.08784823  1
  Te  Te82  1  0.36274769  0.12379709  0.41345916  1
  Te  Te83  1  0.41255146  0.08019883  0.73544324  1
  Te  Te84  1  0.43252006  0.41071025  0.09933560  1
  Te  Te85  1  0.41646098  0.41717299  0.41553392  1
  Te  Te86  1  0.39789816  0.44294330  0.75919236  1
  Te  Te87  1  0.39920770  0.74858068  0.07087353  1
  Te  Te88  1  0.38993465  0.76100637  0.40656534  1
  Te  Te89  1  0.43265865  0.71994279  0.77560232  1
  Te  Te90  1  0.76177112  0.09048622  0.13395139  1
  Te  Te91  1  0.76494735  0.07724428  0.39490475  1
  Te  Te92  1  0.74798504  0.08463849  0.74344706  1
  Te  Te93  1  0.77452639  0.40563783  0.11525235  1
  Te  Te94  1  0.73285570  0.41872004  0.43945326  1
  Te  Te95  1  0.73290809  0.43371240  0.78845388  1
  Te  Te96  1  0.74294656  0.73604087  0.06496448  1
  Te  Te97  1  0.74027426  0.75413593  0.40682570  1
  Te  Te98  1  0.75919511  0.77378225  0.73099511  1
  Te  Te99  1  0.08005358  0.24053282  0.26540051  1
  Te  Te100  1  0.08075368  0.25911786  0.56121450  1
  Te  Te101  1  0.09727617  0.25151362  0.90785445  1
  Te  Te102  1  0.08222632  0.57787573  0.24282441  1
  Te  Te103  1  0.11982863  0.57697163  0.59428464  1
  Te  Te104  1  0.08985579  0.60138990  0.88284053  1
  Te  Te105  1  0.06217820  0.88235314  0.28004194  1
  Te  Te106  1  0.10303201  0.93345586  0.58067129  1
  Te  Te107  1  0.10654332  0.87989342  0.92015470  1
  Te  Te108  1  0.36212977  0.21002101  0.29575577  1
  Te  Te109  1  0.40709251  0.23475947  0.57735604  1
  Te  Te110  1  0.41569464  0.25219869  0.92599498  1
  Te  Te111  1  0.39242801  0.60001396  0.25791955  1
  Te  Te112  1  0.41492811  0.57543944  0.56961761  1
  Te  Te113  1  0.40911338  0.61502621  0.89165828  1
  Te  Te114  1  0.38400874  0.95942433  0.28305801  1
  Te  Te115  1  0.45084078  0.92376106  0.53439030  1
  Te  Te116  1  0.38225557  0.90556208  0.90935825  1
  Te  Te117  1  0.74391966  0.22907021  0.22757508  1
  Te  Te118  1  0.73793814  0.23225994  0.57954629  1
  Te  Te119  1  0.74909092  0.28013713  0.94365823  1
  Te  Te120  1  0.75256422  0.58443773  0.25621870  1
  Te  Te121  1  0.74264250  0.58745482  0.57825763  1
  Te  Te122  1  0.74947691  0.58672940  0.92757427  1
  Te  Te123  1  0.76003460  0.90583693  0.23744919  1
  Te  Te124  1  0.75543090  0.92696752  0.57824943  1
  Te  Te125  1  0.73969687  0.92557911  0.92560686  1
  Te  Te126  1  0.28114557  0.23128412  0.11332914  1
  Te  Te127  1  0.27763096  0.25947454  0.41774482  1
  Te  Te128  1  0.24142653  0.25231028  0.74859804  1
  Te  Te129  1  0.25830298  0.60284985  0.05783174  1
  Te  Te130  1  0.24462159  0.59199770  0.41255992  1
  Te  Te131  1  0.22074227  0.58511233  0.77269353  1
  Te  Te132  1  0.23323538  0.90589225  0.08799852  1
  Te  Te133  1  0.28534198  0.88239262  0.39173934  1
  Te  Te134  1  0.26222633  0.91787924  0.74388925  1
  Te  Te135  1  0.63728537  0.26093376  0.11810827  1
  Te  Te136  1  0.57495503  0.22455830  0.39118691  1
  Te  Te137  1  0.59064813  0.25117819  0.77042894  1
  Te  Te138  1  0.57948617  0.57384601  0.08095678  1
  Te  Te139  1  0.59951230  0.59736116  0.40340435  1
  Te  Te140  1  0.60151949  0.58144022  0.78272773  1
  Te  Te141  1  0.56681147  0.91969737  0.06613777  1
  Te  Te142  1  0.56419782  0.91131374  0.40735899  1
  Te  Te143  1  0.56092100  0.90252368  0.73983910  1
  Te  Te144  1  0.93273717  0.24287742  0.10356928  1
  Te  Te145  1  0.90344723  0.23015129  0.39251749  1
  Te  Te146  1  0.94922382  0.29643851  0.72354754  1
  Te  Te147  1  0.92153425  0.58548412  0.09337368  1
  Te  Te148  1  0.94182856  0.61470915  0.40396360  1
  Te  Te149  1  0.91069360  0.58554675  0.74226485  1
  Te  Te150  1  0.91682005  0.94525932  0.09921193  1
  Te  Te151  1  0.91587247  0.93240487  0.42770339  1
  Te  Te152  1  0.94157193  0.90400658  0.76203711  1
  Te  Te153  1  0.25392690  0.07076416  0.23409577  1
  Te  Te154  1  0.26583862  0.07775018  0.55550923  1
  Te  Te155  1  0.25087665  0.07348756  0.92458392  1
  Te  Te156  1  0.26627104  0.41228095  0.25385173  1
  Te  Te157  1  0.22415784  0.40143157  0.58728784  1
  Te  Te158  1  0.25862560  0.42202005  0.90884770  1
  Te  Te159  1  0.25068812  0.75757834  0.25496921  1
  Te  Te160  1  0.27039198  0.75939631  0.57956746  1
  Te  Te161  1  0.28242710  0.70456206  0.84656675  1
  Te  Te162  1  0.58061180  0.09409649  0.25498403  1
  Te  Te163  1  0.54769324  0.06004311  0.55625704  1
  Te  Te164  1  0.57549439  0.08560835  0.91691889  1
  Te  Te165  1  0.57377060  0.40184246  0.26358260  1
  Te  Te166  1  0.56336288  0.39675180  0.61118471  1
  Te  Te167  1  0.57561395  0.41946984  0.94759391  1
  Te  Te168  1  0.58813046  0.74314516  0.24449214  1
  Te  Te169  1  0.56569027  0.74850891  0.58547837  1
  Te  Te170  1  0.59261390  0.72616378  0.91532398  1
  Te  Te171  1  0.90164296  0.08003457  0.30594441  1
  Te  Te172  1  0.90219314  0.08400219  0.57177078  1
  Te  Te173  1  0.90780732  0.08232335  0.92564379  1
  Te  Te174  1  0.90793445  0.40153704  0.27244921  1
  Te  Te175  1  0.91175230  0.43750552  0.56030964  1
  Te  Te176  1  0.93728483  0.44074080  0.90967751  1
  Te  Te177  1  0.94396513  0.76528280  0.23882773  1
  Te  Te178  1  0.91668986  0.76771753  0.58572089  1
  Te  Te179  1  0.91455450  0.75915106  0.91547688  1
