# generated using pymatgen
data_In2Te3
_symmetry_space_group_name_H-M   'P 1'
_cell_length_a   18.76782243
_cell_length_b   18.75926550
_cell_length_c   18.75963389
_cell_angle_alpha   90.04099675
_cell_angle_beta   89.95519336
_cell_angle_gamma   90.07028361
_symmetry_Int_Tables_number   1
_chemical_formula_structural   In2Te3
_chemical_formula_sum   'In72 Te108'
_cell_volume   6604.70620592
_cell_formula_units_Z   36
loop_
 _symmetry_equiv_pos_site_id
 _symmetry_equiv_pos_as_xyz
  1  'x, y, z'
loop_
 _atom_site_type_symbol
 _atom_site_label
 _atom_site_symmetry_multiplicity
 _atom_site_fract_x
 _atom_site_fract_y
 _atom_site_fract_z
 _atom_site_occupancy
  In  In0  1  0.15454619  0.50933116  0.35712342  1
  In  In1  1  -0.00837624  0.48219158  0.50421507  1
  In  In2  1  0.33578683  0.85153224  0.50752723  1
  In  In3  1  0.17943170  0.67086183  0.15461320  1
  In  In4  1  0.66553716  0.66421572  0.67521665  1
  In  In5  1  0.34822112  0.01249719  -0.01274924  1
  In  In6  1  0.49440274  0.30706078  0.50981709  1
  In  In7  1  0.32877175  0.49091834  0.83159288  1
  In  In8  1  0.16093649  0.81146865  -0.00289218  1
  In  In9  1  0.68704848  0.31946924  0.66230377  1
  In  In10  1  0.84902036  0.18683923  0.67759758  1
  In  In11  1  0.33487660  0.66551754  0.34481698  1
  In  In12  1  0.19230356  0.17988780  0.35634804  1
  In  In13  1  -0.01535521  -0.00258397  0.66422603  1
  In  In14  1  0.83425470  -0.00169832  0.82657695  1
  In  In15  1  0.32661133  0.50774448  0.19210166  1
  In  In16  1  0.48285748  0.14903779  0.67993982  1
  In  In17  1  0.00894340  0.48908506  0.82082313  1
  In  In18  1  0.50119172  0.17872304  -0.01753539  1
  In  In19  1  0.18265710  0.01547868  0.51808746  1
  In  In20  1  -0.00455062  0.66401687  0.33325095  1
  In  In21  1  0.18010244  0.66442371  0.51538465  1
  In  In22  1  0.49175087  0.84763713  -0.00894299  1
  In  In23  1  0.34693320  0.34786681  -0.02837220  1
  In  In24  1  0.81930028  0.16759576  -0.00902282  1
  In  In25  1  0.19281030  0.18028994  0.67640970  1
  In  In26  1  0.67334819  0.50311224  0.15225209  1
  In  In27  1  0.34673540  0.84843329  0.17853824  1
  In  In28  1  0.00997852  0.33641124  -0.02136026  1
  In  In29  1  0.49734879  0.50194237  0.33492585  1
  In  In30  1  0.15087476  -0.00440704  0.17400027  1
  In  In31  1  0.33933403  0.66070773  0.68455024  1
  In  In32  1  0.18114320  0.46869290  0.65677888  1
  In  In33  1  0.33120091  0.31071925  0.35320340  1
  In  In34  1  0.50590372  0.30353739  0.18112938  1
  In  In35  1  0.16182488  -0.02153900  0.81590648  1
  In  In36  1  0.32070904  0.68606187  -0.01832934  1
  In  In37  1  0.49432858  0.51456907  0.67450342  1
  In  In38  1  0.00175180  0.18343301  0.51201207  1
  In  In39  1  0.49824387  0.50172807  0.00361852  1
  In  In40  1  0.68291287  0.83500044  0.15569126  1
  In  In41  1  0.83749086  0.48382735  0.66202407  1
  In  In42  1  0.00413991  0.83236526  0.49737221  1
  In  In43  1  0.65598495  0.30331392  0.35725366  1
  In  In44  1  0.65836353  0.01744185  -0.00095347  1
  In  In45  1  0.67108804  0.66933738  0.33071206  1
  In  In46  1  0.81766619  0.48600847  0.33237536  1
  In  In47  1  0.02152776  0.69301112  0.69255652  1
  In  In48  1  0.35559792  0.01103542  0.37506393  1
  In  In49  1  0.14687650  0.34593649  0.14214824  1
  In  In50  1  -0.01253649  0.15167677  0.17409516  1
  In  In51  1  0.82615236  0.84599801  0.33477377  1
  In  In52  1  -0.02541989  -0.00047541  0.00478844  1
  In  In53  1  0.15937287  0.18033246  -0.04576214  1
  In  In54  1  0.65933426  0.31744257  -0.01285337  1
  In  In55  1  0.65973480  0.84816763  0.48776042  1
  In  In56  1  0.66392009  0.83702469  0.81572885  1
  In  In57  1  0.67457529  0.67044519  -0.01008249  1
  In  In58  1  0.50096432  0.34557951  0.82122326  1
  In  In59  1  0.82583762  0.33133197  0.18793343  1
  In  In60  1  -0.01173916  0.00058475  0.31776356  1
  In  In61  1  0.47776581  0.84646276  0.66256677  1
  In  In62  1  0.82443816  0.82460522  0.66294604  1
  In  In63  1  0.50511260  0.85023973  0.33904192  1
  In  In64  1  0.15212225  0.50826996  -0.04053802  1
  In  In65  1  0.65967461  0.00698239  0.66257752  1
  In  In66  1  0.00169463  0.84098292  0.14319457  1
  In  In67  1  0.86854008  0.81470738  -0.01587683  1
  In  In68  1  0.67247518  0.49415116  0.48767466  1
  In  In69  1  -0.01231308  0.32145566  0.34572793  1
  In  In70  1  0.86216572  0.53638369  -0.00587533  1
  In  In71  1  0.33995119  0.17972646  0.16591689  1
  Te  Te72  1  0.09337501  0.09075092  0.06770489  1
  Te  Te73  1  0.08409520  0.08402080  0.41450206  1
  Te  Te74  1  0.08351332  0.08453355  0.73893749  1
  Te  Te75  1  0.06225187  0.44982667  0.07088108  1
  Te  Te76  1  0.09361841  0.39210092  0.43178529  1
  Te  Te77  1  0.05835127  0.39692735  0.71020070  1
  Te  Te78  1  0.05580448  0.71395904  0.06974018  1
  Te  Te79  1  0.09851438  0.74477019  0.41408295  1
  Te  Te80  1  0.12347626  0.78504409  0.75296107  1
  Te  Te81  1  0.43441578  0.08704018  0.08852122  1
  Te  Te82  1  0.41548804  0.13535680  0.42447608  1
  Te  Te83  1  0.40488686  0.09383249  0.79442712  1
  Te  Te84  1  0.41938605  0.40839537  0.10064522  1
  Te  Te85  1  0.41704488  0.41475941  0.42837203  1
  Te  Te86  1  0.39759569  0.40573406  0.72530680  1
  Te  Te87  1  0.41512153  0.74964355  0.08370924  1
  Te  Te88  1  0.42535078  0.75497873  0.42983483  1
  Te  Te89  1  0.42963674  0.74800938  0.76283280  1
  Te  Te90  1  0.76149247  0.07388970  0.08944216  1
  Te  Te91  1  0.71009396  0.04185233  0.38965569  1
  Te  Te92  1  0.74409460  0.09429251  0.75482978  1
  Te  Te93  1  0.76007278  0.40828516  0.07175526  1
  Te  Te94  1  0.76415466  0.38492746  0.43275801  1
  Te  Te95  1  0.74588422  0.41653558  0.75694748  1
  Te  Te96  1  0.77613619  0.73923863  0.08124113  1
  Te  Te97  1  0.75899489  0.74559818  0.42969239  1
  Te  Te98  1  0.76634638  0.73365628  0.77049910  1
  Te  Te99  1  0.09158163  0.24074641  0.24794348  1
  Te  Te100  1  0.08247673  0.26337053  0.60946695  1
  Te  Te101  1  0.06095811  0.25052238  0.86378227  1
  Te  Te102  1  0.08747458  0.57955919  0.24249545  1
  Te  Te103  1  0.07650411  0.58145994  0.59027928  1
  Te  Te104  1  0.06525417  0.61306883  0.89406766  1
  Te  Te105  1  0.08299317  0.89269242  0.26267388  1
  Te  Te106  1  0.09116519  0.91516902  0.59081392  1
  Te  Te107  1  0.07207327  0.91409031  0.92489327  1
  Te  Te108  1  0.43663007  0.21268384  0.28735943  1
  Te  Te109  1  0.39926599  0.25111862  0.60866974  1
  Te  Te110  1  0.39993957  0.23300484  0.87772763  1
  Te  Te111  1  0.43201708  0.60474129  0.24206145  1
  Te  Te112  1  0.41200192  0.58898856  0.57715315  1
  Te  Te113  1  0.41629370  0.58885400  0.90861615  1
  Te  Te114  1  0.42948196  0.95334622  0.25276849  1
  Te  Te115  1  0.40587364  0.95653797  0.58834149  1
  Te  Te116  1  0.39943818  0.91034187  0.89406027  1
  Te  Te117  1  0.73242585  0.23068733  0.24771120  1
  Te  Te118  1  0.75217252  0.22341703  0.57092574  1
  Te  Te119  1  0.74813471  0.24916788  0.89114526  1
  Te  Te120  1  0.76462736  0.59260082  0.23626167  1
  Te  Te121  1  0.75475189  0.58483441  0.57836208  1
  Te  Te122  1  0.75335282  0.57879222  0.90533290  1
  Te  Te123  1  0.72242946  0.93152670  0.26671250  1
  Te  Te124  1  0.75796968  0.92885701  0.57550037  1
  Te  Te125  1  0.75208471  0.90752564  0.92305671  1
  Te  Te126  1  0.25015050  0.25379224  0.06438997  1
  Te  Te127  1  0.25545157  0.25273943  0.47286498  1
  Te  Te128  1  0.24481315  0.27818415  0.77471601  1
  Te  Te129  1  0.25822527  0.56302193  0.06548138  1
  Te  Te130  1  0.26956653  0.56493794  0.43994126  1
  Te  Te131  1  0.22921783  0.57668735  0.75331968  1
  Te  Te132  1  0.24940443  0.91795009  0.07701940  1
  Te  Te133  1  0.23971255  0.91988761  0.41010037  1
  Te  Te134  1  0.24604837  0.88272482  0.74115947  1
  Te  Te135  1  0.60060371  0.22374630  0.09284104  1
  Te  Te136  1  0.58485171  0.20251717  0.44591063  1
  Te  Te137  1  0.58650620  0.24363546  0.75039479  1
  Te  Te138  1  0.57677995  0.60123033  0.08858523  1
  Te  Te139  1  0.57593826  0.59624290  0.42658018  1
  Te  Te140  1  0.58507773  0.58217092  0.76837697  1
  Te  Te141  1  0.57674585  0.92570226  0.09139437  1
  Te  Te142  1  0.56994414  0.95337633  0.42850961  1
  Te  Te143  1  0.56431820  0.93454578  0.75739299  1
  Te  Te144  1  0.92345116  0.25771196  0.08298031  1
  Te  Te145  1  0.90113954  0.21758225  0.40491846  1
  Te  Te146  1  0.93096670  0.25928892  0.77518880  1
  Te  Te147  1  0.94392757  0.60427366  0.09330840  1
  Te  Te148  1  0.90496934  0.57734657  0.42098752  1
  Te  Te149  1  0.92040133  0.58752037  0.74217637  1
  Te  Te150  1  0.88588908  0.92990751  0.10363775  1
  Te  Te151  1  0.91004398  0.93185238  0.43060774  1
  Te  Te152  1  0.92310851  0.89444644  0.75875470  1
  Te  Te153  1  0.25283136  0.08145752  0.24969023  1
  Te  Te154  1  0.28067903  0.07122451  0.61511849  1
  Te  Te155  1  0.25467565  0.08366115  0.88521995  1
  Te  Te156  1  0.24047686  0.40156985  0.25991570  1
  Te  Te157  1  0.25003560  0.38634922  0.55681609  1
  Te  Te158  1  0.21879748  0.38746743  0.88537664  1
  Te  Te159  1  0.25057702  0.75931477  0.25833393  1
  Te  Te160  1  0.25112490  0.76637582  0.60197572  1
  Te  Te161  1  0.23719859  0.75691225  0.87927679  1
  Te  Te162  1  0.62679634  0.11209185  0.29410408  1
  Te  Te163  1  0.57182422  0.08829469  0.57387174  1
  Te  Te164  1  0.57535380  0.08276464  0.89657895  1
  Te  Te165  1  0.59774333  0.41562517  0.25520599  1
  Te  Te166  1  0.58345627  0.41562076  0.58376741  1
  Te  Te167  1  0.59401707  0.43128170  0.90845394  1
  Te  Te168  1  0.58193514  0.75761388  0.24383995  1
  Te  Te169  1  0.58333566  0.76074374  0.58839157  1
  Te  Te170  1  0.57502147  0.75057199  0.90562858  1
  Te  Te171  1  0.88698915  0.09826670  0.26877182  1
  Te  Te172  1  0.90096443  0.08314411  0.57275289  1
  Te  Te173  1  0.92506227  0.09734864  0.90096096  1
  Te  Te174  1  0.93115612  0.42492945  0.24846467  1
  Te  Te175  1  0.91512899  0.38336169  0.58334556  1
  Te  Te176  1  0.90279458  0.41656580  0.90538898  1
  Te  Te177  1  0.91476021  0.75874805  0.24623975  1
  Te  Te178  1  0.92146545  0.73714883  0.58291558  1
  Te  Te179  1  0.95043262  0.72069428  0.90697573  1
