# generated using pymatgen
data_In2Te3
_symmetry_space_group_name_H-M   'P 1'
_cell_length_a   18.89477417
_cell_length_b   18.89936575
_cell_length_c   18.91918953
_cell_angle_alpha   89.97963210
_cell_angle_beta   90.09277358
_cell_angle_gamma   90.07640208
_symmetry_Int_Tables_number   1
_chemical_formula_structural   In2Te3
_chemical_formula_sum   'In72 Te108'
_cell_volume   6756.01306423
_cell_formula_units_Z   36
loop_
 _symmetry_equiv_pos_site_id
 _symmetry_equiv_pos_as_xyz
  1  'x, y, z'
loop_
 _atom_site_type_symbol
 _atom_site_label
 _atom_site_symmetry_multiplicity
 _atom_site_fract_x
 _atom_site_fract_y
 _atom_site_fract_z
 _atom_site_occupancy
  In  In0  1  0.65330916  0.15695769  0.17458461  1
  In  In1  1  0.28813901  -0.01558198  0.03965771  1
  In  In2  1  0.53013065  0.32655788  0.49125956  1
  In  In3  1  -0.03760445  0.46305897  0.50800444  1
  In  In4  1  0.16217069  0.36523148  0.80873536  1
  In  In5  1  0.00726877  0.66043933  0.34116004  1
  In  In6  1  0.52129371  0.33741840  0.19846106  1
  In  In7  1  0.54192996  0.67362744  0.51436353  1
  In  In8  1  0.34578538  0.31652090  0.00532759  1
  In  In9  1  0.34544933  0.00329162  0.65059407  1
  In  In10  1  0.81490270  0.64838860  0.51243076  1
  In  In11  1  -0.00754756  0.65944760  0.66656603  1
  In  In12  1  0.63416244  -0.00150021  0.62818066  1
  In  In13  1  0.85239803  -0.00699071  0.18637294  1
  In  In14  1  -0.01291916  0.50375026  0.18548977  1
  In  In15  1  0.84573743  0.33449300  0.81380751  1
  In  In16  1  0.33748087  0.14464886  0.17442298  1
  In  In17  1  0.82940043  0.00226133  0.83241144  1
  In  In18  1  0.81619164  0.33406547  0.16933013  1
  In  In19  1  0.83233667  0.18371858  0.66021456  1
  In  In20  1  0.46830215  0.15033112  -0.00184322  1
  In  In21  1  0.33242795  0.73014182  0.32742833  1
  In  In22  1  -0.00421159  0.01553407  0.34268455  1
  In  In23  1  0.48773442  0.68606726  0.16212151  1
  In  In24  1  0.15900744  0.32134726  0.49220737  1
  In  In25  1  0.16866756  0.81789245  0.65745369  1
  In  In26  1  0.52733348  0.50589798  0.00530427  1
  In  In27  1  0.33379389  0.84664945  0.82217176  1
  In  In28  1  0.50874432  0.51245528  0.33552295  1
  In  In29  1  0.68591702  0.65394044  0.33851696  1
  In  In30  1  0.63020262  -0.00834757  0.00406303  1
  In  In31  1  0.52385544  0.62138711  0.81455424  1
  In  In32  1  0.51422909  0.80491423  0.65682053  1
  In  In33  1  0.32066421  0.51767203  0.80787437  1
  In  In34  1  0.00210029  0.34691745  -0.01407698  1
  In  In35  1  -0.03326983  0.20689856  0.49520592  1
  In  In36  1  0.18646054  0.16069878  0.34621043  1
  In  In37  1  0.67000990  0.67595408  -0.00881949  1
  In  In38  1  0.49287684  0.01541009  0.84035109  1
  In  In39  1  0.67361212  0.33536521  0.00231453  1
  In  In40  1  -0.00973600  0.83697915  0.17694091  1
  In  In41  1  0.65349922  0.01549323  0.35758007  1
  In  In42  1  -0.02333076  0.50251535  0.82034091  1
  In  In43  1  -0.00319518  0.00474485  0.68542532  1
  In  In44  1  0.14266600  0.65892834  0.16247458  1
  In  In45  1  0.82928517  0.15255264  -0.00665596  1
  In  In46  1  0.34072610  0.50160412  0.49743200  1
  In  In47  1  0.66193072  0.20896132  0.76015719  1
  In  In48  1  0.83073995  0.65119130  0.17663539  1
  In  In49  1  0.19165408  -0.00510247  0.48176392  1
  In  In50  1  0.68799871  0.82410265  0.80558390  1
  In  In51  1  -0.00247549  0.15173964  0.17494666  1
  In  In52  1  -0.03142333  0.68949482  -0.03262789  1
  In  In53  1  0.18804628  0.67221232  0.84260206  1
  In  In54  1  0.50168335  0.81713396  0.01094534  1
  In  In55  1  0.31127712  0.48587232  0.17499742  1
  In  In56  1  0.67254215  0.50383813  0.81479322  1
  In  In57  1  0.32778117  0.17299530  0.83256518  1
  In  In58  1  0.51571510  0.49565389  0.66829817  1
  In  In59  1  0.17468331  0.51133185  0.01065926  1
  In  In60  1  0.49417345  0.16876814  0.34925223  1
  In  In61  1  0.01984708  -0.03662170  -0.01380403  1
  In  In62  1  0.33936742  0.33221238  0.62917923  1
  In  In63  1  0.17786059  0.32621724  0.19740786  1
  In  In64  1  0.80716207  -0.00818940  0.50166794  1
  In  In65  1  0.30712501  0.67849059  0.66114121  1
  In  In66  1  0.16943396  0.66702786  0.50080928  1
  In  In67  1  -0.00739674  0.82520229  0.49919312  1
  In  In68  1  0.14404443  0.14965876  -0.00847491  1
  In  In69  1  0.35208894  0.70727962  -0.01556339  1
  In  In70  1  0.69417765  0.81162500  0.18584981  1
  In  In71  1  0.15559370  0.14652941  0.64853053  1
  Te  Te72  1  0.08537845  0.05773815  0.09560608  1
  Te  Te73  1  0.07693189  0.10162349  0.43962601  1
  Te  Te74  1  0.09705186  0.07822461  0.76372695  1
  Te  Te75  1  0.09390904  0.41094162  0.09144443  1
  Te  Te76  1  0.07797069  0.42301460  0.42278685  1
  Te  Te77  1  0.05088487  0.41526306  0.72913000  1
  Te  Te78  1  0.06104890  0.74993037  0.07134452  1
  Te  Te79  1  0.09741156  0.76419975  0.40806843  1
  Te  Te80  1  0.08147039  0.74538985  0.75675974  1
  Te  Te81  1  0.41798598  0.04365532  0.09505047  1
  Te  Te82  1  0.45912001  0.06447416  0.45322658  1
  Te  Te83  1  0.42528695  0.10218001  0.73708224  1
  Te  Te84  1  0.42290425  0.42012874  0.08878887  1
  Te  Te85  1  0.42562501  0.41077765  0.41323690  1
  Te  Te86  1  0.40788690  0.41598903  0.74182919  1
  Te  Te87  1  0.38898009  0.78997604  0.11282008  1
  Te  Te88  1  0.45007887  0.74951038  0.42648255  1
  Te  Te89  1  0.41137215  0.73175303  0.75990209  1
  Te  Te90  1  0.74571301  0.06769540  0.08883254  1
  Te  Te91  1  0.73443882  0.10685642  0.44327773  1
  Te  Te92  1  0.73627308  0.07625276  0.72963076  1
  Te  Te93  1  0.74898788  0.43128202  0.08197477  1
  Te  Te94  1  0.80528072  0.39466298  0.46011406  1
  Te  Te95  1  0.74844785  0.40763133  0.72786194  1
  Te  Te96  1  0.77328459  0.75221161  0.07168896  1
  Te  Te97  1  0.74359526  0.75277186  0.43310901  1
  Te  Te98  1  0.78393254  0.71300566  0.79989342  1
  Te  Te99  1  0.07805791  0.24011890  0.26974998  1
  Te  Te100  1  0.06642130  0.25851361  0.59774119  1
  Te  Te101  1  0.09294522  0.26067015  0.90140137  1
  Te  Te102  1  0.09944556  0.56072610  0.27021339  1
  Te  Te103  1  0.06280284  0.57881131  0.55965130  1
  Te  Te104  1  0.08129102  0.57954558  0.91314050  1
  Te  Te105  1  0.07534074  0.93101963  0.25257001  1
  Te  Te106  1  0.08687578  0.92181602  0.57484877  1
  Te  Te107  1  0.10058277  0.87670988  0.90381963  1
  Te  Te108  1  0.40658610  0.25546207  0.25124631  1
  Te  Te109  1  0.44665194  0.23950545  0.58324381  1
  Te  Te110  1  0.43544588  0.26054079  0.89635008  1
  Te  Te111  1  0.40830011  0.58544565  0.24540828  1
  Te  Te112  1  0.41894095  0.59165893  0.59249717  1
  Te  Te113  1  0.41384750  0.57717242  0.92171335  1
  Te  Te114  1  0.40234475  0.86277747  0.31364237  1
  Te  Te115  1  0.43136211  0.90357032  0.58351899  1
  Te  Te116  1  0.41581982  0.91942746  0.92874572  1
  Te  Te117  1  0.72910714  0.25268478  0.25878264  1
  Te  Te118  1  0.76603741  0.27298014  0.56066819  1
  Te  Te119  1  0.74779985  0.24445032  0.90418256  1
  Te  Te120  1  0.76691713  0.55367975  0.26595891  1
  Te  Te121  1  0.75732682  0.56889262  0.62318740  1
  Te  Te122  1  0.75510587  0.58673325  0.90807983  1
  Te  Te123  1  0.74787611  0.92412071  0.27178960  1
  Te  Te124  1  0.74760015  0.90516202  0.60675527  1
  Te  Te125  1  0.73173985  0.91826577  0.91858674  1
  Te  Te126  1  0.24390428  0.23314260  0.08368859  1
  Te  Te127  1  0.27053516  0.24883651  0.42836887  1
  Te  Te128  1  0.24731206  0.25647609  0.73351031  1
  Te  Te129  1  0.26937634  0.60802124  0.07891876  1
  Te  Te130  1  0.27490927  0.60676866  0.41136983  1
  Te  Te131  1  0.21083996  0.57682727  0.72438593  1
  Te  Te132  1  0.24062028  0.88058112  0.13002547  1
  Te  Te133  1  0.28842010  0.94088628  0.38683825  1
  Te  Te134  1  0.24167514  0.92909797  0.73657882  1
  Te  Te135  1  0.56712962  0.24447110  0.08087196  1
  Te  Te136  1  0.60552520  0.26541413  0.37686935  1
  Te  Te137  1  0.56904382  0.28380323  0.67452642  1
  Te  Te138  1  0.59842498  0.59892631  0.10056884  1
  Te  Te139  1  0.61064772  0.56276969  0.43819201  1
  Te  Te140  1  0.62647652  0.60949354  0.70155237  1
  Te  Te141  1  0.58646297  0.89532262  0.11085735  1
  Te  Te142  1  0.56355818  0.95040208  0.45933606  1
  Te  Te143  1  0.57199612  0.91775867  0.75536790  1
  Te  Te144  1  0.92384782  0.24265485  0.07435447  1
  Te  Te145  1  0.89722639  0.28973162  0.39443748  1
  Te  Te146  1  0.92597504  0.22159989  0.76651304  1
  Te  Te147  1  0.92591009  0.58542401  0.07699933  1
  Te  Te148  1  0.90608276  0.57533012  0.41535559  1
  Te  Te149  1  0.88387491  0.57264924  0.72421437  1
  Te  Te150  1  0.90380557  0.91019593  0.07182924  1
  Te  Te151  1  0.90586293  0.91464912  0.41273306  1
  Te  Te152  1  0.91307146  0.90455126  0.75567885  1
  Te  Te153  1  0.25934242  0.05806989  0.26629979  1
  Te  Te154  1  0.26989085  0.10039401  0.56027252  1
  Te  Te155  1  0.25193527  0.07170583  0.91799922  1
  Te  Te156  1  0.25312025  0.41307944  0.28729118  1
  Te  Te157  1  0.23647820  0.43041241  0.57981893  1
  Te  Te158  1  0.25897293  0.41433802  0.92393355  1
  Te  Te159  1  0.21656368  0.76611777  0.23779570  1
  Te  Te160  1  0.26937932  0.77674728  0.55317451  1
  Te  Te161  1  0.22886630  0.79125145  0.93340167  1
  Te  Te162  1  0.55622466  0.06920941  0.25031901  1
  Te  Te163  1  0.58389958  0.10538662  0.54028212  1
  Te  Te164  1  0.59160274  0.10551966  0.91192441  1
  Te  Te165  1  0.60750936  0.44423931  0.24803649  1
  Te  Te166  1  0.60525677  0.42788733  0.57169627  1
  Te  Te167  1  0.58477063  0.41210886  0.90179962  1
  Te  Te168  1  0.58416969  0.74353031  0.26498746  1
  Te  Te169  1  0.63615945  0.77466709  0.57375042  1
  Te  Te170  1  0.57529286  0.74924314  0.89453993  1
  Te  Te171  1  0.89239552  0.10814484  0.27575197  1
  Te  Te172  1  0.91986261  0.07818962  0.57611170  1
  Te  Te173  1  0.93407467  0.07531369  0.91797052  1
  Te  Te174  1  0.92087942  0.39456755  0.25779235  1
  Te  Te175  1  0.86938476  0.38261664  0.60078468  1
  Te  Te176  1  0.89182376  0.42902742  0.92536767  1
  Te  Te177  1  0.90675922  0.74751451  0.26719261  1
  Te  Te178  1  0.89985103  0.75550282  0.59373813  1
  Te  Te179  1  0.90384303  0.78112109  0.87241611  1
