# generated using pymatgen
data_In2Te3
_symmetry_space_group_name_H-M   'P 1'
_cell_length_a   18.95182888
_cell_length_b   18.94572643
_cell_length_c   18.97326911
_cell_angle_alpha   89.90338478
_cell_angle_beta   89.86530779
_cell_angle_gamma   89.94510554
_symmetry_Int_Tables_number   1
_chemical_formula_structural   In2Te3
_chemical_formula_sum   'In72 Te108'
_cell_volume   6812.43763728
_cell_formula_units_Z   36
loop_
 _symmetry_equiv_pos_site_id
 _symmetry_equiv_pos_as_xyz
  1  'x, y, z'
loop_
 _atom_site_type_symbol
 _atom_site_label
 _atom_site_symmetry_multiplicity
 _atom_site_fract_x
 _atom_site_fract_y
 _atom_site_fract_z
 _atom_site_occupancy
  In  In0  1  0.17468332  0.79913365  0.33053124  1
  In  In1  1  0.83750075  0.49576537  0.68351675  1
  In  In2  1  0.00276737  0.02037226  0.65820257  1
  In  In3  1  0.51842235  0.52131003  0.33262058  1
  In  In4  1  0.49114701  -0.02333969  0.15590862  1
  In  In5  1  0.65345070  0.81855799  0.84470296  1
  In  In6  1  0.83524821  0.32373729  0.82238014  1
  In  In7  1  0.26982658  0.49775504  0.88429297  1
  In  In8  1  0.00020068  0.35581667  0.31768917  1
  In  In9  1  0.46937568  0.79455130  0.03440245  1
  In  In10  1  0.16631867  0.50875334  0.33208302  1
  In  In11  1  -0.00133015  0.79971706  0.47760915  1
  In  In12  1  0.83969238  0.84408086  0.62679092  1
  In  In13  1  0.01737100  0.68133512  0.66562174  1
  In  In14  1  0.32145512  0.66815783  0.66005881  1
  In  In15  1  0.65047408  0.64184181  0.69837417  1
  In  In16  1  0.83474067  0.67622340  0.16636550  1
  In  In17  1  0.84246822  0.84216988  -0.02457418  1
  In  In18  1  0.65476117  0.65197185  -0.01899719  1
  In  In19  1  0.46364390  0.51730048  -0.00714286  1
  In  In20  1  0.15580871  0.00308738  0.49085522  1
  In  In21  1  0.00682911  0.82399736  0.16988787  1
  In  In22  1  0.66651718  0.81235159  0.18407522  1
  In  In23  1  0.38100054  0.49777008  0.51397771  1
  In  In24  1  0.64817116  0.01857907  -0.00666169  1
  In  In25  1  0.17996093  0.83414686  0.01069543  1
  In  In26  1  0.69126027  0.67760102  0.34402685  1
  In  In27  1  0.51241235  0.00029914  0.49149230  1
  In  In28  1  0.65288048  0.17654445  0.14206905  1
  In  In29  1  0.01940045  0.83285229  0.84572700  1
  In  In30  1  0.68249915  -0.00247682  0.67731906  1
  In  In31  1  0.82736400  0.51547274  0.01236286  1
  In  In32  1  0.15516425  -0.00507667  0.15964535  1
  In  In33  1  0.34941711  0.82396535  0.51436970  1
  In  In34  1  0.29846674  0.50897074  0.14882318  1
  In  In35  1  0.31409526  0.16112564  0.53202832  1
  In  In36  1  0.32661956  0.14810721  0.16402924  1
  In  In37  1  0.47358559  0.00938564  0.83086377  1
  In  In38  1  0.52835374  0.17349354  0.34783848  1
  In  In39  1  0.33461943  0.33133932  0.69139576  1
  In  In40  1  0.65062399  0.49432699  0.14194845  1
  In  In41  1  0.34315644  -0.00963845  0.31627036  1
  In  In42  1  0.85942435  0.35728439  0.19753866  1
  In  In43  1  0.16351456  0.34164223  0.15078702  1
  In  In44  1  0.32016649  0.02145807  -0.01365511  1
  In  In45  1  0.01630435  0.16900238  0.16079619  1
  In  In46  1  0.66201052  -0.03215844  0.33265337  1
  In  In47  1  0.00639440  0.33841894  0.00719259  1
  In  In48  1  0.65802602  0.33934221  -0.03115399  1
  In  In49  1  0.17625146  0.83786564  0.66700435  1
  In  In50  1  0.84474294  0.68736153  0.83272738  1
  In  In51  1  0.52072988  0.65235452  0.50144556  1
  In  In52  1  0.32634093  0.65396229  0.31998415  1
  In  In53  1  0.32606556  0.83755605  0.83240308  1
  In  In54  1  0.33414451  0.31553953  0.36173155  1
  In  In55  1  0.50003752  0.18289437  0.67393449  1
  In  In56  1  0.45834012  0.33911542  0.85870368  1
  In  In57  1  0.49855071  0.82549963  0.63676598  1
  In  In58  1  0.70672748  0.18399761  0.51581467  1
  In  In59  1  0.00817707  0.18110656  0.83802801  1
  In  In60  1  0.01391201  -0.00836449  -0.00272106  1
  In  In61  1  0.86294412  0.01721339  0.82333941  1
  In  In62  1  0.84914381  0.34583443  0.53052487  1
  In  In63  1  0.85241979  0.15783738  0.31425903  1
  In  In64  1  0.65783220  0.18841098  0.81476227  1
  In  In65  1  0.15547725  0.33242667  0.50236430  1
  In  In66  1  0.00998765  0.17497708  0.50558259  1
  In  In67  1  0.48865474  0.35266438  0.16783731  1
  In  In68  1  0.15578325  0.49676072  0.66142824  1
  In  In69  1  0.03731879  0.47945604  0.83503705  1
  In  In70  1  0.84883189  -0.00530357  0.48784477  1
  In  In71  1  0.70741918  0.34251421  0.36559277  1
  Te  Te72  1  0.10430097  0.09676257  0.05952256  1
  Te  Te73  1  0.05434597  0.07151014  0.41164152  1
  Te  Te74  1  0.08025472  0.06965445  0.77069375  1
  Te  Te75  1  0.06519312  0.44197100  0.09969255  1
  Te  Te76  1  0.07262964  0.43408074  0.42708354  1
  Te  Te77  1  0.09836890  0.38623618  0.74085397  1
  Te  Te78  1  0.09625517  0.74210703  0.08831734  1
  Te  Te79  1  0.08210989  0.70708222  0.39702922  1
  Te  Te80  1  0.11195276  0.74234485  0.76749920  1
  Te  Te81  1  0.42979228  0.08682402  0.07153600  1
  Te  Te82  1  0.41637766  0.09273664  0.41435524  1
  Te  Te83  1  0.39677686  0.10337080  0.74544683  1
  Te  Te84  1  0.38931407  0.41111155  0.07167995  1
  Te  Te85  1  0.44518338  0.40698953  0.40523020  1
  Te  Te86  1  0.38603050  0.44109821  0.77790424  1
  Te  Te87  1  0.36872969  0.73675675  0.12131035  1
  Te  Te88  1  0.41841911  0.72822985  0.41999342  1
  Te  Te89  1  0.41728626  0.75310876  0.74201786  1
  Te  Te90  1  0.74388088  0.07624343  0.08735332  1
  Te  Te91  1  0.74335989  0.08418602  0.40597786  1
  Te  Te92  1  0.76403932  0.10363783  0.74406760  1
  Te  Te93  1  0.74996063  0.39651673  0.08009855  1
  Te  Te94  1  0.79870875  0.43746055  0.42565517  1
  Te  Te95  1  0.73733250  0.40451274  0.74656864  1
  Te  Te96  1  0.74734055  0.74981227  0.05330444  1
  Te  Te97  1  0.77480015  0.79954435  0.38853004  1
  Te  Te98  1  0.75527377  0.77010136  0.74222130  1
  Te  Te99  1  0.09555048  0.25512538  0.25658781  1
  Te  Te100  1  0.10144372  0.23747974  0.60168628  1
  Te  Te101  1  0.10274327  0.27221437  0.91471870  1
  Te  Te102  1  0.08321198  0.54350716  0.21673717  1
  Te  Te103  1  0.08358526  0.58900801  0.57414368  1
  Te  Te104  1  0.12053257  0.56356215  0.92017293  1
  Te  Te105  1  0.09087444  0.90751580  0.26566140  1
  Te  Te106  1  0.06276103  0.90314714  0.57903202  1
  Te  Te107  1  0.11767977  0.92921362  0.90669111  1
  Te  Te108  1  0.42311712  0.24095759  0.25077066  1
  Te  Te109  1  0.41597325  0.26165925  0.57574495  1
  Te  Te110  1  0.34762361  0.25644654  0.91749844  1
  Te  Te111  1  0.41476436  0.56590042  0.23394038  1
  Te  Te112  1  0.45148587  0.58639821  0.62703488  1
  Te  Te113  1  0.37080571  0.60764826  0.92037421  1
  Te  Te114  1  0.42169753  0.88681191  0.24895360  1
  Te  Te115  1  0.41095515  0.94116021  0.58880632  1
  Te  Te116  1  0.42409966  0.91047259  0.93505385  1
  Te  Te117  1  0.74531797  0.24612216  0.24874328  1
  Te  Te118  1  0.73421683  0.29354177  0.61025830  1
  Te  Te119  1  0.75540185  0.23503594  0.92129694  1
  Te  Te120  1  0.73840335  0.57715635  0.23029793  1
  Te  Te121  1  0.73516159  0.56816693  0.60509612  1
  Te  Te122  1  0.75610885  0.57980197  0.89384175  1
  Te  Te123  1  0.76416935  0.90364077  0.24631824  1
  Te  Te124  1  0.73000696  0.92058453  0.55682892  1
  Te  Te125  1  0.74579405  0.93575795  0.89621429  1
  Te  Te126  1  0.25040068  0.24342499  0.08105894  1
  Te  Te127  1  0.23078649  0.22466258  0.42148162  1
  Te  Te128  1  0.27230495  0.22020591  0.76834954  1
  Te  Te129  1  0.23397413  0.56514976  0.02785613  1
  Te  Te130  1  0.26930293  0.56581786  0.42692844  1
  Te  Te131  1  0.24079765  0.58221041  0.75207838  1
  Te  Te132  1  0.27022302  0.92460972  0.09349444  1
  Te  Te133  1  0.26010054  0.90906279  0.41810007  1
  Te  Te134  1  0.26202131  0.93045337  0.73979657  1
  Te  Te135  1  0.56085728  0.26751716  0.06260626  1
  Te  Te136  1  0.59973115  0.26650800  0.44277378  1
  Te  Te137  1  0.56239594  0.29266672  0.75712165  1
  Te  Te138  1  0.55730358  0.59680831  0.08422038  1
  Te  Te139  1  0.62088289  0.56377971  0.43170409  1
  Te  Te140  1  0.58188938  0.56899419  0.80392338  1
  Te  Te141  1  0.59162412  0.89794048  0.07076976  1
  Te  Te142  1  0.55852116  0.89322642  0.40394799  1
  Te  Te143  1  0.57384919  0.91781035  0.74929135  1
  Te  Te144  1  0.91195788  0.25720657  0.09464205  1
  Te  Te145  1  0.91768907  0.25662882  0.40820624  1
  Te  Te146  1  0.92719908  0.24929142  0.73708055  1
  Te  Te147  1  0.92595820  0.59816855  0.07929697  1
  Te  Te148  1  0.83939699  0.66599430  0.38332943  1
  Te  Te149  1  0.94102488  0.59103755  0.76498377  1
  Te  Te150  1  0.91592389  0.91609102  0.08386942  1
  Te  Te151  1  0.91308579  0.89536765  0.39931758  1
  Te  Te152  1  0.92322021  0.89846519  0.74763416  1
  Te  Te153  1  0.23337294  0.07911112  0.26111085  1
  Te  Te154  1  0.21435398  0.07955830  0.60168903  1
  Te  Te155  1  0.26558521  0.11742001  0.88798582  1
  Te  Te156  1  0.26255851  0.40410234  0.26141020  1
  Te  Te157  1  0.26404231  0.41160550  0.57468249  1
  Te  Te158  1  0.23188243  0.36015417  0.93306320  1
  Te  Te159  1  0.24466639  0.72723617  0.21654394  1
  Te  Te160  1  0.23148454  0.74138881  0.56301817  1
  Te  Te161  1  0.26428204  0.74291474  0.92687153  1
  Te  Te162  1  0.57919773  0.07410990  0.24378330  1
  Te  Te163  1  0.59297633  0.09413763  0.58845587  1
  Te  Te164  1  0.56360504  0.10764897  0.90392577  1
  Te  Te165  1  0.60021120  0.40337135  0.25754056  1
  Te  Te166  1  0.50772144  0.45511494  0.57853337  1
  Te  Te167  1  0.57539401  0.45097101  0.90798097  1
  Te  Te168  1  0.58083557  0.72090671  0.25504933  1
  Te  Te169  1  0.61093566  0.74419102  0.58069446  1
  Te  Te170  1  0.54846688  0.73659690  0.91208055  1
  Te  Te171  1  0.93757075  0.06953057  0.23564836  1
  Te  Te172  1  0.89874459  0.09977602  0.58415741  1
  Te  Te173  1  0.92006357  0.09453716  0.93707503  1
  Te  Te174  1  0.92925538  0.47315948  0.25785956  1
  Te  Te175  1  0.94302707  0.41929357  0.61504914  1
  Te  Te176  1  0.91270315  0.42206421  0.91770596  1
  Te  Te177  1  0.93606312  0.72822971  0.26272306  1
  Te  Te178  1  0.90194434  0.72026899  0.57148231  1
  Te  Te179  1  0.94569946  0.73670076  0.93656549  1
