# generated using pymatgen
data_In2Te3
_symmetry_space_group_name_H-M   'P 1'
_cell_length_a   18.77483512
_cell_length_b   18.77278754
_cell_length_c   18.78067925
_cell_angle_alpha   90.01672957
_cell_angle_beta   90.04232982
_cell_angle_gamma   89.97078698
_symmetry_Int_Tables_number   1
_chemical_formula_structural   In2Te3
_chemical_formula_sum   'In72 Te108'
_cell_volume   6619.35996461
_cell_formula_units_Z   36
loop_
 _symmetry_equiv_pos_site_id
 _symmetry_equiv_pos_as_xyz
  1  'x, y, z'
loop_
 _atom_site_type_symbol
 _atom_site_label
 _atom_site_symmetry_multiplicity
 _atom_site_fract_x
 _atom_site_fract_y
 _atom_site_fract_z
 _atom_site_occupancy
  In  In0  1  0.16257701  0.66251770  0.16656622  1
  In  In1  1  0.83164385  0.65181045  0.81502396  1
  In  In2  1  0.49590843  0.68917978  0.50273784  1
  In  In3  1  0.17941981  0.17043610  0.66442576  1
  In  In4  1  0.69216014  0.34980579  0.32903030  1
  In  In5  1  0.68150902  0.32628377  0.67760330  1
  In  In6  1  0.33843140  0.15956373  0.16377761  1
  In  In7  1  0.15407829  0.35067617  0.17020465  1
  In  In8  1  0.48335246  0.51799999  0.69195611  1
  In  In9  1  0.66984562  0.52952009  0.18207858  1
  In  In10  1  0.83985611  0.50018955  -0.00918152  1
  In  In11  1  0.01179260  0.17805982  0.50580016  1
  In  In12  1  0.17245464  0.65427581  0.83558254  1
  In  In13  1  0.49211631  0.82136337  0.32784318  1
  In  In14  1  0.47778724  -0.01231257  0.50978411  1
  In  In15  1  -0.00884531  0.00897513  0.32245125  1
  In  In16  1  -0.01765108  0.81316316  0.17531477  1
  In  In17  1  0.33955079  0.00038191  -0.02283585  1
  In  In18  1  -0.00607018  0.64683164  0.65918872  1
  In  In19  1  0.34378701  0.84299150  0.16775037  1
  In  In20  1  0.48797076  0.49594005  0.01151902  1
  In  In21  1  0.17417947  0.17035076  0.34310851  1
  In  In22  1  0.33685182  0.65739679  0.34992024  1
  In  In23  1  0.29919302  0.47482023  0.51794454  1
  In  In24  1  0.15441801  0.32908224  0.81147052  1
  In  In25  1  0.34858357  0.83373856  0.85189879  1
  In  In26  1  0.83671294  -0.00806533  0.49533466  1
  In  In27  1  0.48820084  0.33897842  0.82972727  1
  In  In28  1  0.82274874  0.51308286  0.32551467  1
  In  In29  1  -0.01707995  0.83360508  0.84178195  1
  In  In30  1  0.85553169  0.48783579  0.67113452  1
  In  In31  1  0.66218324  0.69696815  0.66261649  1
  In  In32  1  0.81524245  -0.00858748  0.82159644  1
  In  In33  1  -0.00610236  0.00109765  0.00550801  1
  In  In34  1  0.31941112  0.66111909  0.02053058  1
  In  In35  1  0.83727090  0.16162597  0.68600120  1
  In  In36  1  0.46981390  0.52142323  0.33032938  1
  In  In37  1  0.83087482  0.65109761  0.47977841  1
  In  In38  1  0.51173935  0.14111089  -0.01178575  1
  In  In39  1  0.00410514  0.17370309  0.83277516  1
  In  In40  1  0.67271291  0.47957168  0.50119142  1
  In  In41  1  0.00611692  0.50812045  0.16226505  1
  In  In42  1  0.16929162  0.01712481  0.84166010  1
  In  In43  1  0.66435839  -0.00840374  0.00831699  1
  In  In44  1  0.01290195  0.67165861  -0.01606940  1
  In  In45  1  0.68084956  -0.01380354  0.32587634  1
  In  In46  1  0.69039928  0.33566172  -0.01716932  1
  In  In47  1  0.16560542  0.83499556  0.64599848  1
  In  In48  1  0.82070740  0.83635390  0.67334823  1
  In  In49  1  0.33467269  0.48528314  0.82504398  1
  In  In50  1  0.33391744  0.32903479  -0.00525781  1
  In  In51  1  0.49289378  0.30443420  0.51395017  1
  In  In52  1  0.01325404  0.83938600  0.48819097  1
  In  In53  1  0.66201583  0.66417134  0.31255501  1
  In  In54  1  0.47174094  0.17541109  0.68230037  1
  In  In55  1  0.15546938  0.01013078  0.14667926  1
  In  In56  1  0.84468165  0.01508342  0.15949847  1
  In  In57  1  0.52841221  0.69251433  0.86074327  1
  In  In58  1  0.31302495  0.68184448  0.66958510  1
  In  In59  1  0.30717105  0.33463891  0.33141737  1
  In  In60  1  0.51732060  0.68712383  0.15746021  1
  In  In61  1  0.32921489  0.01529577  0.67032313  1
  In  In62  1  0.02469142  0.48613141  0.50596317  1
  In  In63  1  0.00265506  0.33492806  0.35052708  1
  In  In64  1  0.84631607  0.33066483  0.83961471  1
  In  In65  1  0.50846773  0.13256909  0.35520552  1
  In  In66  1  0.86528099  0.30870467  0.12780909  1
  In  In67  1  0.67953520  0.81863812  0.51960667  1
  In  In68  1  0.66873587  0.16115969  0.17652510  1
  In  In69  1  0.18832374  0.86501445  0.36680367  1
  In  In70  1  0.66601866  0.14640396  0.51081016  1
  In  In71  1  0.48390065  0.33306843  0.15928447  1
  Te  Te72  1  0.06377452  0.11159749  0.08179709  1
  Te  Te73  1  0.08711350  0.07187440  0.42246080  1
  Te  Te74  1  0.07779040  0.08013888  0.73788839  1
  Te  Te75  1  0.05795369  0.40389045  0.06817513  1
  Te  Te76  1  0.11190228  0.41765873  0.40510948  1
  Te  Te77  1  0.10795129  0.43359469  0.71755194  1
  Te  Te78  1  0.08937401  0.76459509  0.07833211  1
  Te  Te79  1  0.09807118  0.75406394  0.40324505  1
  Te  Te80  1  0.07574155  0.74799435  0.75036133  1
  Te  Te81  1  0.42838170  0.06246732  0.08877317  1
  Te  Te82  1  0.39003555  0.07289947  0.42211643  1
  Te  Te83  1  0.42795103  0.06318489  0.77125299  1
  Te  Te84  1  0.38369441  0.43079044  0.10093483  1
  Te  Te85  1  0.41989868  0.41274575  0.42757046  1
  Te  Te86  1  0.39731753  0.39358831  0.71954753  1
  Te  Te87  1  0.42399597  0.76474572  0.06308616  1
  Te  Te88  1  0.39142965  0.77535258  0.43325948  1
  Te  Te89  1  0.42227793  0.74082915  0.75638918  1
  Te  Te90  1  0.75624783  0.10196849  0.06849616  1
  Te  Te91  1  0.76062397  0.09043049  0.40436399  1
  Te  Te92  1  0.72723223  0.08414312  0.74576388  1
  Te  Te93  1  0.74823776  0.41717239  0.09969679  1
  Te  Te94  1  0.78766131  0.40774915  0.43462661  1
  Te  Te95  1  0.75083879  0.42870827  0.76534679  1
  Te  Te96  1  0.69127797  0.78125985  0.07121307  1
  Te  Te97  1  0.75208781  0.75588013  0.40292314  1
  Te  Te98  1  0.72689365  0.77706175  0.78295159  1
  Te  Te99  1  0.07849203  0.24469526  0.25093014  1
  Te  Te100  1  0.10324270  0.27203496  0.58148215  1
  Te  Te101  1  0.07840740  0.26361452  0.92609408  1
  Te  Te102  1  0.07858364  0.58875785  0.26268687  1
  Te  Te103  1  0.09922022  0.59944443  0.56887117  1
  Te  Te104  1  0.08938830  0.56377996  0.91791773  1
  Te  Te105  1  0.08829322  0.91305825  0.24724582  1
  Te  Te106  1  0.07319862  0.93281709  0.58512259  1
  Te  Te107  1  0.08614295  0.91376361  0.92085129  1
  Te  Te108  1  0.42555946  0.24193788  0.26799445  1
  Te  Te109  1  0.38254433  0.22613342  0.57301720  1
  Te  Te110  1  0.41421125  0.23168152  0.91001265  1
  Te  Te111  1  0.40354862  0.60307629  0.22133073  1
  Te  Te112  1  0.40932876  0.58203264  0.57338314  1
  Te  Te113  1  0.41305447  0.58957671  0.90815037  1
  Te  Te114  1  0.41786564  0.93018634  0.26088991  1
  Te  Te115  1  0.40021528  0.90247582  0.60391449  1
  Te  Te116  1  0.44949752  0.93402135  0.89791042  1
  Te  Te117  1  0.77063018  0.25265141  0.24193394  1
  Te  Te118  1  0.75988393  0.24697526  0.57615843  1
  Te  Te119  1  0.75791480  0.23137443  0.90512236  1
  Te  Te120  1  0.78491100  0.62954482  0.22080573  1
  Te  Te121  1  0.75033137  0.58401525  0.59399275  1
  Te  Te122  1  0.74519645  0.58410803  0.91380595  1
  Te  Te123  1  0.77664210  0.91155635  0.24244549  1
  Te  Te124  1  0.73419519  0.94065144  0.59694504  1
  Te  Te125  1  0.76287673  0.90644479  0.93209042  1
  Te  Te126  1  0.24352637  0.24960518  0.08921089  1
  Te  Te127  1  0.25941848  0.24657244  0.43964079  1
  Te  Te128  1  0.25939593  0.23096909  0.77290168  1
  Te  Te129  1  0.21748307  0.56584587  0.06696228  1
  Te  Te130  1  0.24097868  0.56203266  0.41269014  1
  Te  Te131  1  0.23853248  0.56289284  0.73164777  1
  Te  Te132  1  0.24979703  0.91667282  0.07093988  1
  Te  Te133  1  0.26201032  0.95687371  0.45525293  1
  Te  Te134  1  0.24495796  0.90605065  0.76080318  1
  Te  Te135  1  0.58436358  0.25355450  0.07618166  1
  Te  Te136  1  0.59896479  0.25353937  0.40764553  1
  Te  Te137  1  0.58737598  0.24386167  0.76342715  1
  Te  Te138  1  0.59480491  0.59234920  0.06466576  1
  Te  Te139  1  0.59062516  0.58864916  0.42727789  1
  Te  Te140  1  0.59417029  0.59473320  0.76093963  1
  Te  Te141  1  0.58835259  0.89093107  0.09018990  1
  Te  Te142  1  0.58832967  0.91026704  0.42436438  1
  Te  Te143  1  0.62015282  0.86976354  0.72671139  1
  Te  Te144  1  0.95791475  0.22683824  0.04711299  1
  Te  Te145  1  0.91299637  0.23388481  0.41040199  1
  Te  Te146  1  0.93621209  0.26861408  0.73225681  1
  Te  Te147  1  0.91592395  0.59972236  0.07827083  1
  Te  Te148  1  0.93700314  0.57633854  0.40557580  1
  Te  Te149  1  0.94464964  0.55805756  0.77419132  1
  Te  Te150  1  0.90431940  0.89903240  0.07572519  1
  Te  Te151  1  0.90864421  0.90220885  0.39540144  1
  Te  Te152  1  0.92758692  0.92603750  0.73498169  1
  Te  Te153  1  0.24968855  0.07146213  0.25113312  1
  Te  Te154  1  0.22597832  0.06029148  0.56895905  1
  Te  Te155  1  0.24245057  0.10415393  0.93506238  1
  Te  Te156  1  0.24286137  0.43946747  0.25114271  1
  Te  Te157  1  0.20907370  0.39421496  0.60949959  1
  Te  Te158  1  0.23750813  0.41615340  0.91734652  1
  Te  Te159  1  0.25288942  0.75918559  0.25870062  1
  Te  Te160  1  0.23736000  0.74066990  0.55717157  1
  Te  Te161  1  0.24171776  0.75495654  0.92735548  1
  Te  Te162  1  0.57537393  0.05922410  0.23859229  1
  Te  Te163  1  0.56340585  0.08012645  0.59803755  1
  Te  Te164  1  0.58862618  0.05569788  0.89482693  1
  Te  Te165  1  0.57423833  0.42428365  0.25254176  1
  Te  Te166  1  0.57438400  0.41456095  0.59848957  1
  Te  Te167  1  0.58220062  0.42345940  0.91503413  1
  Te  Te168  1  0.60900470  0.78747993  0.23414426  1
  Te  Te169  1  0.54954850  0.79109846  0.60801500  1
  Te  Te170  1  0.60355038  0.78939841  0.94846746  1
  Te  Te171  1  0.92306980  0.11170235  0.24141392  1
  Te  Te172  1  0.92081331  0.08002305  0.58638453  1
  Te  Te173  1  0.90909347  0.08121032  0.90722829  1
  Te  Te174  1  0.90668805  0.41334356  0.24120813  1
  Te  Te175  1  0.92925088  0.39941476  0.58023221  1
  Te  Te176  1  0.93738861  0.40363611  0.93405758  1
  Te  Te177  1  0.89952382  0.72971215  0.26165308  1
  Te  Te178  1  0.90567767  0.74995644  0.57876346  1
  Te  Te179  1  0.89146587  0.74480592  0.92296545  1
