# generated using pymatgen
data_In2Te3
_symmetry_space_group_name_H-M   'P 1'
_cell_length_a   18.73964820
_cell_length_b   18.74284722
_cell_length_c   18.74742730
_cell_angle_alpha   89.93534155
_cell_angle_beta   90.06207388
_cell_angle_gamma   90.04360789
_symmetry_Int_Tables_number   1
_chemical_formula_structural   In2Te3
_chemical_formula_sum   'In72 Te108'
_cell_volume   6584.73073098
_cell_formula_units_Z   36
loop_
 _symmetry_equiv_pos_site_id
 _symmetry_equiv_pos_as_xyz
  1  'x, y, z'
loop_
 _atom_site_type_symbol
 _atom_site_label
 _atom_site_symmetry_multiplicity
 _atom_site_fract_x
 _atom_site_fract_y
 _atom_site_fract_z
 _atom_site_occupancy
  In  In0  1  0.80854033  0.50782590  0.33661760  1
  In  In1  1  0.17400598  0.33800913  0.16901481  1
  In  In2  1  0.50975291  0.67572250  0.47730884  1
  In  In3  1  0.00663242  -0.01896502  0.34442174  1
  In  In4  1  0.18933721  0.31661042  0.48693417  1
  In  In5  1  0.64052803  0.34055241  0.66982311  1
  In  In6  1  0.85128565  0.81421814  0.64049895  1
  In  In7  1  0.34641237  -0.00475594  0.00224385  1
  In  In8  1  0.16467241  0.16057809  0.68519007  1
  In  In9  1  0.51325166  0.33471679  0.49857362  1
  In  In10  1  0.00612239  0.33019630  0.00494950  1
  In  In11  1  0.84269734  -0.00664412  0.47525993  1
  In  In12  1  0.66406492  0.84997233  0.84870974  1
  In  In13  1  0.16025722  0.67557903  0.81814610  1
  In  In14  1  0.17382952  0.50331946  0.32014974  1
  In  In15  1  0.34069526  0.65488693  -0.00216573  1
  In  In16  1  0.81273720  -0.00547487  0.16442413  1
  In  In17  1  0.67279083  0.49285245  0.16573056  1
  In  In18  1  0.67290829  0.81914976  0.47158612  1
  In  In19  1  -0.00491267  0.52468785  0.49003188  1
  In  In20  1  0.33550094  0.50706277  0.83051566  1
  In  In21  1  0.65984331  0.65438779  0.65684975  1
  In  In22  1  0.83938994  0.65957156  0.82537034  1
  In  In23  1  0.02357230  -0.02857314  0.67323759  1
  In  In24  1  0.83845825  0.67261165  0.17352563  1
  In  In25  1  0.66891455  -0.00999876  0.69004473  1
  In  In26  1  0.36013541  0.33845798  0.04072255  1
  In  In27  1  -0.00092554  0.15283590  0.48198592  1
  In  In28  1  0.15937891  -0.00235307  0.84083469  1
  In  In29  1  0.17270301  -0.02381617  0.48494160  1
  In  In30  1  0.01443799  0.16578843  0.14737798  1
  In  In31  1  0.81734213  0.52757276  0.65852221  1
  In  In32  1  0.16837175  0.51879140  0.64998605  1
  In  In33  1  0.33216426  -0.00677328  0.32284272  1
  In  In34  1  0.66883403  0.67724479  0.00936073  1
  In  In35  1  0.33790075  0.82583832  0.18135595  1
  In  In36  1  0.33852502  0.67888501  0.34071422  1
  In  In37  1  0.51104363  0.34792281  0.83890608  1
  In  In38  1  0.34189638  0.16931968  0.17573275  1
  In  In39  1  0.34723308  -0.01853847  0.64921828  1
  In  In40  1  0.79741865  0.30705956  0.86856198  1
  In  In41  1  -0.01102558  0.32534404  0.32602943  1
  In  In42  1  0.66975788  0.16578430  0.48553447  1
  In  In43  1  0.52061338  0.00577042  0.84932356  1
  In  In44  1  0.34653110  0.15455944  0.47565468  1
  In  In45  1  0.17895502  0.85457427  -0.00158659  1
  In  In46  1  0.65619631  0.50211109  0.83836485  1
  In  In47  1  -0.02481443  0.48842642  0.82589692  1
  In  In48  1  0.37559083  0.82929509  0.81633521  1
  In  In49  1  0.63933157  0.85668898  0.15960958  1
  In  In50  1  -0.00438634  0.84988710  0.17028676  1
  In  In51  1  0.49469523  -0.02488612  0.49388212  1
  In  In52  1  0.50505719  0.51132849  0.66662437  1
  In  In53  1  0.17954496  0.82479818  0.62995169  1
  In  In54  1  -0.02856784  0.67220212  0.00906672  1
  In  In55  1  0.83541361  0.16205214  0.33722476  1
  In  In56  1  0.16045150  0.49608640  0.00235170  1
  In  In57  1  0.31019591  0.16626589  0.83226501  1
  In  In58  1  0.83777930  0.17857195  0.67243604  1
  In  In59  1  0.50623731  0.15979463  0.00650187  1
  In  In60  1  0.50217742  0.18106607  0.66863506  1
  In  In61  1  0.51534729  0.67113463  0.18542933  1
  In  In62  1  0.34931884  0.51614757  0.48856329  1
  In  In63  1  0.50863850  0.50609858  0.32980993  1
  In  In64  1  0.16827282  0.65636323  0.17193742  1
  In  In65  1  0.66224169  0.36112959  0.32442083  1
  In  In66  1  -0.00711157  0.34657093  0.66866852  1
  In  In67  1  0.84683794  0.01639148  0.87834267  1
  In  In68  1  0.63756259  0.13592244  0.17941165  1
  In  In69  1  0.01184761  0.84116259  0.84317194  1
  In  In70  1  0.15547831  0.30645264  0.85223401  1
  In  In71  1  0.82741499  0.34895700  0.16225270  1
  Te  Te72  1  0.06496466  0.05930467  0.05929126  1
  Te  Te73  1  0.10917644  0.08924833  0.40308203  1
  Te  Te74  1  0.05788631  0.08834726  0.76513662  1
  Te  Te75  1  0.06850620  0.43000199  0.10404733  1
  Te  Te76  1  0.08487109  0.41077168  0.42168202  1
  Te  Te77  1  0.10058979  0.42534880  0.75872366  1
  Te  Te78  1  0.09294728  0.74596906  0.06923203  1
  Te  Te79  1  0.07304457  0.75734949  0.47506426  1
  Te  Te80  1  0.07424410  0.76293550  0.72826100  1
  Te  Te81  1  0.43703067  0.06475471  0.10635175  1
  Te  Te82  1  0.45204386  0.08587514  0.38902177  1
  Te  Te83  1  0.41156174  0.07853984  0.75474396  1
  Te  Te84  1  0.44687803  0.43507721  0.10664275  1
  Te  Te85  1  0.41446346  0.40713558  0.40506605  1
  Te  Te86  1  0.41516000  0.41075264  0.73763122  1
  Te  Te87  1  0.42634505  0.74777704  0.08431985  1
  Te  Te88  1  0.42771394  0.77807425  0.40531244  1
  Te  Te89  1  0.41355993  0.71388714  0.73850309  1
  Te  Te90  1  0.74594471  0.10040915  0.07984342  1
  Te  Te91  1  0.73309952  0.06273330  0.39226088  1
  Te  Te92  1  0.75931555  0.08560931  0.76541481  1
  Te  Te93  1  0.73040123  0.40209400  0.06168997  1
  Te  Te94  1  0.75071810  0.40930561  0.43188982  1
  Te  Te95  1  0.75529940  0.41694456  0.75077401  1
  Te  Te96  1  0.75459046  0.77064439  0.09055060  1
  Te  Te97  1  0.78113567  0.72246965  0.43937794  1
  Te  Te98  1  0.74634323  0.75370447  0.74593062  1
  Te  Te99  1  0.09275528  0.23968064  0.25605236  1
  Te  Te100  1  0.07958594  0.25045945  0.58380410  1
  Te  Te101  1  0.06503857  0.21306147  0.92715298  1
  Te  Te102  1  0.07070556  0.59420094  0.26424266  1
  Te  Te103  1  0.08340837  0.61596324  0.57406509  1
  Te  Te104  1  0.07477659  0.58578037  0.91053005  1
  Te  Te105  1  0.10093080  0.91033894  0.25551754  1
  Te  Te106  1  0.05190041  0.89868763  0.54178049  1
  Te  Te107  1  0.05911584  0.94252082  0.95142292  1
  Te  Te108  1  0.38477582  0.26811414  0.27657247  1
  Te  Te109  1  0.40615278  0.25509608  0.57703769  1
  Te  Te110  1  0.41344251  0.24719096  0.91218432  1
  Te  Te111  1  0.40513466  0.58229696  0.24521475  1
  Te  Te112  1  0.41939303  0.61131791  0.58677092  1
  Te  Te113  1  0.43283704  0.56476205  0.92509661  1
  Te  Te114  1  0.43625002  0.92018146  0.24260257  1
  Te  Te115  1  0.40931607  0.87619279  0.56768153  1
  Te  Te116  1  0.45687520  0.90387206  0.94760332  1
  Te  Te117  1  0.74591942  0.24916456  0.24948326  1
  Te  Te118  1  0.74134407  0.25878720  0.58466025  1
  Te  Te119  1  0.72757492  0.20520897  0.94997360  1
  Te  Te120  1  0.72427101  0.60572000  0.25344561  1
  Te  Te121  1  0.75458325  0.60948067  0.54703392  1
  Te  Te122  1  0.75633255  0.58087520  0.92472395  1
  Te  Te123  1  0.74784601  0.89796607  0.25622318  1
  Te  Te124  1  0.74586030  0.91946587  0.57729682  1
  Te  Te125  1  0.74489862  0.93010558  0.94410322  1
  Te  Te126  1  0.24487126  0.24385329  0.07258648  1
  Te  Te127  1  0.26722366  0.24324853  0.38039281  1
  Te  Te128  1  0.25511523  0.27215781  0.73742659  1
  Te  Te129  1  0.26202994  0.56448478  0.09365672  1
  Te  Te130  1  0.23435159  0.59971286  0.42820109  1
  Te  Te131  1  0.26699099  0.60644810  0.73290855  1
  Te  Te132  1  0.25135936  0.93161925  0.10598246  1
  Te  Te133  1  0.27623054  0.89302360  0.42072983  1
  Te  Te134  1  0.24512599  0.91233061  0.74793002  1
  Te  Te135  1  0.56638337  0.24756966  0.11025820  1
  Te  Te136  1  0.58042743  0.24763400  0.39296168  1
  Te  Te137  1  0.59726520  0.23639356  0.77349084  1
  Te  Te138  1  0.57629847  0.57736915  0.08038284  1
  Te  Te139  1  0.60396201  0.57882395  0.41658997  1
  Te  Te140  1  0.56596765  0.60663860  0.77083874  1
  Te  Te141  1  0.55317526  0.93764569  0.06962025  1
  Te  Te142  1  0.58957821  0.91694428  0.39239981  1
  Te  Te143  1  0.55673591  0.90318472  0.74158112  1
  Te  Te144  1  0.90126452  0.24369444  0.07984500  1
  Te  Te145  1  0.90127481  0.26080969  0.43439419  1
  Te  Te146  1  0.91547089  0.26499767  0.77157086  1
  Te  Te147  1  0.90075195  0.56924962  0.08543117  1
  Te  Te148  1  0.91103719  0.60344038  0.39386812  1
  Te  Te149  1  0.93751531  0.59738736  0.72629353  1
  Te  Te150  1  0.90444482  0.91775213  0.07556058  1
  Te  Te151  1  0.89412874  0.88870816  0.38266230  1
  Te  Te152  1  0.90354663  0.91663479  0.75361290  1
  Te  Te153  1  0.24223485  0.07862203  0.24064093  1
  Te  Te154  1  0.24802470  0.08536998  0.58051123  1
  Te  Te155  1  0.23940442  0.08537996  0.93922397  1
  Te  Te156  1  0.27155931  0.41718623  0.24873525  1
  Te  Te157  1  0.25996600  0.42206488  0.57369414  1
  Te  Te158  1  0.25720772  0.40767971  0.92351394  1
  Te  Te159  1  0.22834038  0.75882276  0.26784169  1
  Te  Te160  1  0.23358408  0.72539242  0.53683727  1
  Te  Te161  1  0.25650327  0.75514816  0.91139138  1
  Te  Te162  1  0.56447577  0.05480209  0.28047764  1
  Te  Te163  1  0.57943770  0.07828800  0.58467493  1
  Te  Te164  1  0.61697762  0.08921777  0.92911771  1
  Te  Te165  1  0.55089558  0.39922118  0.21935742  1
  Te  Te166  1  0.59799813  0.44469949  0.56522539  1
  Te  Te167  1  0.60205103  0.40617335  0.94038401  1
  Te  Te168  1  0.59597933  0.76182882  0.26935023  1
  Te  Te169  1  0.58366038  0.76347314  0.58302136  1
  Te  Te170  1  0.57883062  0.74847725  0.91497891  1
  Te  Te171  1  0.92691727  0.07927436  0.24866164  1
  Te  Te172  1  0.91828091  0.07625336  0.58777822  1
  Te  Te173  1  0.94102521  0.11087220  0.94368954  1
  Te  Te174  1  0.91695748  0.43495748  0.25062895  1
  Te  Te175  1  0.90656859  0.43018144  0.57644885  1
  Te  Te176  1  0.89861133  0.41201861  0.92971502  1
  Te  Te177  1  0.92864921  0.75327333  0.26253920  1
  Te  Te178  1  0.93324714  0.73712420  0.54501586  1
  Te  Te179  1  0.89789400  0.76849766  0.91656069  1
