# generated using pymatgen
data_In2Te3
_symmetry_space_group_name_H-M   'P 1'
_cell_length_a   18.76197406
_cell_length_b   18.75389427
_cell_length_c   18.76170124
_cell_angle_alpha   89.98143119
_cell_angle_beta   90.02883129
_cell_angle_gamma   89.93388089
_symmetry_Int_Tables_number   1
_chemical_formula_structural   In2Te3
_chemical_formula_sum   'In72 Te108'
_cell_volume   6601.48808073
_cell_formula_units_Z   36
loop_
 _symmetry_equiv_pos_site_id
 _symmetry_equiv_pos_as_xyz
  1  'x, y, z'
loop_
 _atom_site_type_symbol
 _atom_site_label
 _atom_site_symmetry_multiplicity
 _atom_site_fract_x
 _atom_site_fract_y
 _atom_site_fract_z
 _atom_site_occupancy
  In  In0  1  0.18436982  0.15366413  0.65642591  1
  In  In1  1  0.33593035  0.66707727  0.32873039  1
  In  In2  1  0.85777424  0.67986939  0.52368667  1
  In  In3  1  0.16013074  0.68753809  0.84911073  1
  In  In4  1  0.50530510  0.85640467  0.31918422  1
  In  In5  1  0.67524064  0.31508953  0.63803465  1
  In  In6  1  0.17792961  0.82577313  -0.02255895  1
  In  In7  1  0.36630508  0.46896214  0.13159265  1
  In  In8  1  0.82007082  0.67753161  0.17566928  1
  In  In9  1  0.49978221  0.66713534  0.50271948  1
  In  In10  1  0.48756088  0.51873999  0.65675719  1
  In  In11  1  0.46784055  0.83270636  0.69519376  1
  In  In12  1  0.85366046  0.32160541  0.83250253  1
  In  In13  1  0.00481060  0.15057840  0.51478334  1
  In  In14  1  0.30314648  0.84522591  0.52651926  1
  In  In15  1  0.49944326  0.47844636  0.32820970  1
  In  In16  1  0.47897649  0.13936242  0.33133406  1
  In  In17  1  0.83312434  0.31820761  0.46260700  1
  In  In18  1  0.01788564  0.32346001  0.67768923  1
  In  In19  1  0.04458677  0.86356878  0.52041540  1
  In  In20  1  -0.00266320  0.47992850  0.82686725  1
  In  In21  1  0.16825429  0.67629087  0.18060154  1
  In  In22  1  0.65787504  0.84224558  0.15421630  1
  In  In23  1  0.16616408  0.30999557  0.18215684  1
  In  In24  1  0.48077672  0.85131103  -0.00370562  1
  In  In25  1  0.71023753  0.48441584  0.47979893  1
  In  In26  1  0.34373845  0.01090926  0.66216404  1
  In  In27  1  0.62298475  0.28812470  0.00494888  1
  In  In28  1  0.17023876  0.01398267  0.15937954  1
  In  In29  1  0.66450701  0.68245248  0.32179774  1
  In  In30  1  0.67644955  0.16833327  0.48532808  1
  In  In31  1  0.66312357  0.68075722  0.70330040  1
  In  In32  1  -0.02959249  0.66766318  -0.01948518  1
  In  In33  1  0.49216784  0.31597520  0.51723192  1
  In  In34  1  0.84284290  0.17189155  0.02039360  1
  In  In35  1  0.50079590  0.31467613  0.85792793  1
  In  In36  1  0.67394268  0.86692102  0.85506542  1
  In  In37  1  0.64756161  0.66733517  0.00532377  1
  In  In38  1  0.01862671  0.48761495  0.17520840  1
  In  In39  1  0.65791521  0.48785208  0.15941755  1
  In  In40  1  0.47877052  0.16709943  0.66960768  1
  In  In41  1  -0.00718543  0.32499804  0.33784392  1
  In  In42  1  0.66209240  0.00933793  0.66459333  1
  In  In43  1  0.85823052  0.45573151  0.34066762  1
  In  In44  1  0.33250719  0.01243145  -0.00113034  1
  In  In45  1  0.84570605  0.50999809  0.66086089  1
  In  In46  1  0.80693775  0.48264750  0.01170667  1
  In  In47  1  0.18394912  0.17633372  0.36983650  1
  In  In48  1  0.33774531  0.50349248  0.85271529  1
  In  In49  1  -0.00645980  -0.01236152  -0.00094884  1
  In  In50  1  0.01680751  0.14338028  0.83383185  1
  In  In51  1  0.66125562  0.12747238  0.84279336  1
  In  In52  1  0.35118212  0.50465959  0.50396835  1
  In  In53  1  0.16447628  0.15482322  -0.01102100  1
  In  In54  1  0.84562774  0.85101281  0.32332711  1
  In  In55  1  0.18664169  0.49998996  0.32560075  1
  In  In56  1  0.64514670  0.85129028  0.47779294  1
  In  In57  1  0.00140123  0.85167700  0.16132366  1
  In  In58  1  0.81664805  0.69951659  0.84797661  1
  In  In59  1  0.63523608  0.48648117  0.81546836  1
  In  In60  1  0.00846427  0.49240041  0.49160039  1
  In  In61  1  0.34656499  0.14531467  0.15601650  1
  In  In62  1  0.00176355  0.86022162  0.79930145  1
  In  In63  1  0.16254585  0.83817892  0.34853530  1
  In  In64  1  0.81838551  0.04029038  0.18572506  1
  In  In65  1  0.00777414  0.69150720  0.67297262  1
  In  In66  1  0.50441147  0.00522275  0.16175129  1
  In  In67  1  0.33298317  0.31226539  0.67048195  1
  In  In68  1  0.83664500  0.01533030  0.49279685  1
  In  In69  1  0.15689518  0.49921880  0.67103944  1
  In  In70  1  0.32900298  0.68069994  -0.00144987  1
  In  In71  1  0.18751910  0.47139304  -0.00339846  1
  Te  Te72  1  0.06245682  0.09218524  0.08599889  1
  Te  Te73  1  0.09340326  0.07249845  0.42641071  1
  Te  Te74  1  0.08669093  0.05955307  0.72660180  1
  Te  Te75  1  0.08558295  0.39095215  0.07822428  1
  Te  Te76  1  0.10266970  0.40384249  0.41203430  1
  Te  Te77  1  0.11241737  0.39350033  0.77460480  1
  Te  Te78  1  0.08064427  0.74564344  0.07240789  1
  Te  Te79  1  0.07631186  0.75041712  0.42982924  1
  Te  Te80  1  0.12716985  0.77591911  0.72168915  1
  Te  Te81  1  0.45024545  0.11730337  0.02973881  1
  Te  Te82  1  0.38988305  0.09566976  0.44390892  1
  Te  Te83  1  0.41108617  0.08680601  0.77284606  1
  Te  Te84  1  0.43423898  0.35779213  0.05552304  1
  Te  Te85  1  0.40080391  0.39497303  0.40958330  1
  Te  Te86  1  0.42957202  0.40624637  0.74507542  1
  Te  Te87  1  0.40724880  0.76451143  0.09132253  1
  Te  Te88  1  0.41823564  0.76327492  0.41648696  1
  Te  Te89  1  0.38704194  0.73287365  0.76436430  1
  Te  Te90  1  0.72741857  0.11734883  0.09708359  1
  Te  Te91  1  0.73502918  0.06579752  0.39544450  1
  Te  Te92  1  0.76495029  0.06713374  0.75570831  1
  Te  Te93  1  0.73011634  0.37478544  0.08487668  1
  Te  Te94  1  0.71949171  0.37567923  0.36679807  1
  Te  Te95  1  0.75281417  0.41257996  0.74804456  1
  Te  Te96  1  0.75378667  0.75924591  0.06644717  1
  Te  Te97  1  0.76030231  0.75154742  0.42014801  1
  Te  Te98  1  0.75925300  0.79068870  0.74217783  1
  Te  Te99  1  0.07482490  0.21938053  0.26045584  1
  Te  Te100  1  0.10288663  0.25571736  0.57214466  1
  Te  Te101  1  0.07203842  0.24973170  0.91942724  1
  Te  Te102  1  0.07667927  0.59276557  0.27055778  1
  Te  Te103  1  0.08162286  0.59431831  0.57776262  1
  Te  Te104  1  0.08519548  0.57093871  0.92526313  1
  Te  Te105  1  0.08006508  0.93711688  0.25674757  1
  Te  Te106  1  0.12392939  0.95393386  0.61282838  1
  Te  Te107  1  0.09651309  0.92942454  0.90099571  1
  Te  Te108  1  0.40894453  0.24429546  0.24781296  1
  Te  Te109  1  0.36762780  0.22088645  0.53817774  1
  Te  Te110  1  0.40375765  0.24115247  0.94318289  1
  Te  Te111  1  0.41590951  0.57147892  0.24003806  1
  Te  Te112  1  0.38911351  0.62118724  0.59844476  1
  Te  Te113  1  0.42376318  0.58006851  0.94481679  1
  Te  Te114  1  0.40487645  0.93839612  0.24762189  1
  Te  Te115  1  0.42989786  0.91641609  0.57370860  1
  Te  Te116  1  0.41014202  0.93546015  0.89612146  1
  Te  Te117  1  0.78543226  0.25749811  0.29368887  1
  Te  Te118  1  0.78311920  0.22681784  0.58006247  1
  Te  Te119  1  0.74090888  0.24892205  0.90547184  1
  Te  Te120  1  0.75440639  0.56740938  0.25906649  1
  Te  Te121  1  0.73615568  0.60090230  0.59029976  1
  Te  Te122  1  0.74175331  0.57644362  0.90682222  1
  Te  Te123  1  0.73182094  0.92553071  0.25758694  1
  Te  Te124  1  0.74425068  0.91892443  0.57183021  1
  Te  Te125  1  0.78913589  0.90881124  0.93478499  1
  Te  Te126  1  0.25443539  0.24136181  0.07891367  1
  Te  Te127  1  0.27858674  0.27730992  0.42063140  1
  Te  Te128  1  0.26113121  0.22281454  0.76405876  1
  Te  Te129  1  0.24738303  0.57452071  0.09725187  1
  Te  Te130  1  0.24820710  0.59366631  0.42974623  1
  Te  Te131  1  0.24189772  0.58450164  0.76496072  1
  Te  Te132  1  0.25223841  0.91066253  0.08204084  1
  Te  Te133  1  0.24673577  0.93555833  0.42373319  1
  Te  Te134  1  0.23994185  0.91225775  0.70853020  1
  Te  Te135  1  0.54064725  0.26725195  0.13053576  1
  Te  Te136  1  0.57036789  0.24617184  0.40802333  1
  Te  Te137  1  0.59041868  0.24526173  0.74497337  1
  Te  Te138  1  0.56461558  0.58117220  0.09157835  1
  Te  Te139  1  0.58537065  0.57701121  0.41077063  1
  Te  Te140  1  0.54851448  0.60445050  0.77006900  1
  Te  Te141  1  0.59982114  0.94407214  0.05639611  1
  Te  Te142  1  0.57313539  0.95744689  0.40506211  1
  Te  Te143  1  0.57109657  0.92920958  0.75806766  1
  Te  Te144  1  0.91817899  0.26089018  0.10913056  1
  Te  Te145  1  0.89828343  0.19772853  0.38097671  1
  Te  Te146  1  0.92000149  0.22472426  0.73724915  1
  Te  Te147  1  0.90993615  0.57451746  0.09292604  1
  Te  Te148  1  0.91008866  0.58212153  0.41763943  1
  Te  Te149  1  0.92006828  0.60426231  0.76889574  1
  Te  Te150  1  0.88840553  0.92987243  0.09709342  1
  Te  Te151  1  0.93611463  0.92316546  0.41954473  1
  Te  Te152  1  0.91563461  0.96219432  0.73607800  1
  Te  Te153  1  0.25491756  0.08505474  0.26345465  1
  Te  Te154  1  0.26073070  0.07445994  0.54935006  1
  Te  Te155  1  0.24240203  0.07080264  0.89454168  1
  Te  Te156  1  0.26960000  0.40854395  0.23657326  1
  Te  Te157  1  0.25545138  0.41688915  0.58786801  1
  Te  Te158  1  0.27022688  0.38488052  0.91029862  1
  Te  Te159  1  0.26178170  0.77408514  0.24776266  1
  Te  Te160  1  0.23623580  0.74687771  0.61088914  1
  Te  Te161  1  0.28864313  0.77825059  0.87606446  1
  Te  Te162  1  0.59051209  0.09821117  0.23781422  1
  Te  Te163  1  0.57216147  0.09430959  0.57492089  1
  Te  Te164  1  0.57380514  0.06723801  0.94437110  1
  Te  Te165  1  0.57158899  0.38623507  0.23454564  1
  Te  Te166  1  0.58620941  0.42921330  0.57470013  1
  Te  Te167  1  0.57327615  0.42372807  0.93771887  1
  Te  Te168  1  0.56447807  0.74521795  0.22750934  1
  Te  Te169  1  0.58419874  0.75910136  0.59197941  1
  Te  Te170  1  0.57509008  0.76222722  0.91108069  1
  Te  Te171  1  0.92852997  0.10285175  0.25938695  1
  Te  Te172  1  0.93194284  0.05154408  0.60625372  1
  Te  Te173  1  0.90345573  0.07904903  0.91578239  1
  Te  Te174  1  0.90581225  0.38068893  0.21138732  1
  Te  Te175  1  0.91888918  0.40109893  0.57662160  1
  Te  Te176  1  0.92147945  0.40755281  0.93892150  1
  Te  Te177  1  0.93290510  0.74705758  0.25198339  1
  Te  Te178  1  0.92431058  0.79407297  0.59740304  1
  Te  Te179  1  0.91364668  0.79887087  0.91810826  1
