# generated using pymatgen
data_In2Te3
_symmetry_space_group_name_H-M   'P 1'
_cell_length_a   18.89949665
_cell_length_b   18.90991199
_cell_length_c   18.92282192
_cell_angle_alpha   90.13473571
_cell_angle_beta   90.21138177
_cell_angle_gamma   90.12481840
_symmetry_Int_Tables_number   1
_chemical_formula_structural   In2Te3
_chemical_formula_sum   'In72 Te108'
_cell_volume   6762.70514194
_cell_formula_units_Z   36
loop_
 _symmetry_equiv_pos_site_id
 _symmetry_equiv_pos_as_xyz
  1  'x, y, z'
loop_
 _atom_site_type_symbol
 _atom_site_label
 _atom_site_symmetry_multiplicity
 _atom_site_fract_x
 _atom_site_fract_y
 _atom_site_fract_z
 _atom_site_occupancy
  In  In0  1  0.69367814  0.67805139  0.68566279  1
  In  In1  1  0.34369533  0.66491306  -0.00681387  1
  In  In2  1  0.15942782  0.65617766  0.16004688  1
  In  In3  1  0.50217235  0.65588837  0.84969630  1
  In  In4  1  0.85231784  0.48163816  0.68503526  1
  In  In5  1  -0.02034185  -0.00939768  0.68833187  1
  In  In6  1  -0.00776331  0.01339040  -0.02014418  1
  In  In7  1  0.66244912  0.37100173  0.28251667  1
  In  In8  1  0.51628967  0.13840140  0.65513795  1
  In  In9  1  0.67860450  0.52064233  0.47195977  1
  In  In10  1  0.01333917  0.48925134  0.84219095  1
  In  In11  1  0.52195860  0.79766777  0.67203746  1
  In  In12  1  0.00257339  0.34616039  0.01223811  1
  In  In13  1  0.49022930  0.33631217  0.47100756  1
  In  In14  1  0.69498961  0.82707857  0.83916395  1
  In  In15  1  0.33219887  0.64058175  0.68571442  1
  In  In16  1  0.15541921  0.85943182  -0.00624302  1
  In  In17  1  0.49943126  0.65148173  0.15391423  1
  In  In18  1  0.02546635  0.32922978  0.66739921  1
  In  In19  1  0.84902471  0.17657724  0.32345575  1
  In  In20  1  0.53755353  0.02938196  0.49983109  1
  In  In21  1  0.33768435  0.47980345  0.48904178  1
  In  In22  1  -0.03206787  0.82476939  0.19397680  1
  In  In23  1  0.54535350  0.64706794  0.49221453  1
  In  In24  1  0.50532813  0.00689416  0.84704335  1
  In  In25  1  0.16920520  0.31782142  0.51670024  1
  In  In26  1  0.01662611  0.50120370  0.50856802  1
  In  In27  1  -0.00610432  0.16854939  0.16038100  1
  In  In28  1  0.49505485  0.31579772  0.84773652  1
  In  In29  1  0.83592073  0.84003427  0.00613246  1
  In  In30  1  0.29651537  0.00603176  0.33184654  1
  In  In31  1  -0.00764755  0.66547230  0.63989464  1
  In  In32  1  0.81894878  -0.03403287  0.50577003  1
  In  In33  1  0.34439661  0.85547367  0.50372249  1
  In  In34  1  0.18442734  0.21783433  -0.00379906  1
  In  In35  1  0.32466513  0.17069063  0.52804326  1
  In  In36  1  -0.03742461  0.66883301  0.03940930  1
  In  In37  1  0.68588105  0.35463110  0.03067375  1
  In  In38  1  0.47065292  0.17121566  0.32672557  1
  In  In39  1  0.65864449  0.16186152  0.50424581  1
  In  In40  1  0.68762554  -0.02049184  0.31153117  1
  In  In41  1  0.35032567  0.35569380  0.02050422  1
  In  In42  1  0.51184032  0.83239153  0.31231276  1
  In  In43  1  0.35201542  0.67330611  0.32855336  1
  In  In44  1  0.34353771  0.01154845  -0.00370421  1
  In  In45  1  0.81579129  0.66869710  0.46874042  1
  In  In46  1  0.17033805  0.51731382  0.31226317  1
  In  In47  1  0.82829781  0.15498564  0.68605109  1
  In  In48  1  0.15467726  0.68626059  0.51191435  1
  In  In49  1  0.15835760  0.67038938  0.83429056  1
  In  In50  1  0.66172281  -0.01499327  0.00482745  1
  In  In51  1  0.66706053  0.51151335  0.85535706  1
  In  In52  1  0.65573683  0.15865040  0.15821282  1
  In  In53  1  0.32661414  0.80969221  0.16044687  1
  In  In54  1  0.82661768  0.32993920  0.85216313  1
  In  In55  1  0.65571765  0.30972860  0.65520475  1
  In  In56  1  0.15881109  0.18360947  0.33396518  1
  In  In57  1  0.34538178  0.35617816  0.30961815  1
  In  In58  1  0.50029169  -0.00853936  0.14043026  1
  In  In59  1  0.15944854  0.01201208  0.84015911  1
  In  In60  1  0.82214971  0.50880731  0.31141143  1
  In  In61  1  0.49217122  0.47164117  0.66938330  1
  In  In62  1  0.29404202  0.30019066  0.71025331  1
  In  In63  1  0.16618927  0.85476710  0.67596514  1
  In  In64  1  0.34653467  -0.01200737  0.67421551  1
  In  In65  1  0.82364334  0.14584985  -0.00173820  1
  In  In66  1  -0.01858581  0.35464812  0.32685673  1
  In  In67  1  0.13986736  0.00849487  0.18545916  1
  In  In68  1  0.70036977  0.65723128  0.01545534  1
  In  In69  1  0.16356366  0.48577050  0.00228820  1
  In  In70  1  0.15652118  0.00581030  0.49396297  1
  In  In71  1  -0.01567657  0.82309240  0.45938437  1
  Te  Te72  1  0.09358832  0.09161324  0.06527500  1
  Te  Te73  1  0.07404009  0.08833597  0.40560166  1
  Te  Te74  1  0.07809411  0.09323621  0.74407203  1
  Te  Te75  1  0.05996731  0.45001892  0.10273072  1
  Te  Te76  1  0.10722412  0.41664203  0.41650127  1
  Te  Te77  1  0.10504207  0.41957783  0.75216380  1
  Te  Te78  1  0.07864076  0.76860330  0.08906466  1
  Te  Te79  1  0.06411376  0.71447049  0.40128609  1
  Te  Te80  1  0.07268492  0.75461195  0.73942325  1
  Te  Te81  1  0.41459409  0.09875672  0.09256033  1
  Te  Te82  1  0.40217175  0.07300145  0.43020013  1
  Te  Te83  1  0.41145627  0.09717198  0.75636100  1
  Te  Te84  1  0.44657578  0.40815809  0.12415597  1
  Te  Te85  1  0.44328781  0.44998977  0.38293286  1
  Te  Te86  1  0.39963213  0.40218269  0.76439431  1
  Te  Te87  1  0.43496107  0.76221870  0.06855654  1
  Te  Te88  1  0.43321929  0.75419312  0.43234835  1
  Te  Te89  1  0.41196947  0.74488815  0.76336840  1
  Te  Te90  1  0.75476838  0.05978744  0.10302941  1
  Te  Te91  1  0.74912870  0.08286542  0.40996033  1
  Te  Te92  1  0.71129857  0.09971019  0.75269187  1
  Te  Te93  1  0.78221790  0.44186646  0.10351071  1
  Te  Te94  1  0.75041680  0.40636489  0.40312596  1
  Te  Te95  1  0.73116932  0.40771222  0.74824042  1
  Te  Te96  1  0.73083638  0.78171449  0.09439239  1
  Te  Te97  1  0.76640968  0.77319280  0.37518497  1
  Te  Te98  1  0.79755725  0.77189292  0.74178862  1
  Te  Te99  1  0.07498919  0.26908353  0.24089676  1
  Te  Te100  1  0.06790757  0.22688069  0.56850745  1
  Te  Te101  1  0.07670350  0.26937045  0.91114358  1
  Te  Te102  1  0.05919763  0.56972397  0.22821021  1
  Te  Te103  1  0.11044778  0.57405763  0.60406648  1
  Te  Te104  1  0.07114288  0.60047375  0.94097883  1
  Te  Te105  1  0.07103690  0.90609447  0.26332170  1
  Te  Te106  1  0.06665685  0.91088169  0.57590717  1
  Te  Te107  1  0.05768361  0.90898384  0.88937618  1
  Te  Te108  1  0.43994627  0.27595268  0.22551624  1
  Te  Te109  1  0.43833107  0.25331218  0.58759587  1
  Te  Te110  1  0.40412509  0.24498970  0.93731823  1
  Te  Te111  1  0.39416308  0.57689707  0.22721690  1
  Te  Te112  1  0.42646445  0.58077500  0.57487563  1
  Te  Te113  1  0.41735458  0.56057887  0.92085938  1
  Te  Te114  1  0.39798953  0.91696630  0.25531052  1
  Te  Te115  1  0.45470423  0.91854653  0.59234976  1
  Te  Te116  1  0.42576079  0.91247799  0.92769549  1
  Te  Te117  1  0.74596446  0.25349693  0.23740553  1
  Te  Te118  1  0.76388633  0.24770048  0.57313237  1
  Te  Te119  1  0.73085286  0.24459836  0.92810142  1
  Te  Te120  1  0.77405051  0.62202844  0.22736491  1
  Te  Te121  1  0.76427803  0.57490687  0.59277911  1
  Te  Te122  1  0.77194386  0.60398071  0.89687494  1
  Te  Te123  1  0.77463679  0.87317058  0.25556950  1
  Te  Te124  1  0.71327218  0.90900264  0.58839617  1
  Te  Te125  1  0.77031462  0.93942503  0.90876338  1
  Te  Te126  1  0.24350883  0.29404142  0.10905492  1
  Te  Te127  1  0.27731411  0.25870221  0.41197789  1
  Te  Te128  1  0.18318115  0.21149052  0.73807180  1
  Te  Te129  1  0.26053820  0.57432991  0.08307163  1
  Te  Te130  1  0.25462049  0.59172913  0.42793946  1
  Te  Te131  1  0.25428196  0.56935783  0.78559908  1
  Te  Te132  1  0.24666819  0.92465244  0.09829274  1
  Te  Te133  1  0.22936936  0.89627277  0.41417331  1
  Te  Te134  1  0.26180387  0.91580338  0.77668781  1
  Te  Te135  1  0.58434516  0.25731457  0.07661318  1
  Te  Te136  1  0.58772637  0.24740828  0.39713206  1
  Te  Te137  1  0.58848675  0.22630025  0.76141845  1
  Te  Te138  1  0.59415671  0.56767972  0.07228601  1
  Te  Te139  1  0.60353473  0.59406923  0.36679078  1
  Te  Te140  1  0.58220276  0.57835158  0.73348864  1
  Te  Te141  1  0.60308980  0.89221439  0.10667399  1
  Te  Te142  1  0.59234011  0.91498447  0.41197210  1
  Te  Te143  1  0.58383056  0.89967213  0.76585012  1
  Te  Te144  1  0.90030505  0.25217760  0.07686807  1
  Te  Te145  1  0.93447056  0.25064138  0.41832960  1
  Te  Te146  1  0.91625848  0.25971518  0.75444681  1
  Te  Te147  1  0.86086367  0.57954861  0.10136054  1
  Te  Te148  1  0.92027581  0.57122289  0.41553060  1
  Te  Te149  1  0.93027334  0.58874494  0.75598227  1
  Te  Te150  1  0.92731714  0.93104365  0.08830153  1
  Te  Te151  1  0.90837993  0.93039541  0.39449807  1
  Te  Te152  1  0.86973220  0.91172039  0.74036694  1
  Te  Te153  1  0.24928628  0.11014635  0.23491632  1
  Te  Te154  1  0.23963435  0.07222276  0.60379773  1
  Te  Te155  1  0.25321941  0.10371546  0.91627450  1
  Te  Te156  1  0.23638048  0.41450306  0.22696767  1
  Te  Te157  1  0.26451858  0.40384642  0.59830440  1
  Te  Te158  1  0.23259300  0.37951623  0.92566847  1
  Te  Te159  1  0.23448084  0.74478051  0.26129384  1
  Te  Te160  1  0.26688191  0.76079094  0.59728936  1
  Te  Te161  1  0.24573080  0.75965075  0.92335854  1
  Te  Te162  1  0.56821661  0.07299147  0.26261204  1
  Te  Te163  1  0.64582911  0.04633870  0.62038393  1
  Te  Te164  1  0.57505511  0.08848783  0.94749833  1
  Te  Te165  1  0.58246657  0.45331325  0.18943643  1
  Te  Te166  1  0.59023699  0.42051757  0.56022470  1
  Te  Te167  1  0.58090570  0.41548688  0.92891327  1
  Te  Te168  1  0.58775666  0.72107514  0.25449005  1
  Te  Te169  1  0.62719830  0.75296325  0.56843848  1
  Te  Te170  1  0.60280971  0.74055610  0.92309439  1
  Te  Te171  1  0.91636247  0.07501024  0.24174610  1
  Te  Te172  1  0.90227756  0.07030074  0.58372204  1
  Te  Te173  1  0.91376307  0.09960293  0.89155311  1
  Te  Te174  1  0.89018009  0.40886493  0.22095302  1
  Te  Te175  1  0.92069783  0.40549946  0.57543252  1
  Te  Te176  1  0.90203978  0.43502447  0.92934203  1
  Te  Te177  1  0.87921322  0.73060361  0.26969824  1
  Te  Te178  1  0.89731556  0.75671036  0.56483342  1
  Te  Te179  1  0.91743092  0.74810033  0.92498549  1
