# generated using pymatgen
data_In2Te3
_symmetry_space_group_name_H-M   'P 1'
_cell_length_a   18.78219612
_cell_length_b   18.79080735
_cell_length_c   18.78866844
_cell_angle_alpha   90.09580726
_cell_angle_beta   89.85788092
_cell_angle_gamma   90.05746071
_symmetry_Int_Tables_number   1
_chemical_formula_structural   In2Te3
_chemical_formula_sum   'In72 Te108'
_cell_volume   6631.10116933
_cell_formula_units_Z   36
loop_
 _symmetry_equiv_pos_site_id
 _symmetry_equiv_pos_as_xyz
  1  'x, y, z'
loop_
 _atom_site_type_symbol
 _atom_site_label
 _atom_site_symmetry_multiplicity
 _atom_site_fract_x
 _atom_site_fract_y
 _atom_site_fract_z
 _atom_site_occupancy
  In  In0  1  0.46330527  -0.02244072  0.49742553  1
  In  In1  1  0.49814046  0.15498049  0.67005895  1
  In  In2  1  0.30503907  0.17005941  0.84334808  1
  In  In3  1  0.66319333  0.51677470  0.15741162  1
  In  In4  1  0.34044229  0.84096305  0.84574384  1
  In  In5  1  0.49805126  0.50878903  0.33038060  1
  In  In6  1  0.34349261  0.34161469  0.01773994  1
  In  In7  1  0.66393287  0.00830972  0.31737648  1
  In  In8  1  0.85122963  0.01733258  0.52488862  1
  In  In9  1  0.14096745  0.32285061  0.84624043  1
  In  In10  1  0.70441939  0.84354477  0.49734482  1
  In  In11  1  0.67999848  0.32170706  0.00352072  1
  In  In12  1  0.33814948  0.52705590  0.84700601  1
  In  In13  1  0.00989709  0.00808104  0.33687878  1
  In  In14  1  0.52739968  -0.01681103  0.86464679  1
  In  In15  1  -0.01164968  0.17256154  0.15668158  1
  In  In16  1  0.65931802  0.83359700  0.13944436  1
  In  In17  1  0.32971374  0.68916169  0.66935826  1
  In  In18  1  -0.00944296  0.68467833  0.67786870  1
  In  In19  1  0.16545387  0.84662370  -0.00411571  1
  In  In20  1  -0.02832918  0.32274962  0.00192316  1
  In  In21  1  0.31982928  0.49717054  0.49960627  1
  In  In22  1  0.14761302  0.51904451  -0.02559057  1
  In  In23  1  0.84144410  -0.04102701  0.82942024  1
  In  In24  1  0.84039037  0.51943573  0.31339950  1
  In  In25  1  0.16103444  0.67120046  0.48253353  1
  In  In26  1  -0.00642950  0.51200180  0.15148563  1
  In  In27  1  0.16556955  -0.01591785  0.19010099  1
  In  In28  1  0.16777418  0.15391212  -0.02187102  1
  In  In29  1  0.81850208  0.68492430  0.85017567  1
  In  In30  1  0.29881810  0.18211185  0.47633405  1
  In  In31  1  0.48591615  0.51289487  0.01216487  1
  In  In32  1  0.52636160  0.16538330  0.02221414  1
  In  In33  1  0.82760144  0.18763214  0.30477370  1
  In  In34  1  0.34581830  0.81999843  0.16904053  1
  In  In35  1  -0.00869824  0.50342733  0.48421890  1
  In  In36  1  0.67459513  0.66996350  0.66538775  1
  In  In37  1  0.33226333  0.32237975  0.69536158  1
  In  In38  1  0.81203022  0.50360896  0.68043700  1
  In  In39  1  0.36102251  0.49961338  0.17034076  1
  In  In40  1  0.17365733  0.65976480  0.17235372  1
  In  In41  1  0.84471149  0.16131911  0.67332542  1
  In  In42  1  0.68409738  0.36224868  0.66204067  1
  In  In43  1  0.85482817  0.80348882  0.32180542  1
  In  In44  1  0.83640930  0.51358322  -0.01287403  1
  In  In45  1  0.34548654  0.68079405  0.00198204  1
  In  In46  1  0.81342782  -0.01647002  0.12455871  1
  In  In47  1  0.17899293  0.49366092  0.67266388  1
  In  In48  1  0.67856903  0.49314001  0.49156714  1
  In  In49  1  0.67373649  0.51073348  0.81993376  1
  In  In50  1  -0.02871334  -0.00387542  0.00113863  1
  In  In51  1  0.15965712  0.49381100  0.32141497  1
  In  In52  1  0.66469728  -0.03505071  0.68952885  1
  In  In53  1  0.33196453  0.84559388  0.51315232  1
  In  In54  1  0.66070123  0.17932863  0.85073663  1
  In  In55  1  0.50512482  0.67382542  0.49365001  1
  In  In56  1  0.02523741  0.29847487  0.64400011  1
  In  In57  1  0.34891690  0.15187983  0.17065713  1
  In  In58  1  0.34080849  -0.00740291  0.67140226  1
  In  In59  1  0.15142867  0.01820246  0.80197530  1
  In  In60  1  0.48555084  0.35250169  0.83291764  1
  In  In61  1  -0.00671824  0.66660757  -0.00575679  1
  In  In62  1  0.15526411  0.33041817  0.18758979  1
  In  In63  1  0.14976828  -0.01618732  0.51730966  1
  In  In64  1  0.51448941  0.15171642  0.29526197  1
  In  In65  1  0.50950680  0.82357617  0.31529704  1
  In  In66  1  0.00121822  0.82149231  0.51191322  1
  In  In67  1  0.64829956  0.16458727  0.49399356  1
  In  In68  1  0.52244578  0.32918118  0.49613486  1
  In  In69  1  0.84479579  0.34387184  0.48099977  1
  In  In70  1  -0.01007971  0.33225365  0.34099162  1
  In  In71  1  0.33985065  -0.00899363  0.33175467  1
  Te  Te72  1  0.08891771  0.07745993  0.08808037  1
  Te  Te73  1  0.08336183  0.09332751  0.43718276  1
  Te  Te74  1  0.05878625  0.10948299  0.73324610  1
  Te  Te75  1  0.09125178  0.41284778  0.07498767  1
  Te  Te76  1  0.09682238  0.40425519  0.43097443  1
  Te  Te77  1  0.07210874  0.41219435  0.74408616  1
  Te  Te78  1  0.08665723  0.74968120  0.08479824  1
  Te  Te79  1  0.07834870  0.76088564  0.39965928  1
  Te  Te80  1  0.05879783  0.78840591  0.75844972  1
  Te  Te81  1  0.41118915  0.08045166  0.05852848  1
  Te  Te82  1  0.42361045  0.10141293  0.41746351  1
  Te  Te83  1  0.42497513  0.07178923  0.77466139  1
  Te  Te84  1  0.45349634  0.39445171  0.10602251  1
  Te  Te85  1  0.41807051  0.41085490  0.41950362  1
  Te  Te86  1  0.41282439  0.44594149  0.73819884  1
  Te  Te87  1  0.44582609  0.72751419  0.10334417  1
  Te  Te88  1  0.40828615  0.75801710  0.41161144  1
  Te  Te89  1  0.42583450  0.75113595  0.76289557  1
  Te  Te90  1  0.71290283  0.08599604  0.09144362  1
  Te  Te91  1  0.75379956  0.08216933  0.41835319  1
  Te  Te92  1  0.73813685  0.08298284  0.75431847  1
  Te  Te93  1  0.76226041  0.42249646  0.08393077  1
  Te  Te94  1  0.75025956  0.41014401  0.38519552  1
  Te  Te95  1  0.76838381  0.39746527  0.78409402  1
  Te  Te96  1  0.76472471  0.77490541  0.04507694  1
  Te  Te97  1  0.74626772  0.73996939  0.40148543  1
  Te  Te98  1  0.73718737  0.76919790  0.75831336  1
  Te  Te99  1  0.07780129  0.22771089  0.26717222  1
  Te  Te100  1  0.08901469  0.22333246  0.53328651  1
  Te  Te101  1  0.04817851  0.22101525  0.91277281  1
  Te  Te102  1  0.06425638  0.59422710  0.25992723  1
  Te  Te103  1  0.08440516  0.58008960  0.58626846  1
  Te  Te104  1  0.07400802  0.60646184  0.88382460  1
  Te  Te105  1  0.07083606  0.89620511  0.26072469  1
  Te  Te106  1  0.06451171  0.90880251  0.61748571  1
  Te  Te107  1  0.07647668  0.93213504  0.90802095  1
  Te  Te108  1  0.41101777  0.25123991  0.25880171  1
  Te  Te109  1  0.41587829  0.24786770  0.58177497  1
  Te  Te110  1  0.42575150  0.24044534  0.91853888  1
  Te  Te111  1  0.41835852  0.60713338  0.25203742  1
  Te  Te112  1  0.40902507  0.59204266  0.58042010  1
  Te  Te113  1  0.44773125  0.61618347  0.90457519  1
  Te  Te114  1  0.43762220  0.93099987  0.23398666  1
  Te  Te115  1  0.43863010  0.88887530  0.61850408  1
  Te  Te116  1  0.43099699  0.90134595  0.94985302  1
  Te  Te117  1  0.71461216  0.23382215  0.22618989  1
  Te  Te118  1  0.74691854  0.25006142  0.57613329  1
  Te  Te119  1  0.77560032  0.24357271  0.91955133  1
  Te  Te120  1  0.75073177  0.61049743  0.23642152  1
  Te  Te121  1  0.76548205  0.59323213  0.56704802  1
  Te  Te122  1  0.72106715  0.59824155  0.93451222  1
  Te  Te123  1  0.75477313  0.90596060  0.25114535  1
  Te  Te124  1  0.78398823  0.90925639  0.61029809  1
  Te  Te125  1  0.75856733  0.89114572  0.93712410  1
  Te  Te126  1  0.23860643  0.24819138  0.07997908  1
  Te  Te127  1  0.20725626  0.27939296  0.41913767  1
  Te  Te128  1  0.21476340  0.23385385  0.74070356  1
  Te  Te129  1  0.25696572  0.56594987  0.07122156  1
  Te  Te130  1  0.25607664  0.58823838  0.39552563  1
  Te  Te131  1  0.23860737  0.60343422  0.75950725  1
  Te  Te132  1  0.26126673  0.92017804  0.08970838  1
  Te  Te133  1  0.23779616  0.91204651  0.41169644  1
  Te  Te134  1  0.24227087  0.90592072  0.74691642  1
  Te  Te135  1  0.60186995  0.25689909  0.11697094  1
  Te  Te136  1  0.59583870  0.25421276  0.38458462  1
  Te  Te137  1  0.58132589  0.26589336  0.73995885  1
  Te  Te138  1  0.56635018  0.61217378  0.09014653  1
  Te  Te139  1  0.60136903  0.59393002  0.40713750  1
  Te  Te140  1  0.57731282  0.58591404  0.73990968  1
  Te  Te141  1  0.55304688  0.90357281  0.05860231  1
  Te  Te142  1  0.58431553  0.92029712  0.41911301  1
  Te  Te143  1  0.59170702  0.87558747  0.78260568  1
  Te  Te144  1  0.88022832  0.23905798  0.08251411  1
  Te  Te145  1  0.91845524  0.22355781  0.42567312  1
  Te  Te146  1  0.92238454  0.26485296  0.74466263  1
  Te  Te147  1  0.88890578  0.61363913  0.10394107  1
  Te  Te148  1  0.91215017  0.60324730  0.41256314  1
  Te  Te149  1  0.90528204  0.59035283  0.76489226  1
  Te  Te150  1  0.92753197  0.89254305  0.09846181  1
  Te  Te151  1  0.91079620  0.92223319  0.41896870  1
  Te  Te152  1  0.94490151  0.88874996  0.74768814  1
  Te  Te153  1  0.24467782  0.09114492  0.26653269  1
  Te  Te154  1  0.25460363  0.07935793  0.58163205  1
  Te  Te155  1  0.25780552  0.04846218  0.91806979  1
  Te  Te156  1  0.26759403  0.40808673  0.25414243  1
  Te  Te157  1  0.24913412  0.39142988  0.58481805  1
  Te  Te158  1  0.25943895  0.40671721  0.90596851  1
  Te  Te159  1  0.24775026  0.75410970  0.25773235  1
  Te  Te160  1  0.22541477  0.76349876  0.58692326  1
  Te  Te161  1  0.24019593  0.74257086  0.91218906  1
  Te  Te162  1  0.59542819  0.06661803  0.19660409  1
  Te  Te163  1  0.58584460  0.06042869  0.58763340  1
  Te  Te164  1  0.62903595  0.06491741  0.94869567  1
  Te  Te165  1  0.59187812  0.42580293  0.25111171  1
  Te  Te166  1  0.57405451  0.43949843  0.58958117  1
  Te  Te167  1  0.58378803  0.42119929  0.92678353  1
  Te  Te168  1  0.60788376  0.74014190  0.24414322  1
  Te  Te169  1  0.59503144  0.76590025  0.57511024  1
  Te  Te170  1  0.62747820  0.80416582  0.97076912  1
  Te  Te171  1  0.90428269  0.06929212  0.23900458  1
  Te  Te172  1  0.95656732  0.07347885  0.61911412  1
  Te  Te173  1  0.89057847  0.07463595  0.90713759  1
  Te  Te174  1  0.91488411  0.40713112  0.23235121  1
  Te  Te175  1  0.91460794  0.42121505  0.59131785  1
  Te  Te176  1  0.94157434  0.43824410  0.91588013  1
  Te  Te177  1  0.91509444  0.72395351  0.21268024  1
  Te  Te178  1  0.89843184  0.73465684  0.57493363  1
  Te  Te179  1  0.90458822  0.77406446  0.93658729  1
