# generated using pymatgen
data_In2Te3
_symmetry_space_group_name_H-M   'P 1'
_cell_length_a   18.81275044
_cell_length_b   18.81730241
_cell_length_c   18.81204853
_cell_angle_alpha   90.00490986
_cell_angle_beta   89.93940961
_cell_angle_gamma   89.98095512
_symmetry_Int_Tables_number   1
_chemical_formula_structural   In2Te3
_chemical_formula_sum   'In72 Te108'
_cell_volume   6659.55915140
_cell_formula_units_Z   36
loop_
 _symmetry_equiv_pos_site_id
 _symmetry_equiv_pos_as_xyz
  1  'x, y, z'
loop_
 _atom_site_type_symbol
 _atom_site_label
 _atom_site_symmetry_multiplicity
 _atom_site_fract_x
 _atom_site_fract_y
 _atom_site_fract_z
 _atom_site_occupancy
  In  In0  1  -0.00702846  0.81782464  0.48877992  1
  In  In1  1  0.48664150  0.65628131  0.82709711  1
  In  In2  1  0.33755498  0.52197633  0.50014309  1
  In  In3  1  0.16353170  0.33340014  0.15218594  1
  In  In4  1  0.01271363  0.35012738  -0.00638717  1
  In  In5  1  -0.01638972  0.14867907  0.49860483  1
  In  In6  1  0.84436287  0.67858626  0.16406559  1
  In  In7  1  0.79645558  0.02307590  0.80547256  1
  In  In8  1  0.68089041  0.33148453  0.34476225  1
  In  In9  1  0.35924211  0.00540424  0.67419494  1
  In  In10  1  0.48022218  0.32273126  0.16132047  1
  In  In11  1  0.15414657  0.00565242  0.15791144  1
  In  In12  1  0.17198534  0.82028964  -0.00662402  1
  In  In13  1  0.15712175  0.51022767  0.33001326  1
  In  In14  1  0.83877799  0.64319903  0.83070624  1
  In  In15  1  0.82343025  -0.00649019  0.19217244  1
  In  In16  1  0.83238360  0.67963335  0.50679046  1
  In  In17  1  0.50277276  0.17272715  -0.02702428  1
  In  In18  1  0.80160418  -0.02619597  0.53040842  1
  In  In19  1  0.31923810  0.81575612  0.49770705  1
  In  In20  1  0.32618822  0.50459143  0.14085161  1
  In  In21  1  0.16521735  0.65819052  0.82613700  1
  In  In22  1  0.50158569  0.65330230  0.15344759  1
  In  In23  1  0.33454869  0.33272940  -0.01413399  1
  In  In24  1  0.67245537  0.50132439  0.15148224  1
  In  In25  1  0.67650557  0.15038584  0.51184894  1
  In  In26  1  0.81617477  0.17061068  0.34594876  1
  In  In27  1  0.83415418  0.16967433  -0.01407370  1
  In  In28  1  0.33793357  0.67442327  0.67595674  1
  In  In29  1  0.33792048  0.00187314  -0.01313467  1
  In  In30  1  0.51922980  0.86289233  0.02212174  1
  In  In31  1  0.63411256  0.32647866  0.69596385  1
  In  In32  1  0.51541556  -0.00755595  0.51945257  1
  In  In33  1  0.17885167  0.00075338  0.84798011  1
  In  In34  1  0.17610939  0.84074337  0.65434179  1
  In  In35  1  -0.01586428  -0.00637875  0.66343227  1
  In  In36  1  0.34938932  0.36121029  0.67032615  1
  In  In37  1  0.50463637  0.84515092  0.33665315  1
  In  In38  1  0.84089369  0.49854541  0.66548125  1
  In  In39  1  0.18597372  0.16779947  0.66058572  1
  In  In40  1  0.83411187  0.32541001  0.85086681  1
  In  In41  1  0.65323002  0.67413533  0.67234784  1
  In  In42  1  0.51356331  0.00336855  0.83163859  1
  In  In43  1  -0.00725772  0.82551050  0.17107937  1
  In  In44  1  0.52925715  0.32870651  0.50656245  1
  In  In45  1  0.64894220  0.35020198  -0.02326477  1
  In  In46  1  0.83127047  0.86269776  0.00389816  1
  In  In47  1  0.14063315  0.18015030  0.30268070  1
  In  In48  1  0.86325453  0.49015535  0.32641705  1
  In  In49  1  0.48990963  0.50560754  0.33526431  1
  In  In50  1  0.17485831  0.34806846  0.83332475  1
  In  In51  1  0.00329357  -0.00203582  0.33226727  1
  In  In52  1  -0.00125648  0.34744878  0.68534468  1
  In  In53  1  0.84437274  0.50775728  -0.01448798  1
  In  In54  1  0.33724835  0.66497146  -0.01262862  1
  In  In55  1  0.33690686  -0.01721979  0.35057008  1
  In  In56  1  0.82122650  0.34889656  0.49698515  1
  In  In57  1  0.16455522  0.35059891  0.50165869  1
  In  In58  1  0.68587349  0.66415515  0.00461557  1
  In  In59  1  0.34910345  0.16826427  0.15912264  1
  In  In60  1  0.00410232  0.83218372  0.82506020  1
  In  In61  1  -0.01058518  0.17861440  0.83026972  1
  In  In62  1  0.02210593  0.17978739  0.15027520  1
  In  In63  1  0.66117952  0.82676947  0.82581194  1
  In  In64  1  0.49974569  0.68351040  0.52605518  1
  In  In65  1  0.34395585  0.30167988  0.32464785  1
  In  In66  1  0.34007105  0.15862829  0.51558436  1
  In  In67  1  0.00537665  0.66280288  0.00875409  1
  In  In68  1  0.66158060  0.14609600  0.19159649  1
  In  In69  1  0.30791058  0.79962484  0.20391825  1
  In  In70  1  0.00050703  0.66806771  0.31483541  1
  In  In71  1  0.66569693  0.67617943  0.35707770  1
  Te  Te72  1  0.09125005  0.09057900  0.05599035  1
  Te  Te73  1  0.09537995  0.08493019  0.41723254  1
  Te  Te74  1  0.08324633  0.08053087  0.74540129  1
  Te  Te75  1  0.09929393  0.43969920  0.07304085  1
  Te  Te76  1  0.07212399  0.42953579  0.41990655  1
  Te  Te77  1  0.10046362  0.44402726  0.74001647  1
  Te  Te78  1  0.09866444  0.74062540  0.10137931  1
  Te  Te79  1  0.09504219  0.74655394  0.40242657  1
  Te  Te80  1  0.08182384  0.74588640  0.72950657  1
  Te  Te81  1  0.43669600  0.07619648  0.07729536  1
  Te  Te82  1  0.43054545  0.07830407  0.42266251  1
  Te  Te83  1  0.41588446  0.10082361  0.77200967  1
  Te  Te84  1  0.43185295  0.42676776  0.06329819  1
  Te  Te85  1  0.40903625  0.40068127  0.42323475  1
  Te  Te86  1  0.43794613  0.40499127  0.78192369  1
  Te  Te87  1  0.41444943  0.75988038  0.08403739  1
  Te  Te88  1  0.41940189  0.74096243  0.41006873  1
  Te  Te89  1  0.44161934  0.76154583  0.73415175  1
  Te  Te90  1  0.75777802  0.08547174  0.08869856  1
  Te  Te91  1  0.74216999  0.05640687  0.41125746  1
  Te  Te92  1  0.69855865  0.10181191  0.72577399  1
  Te  Te93  1  0.75864276  0.40853133  0.06654213  1
  Te  Te94  1  0.74151798  0.44952583  0.41543718  1
  Te  Te95  1  0.75431761  0.41236521  0.75484678  1
  Te  Te96  1  0.74652493  0.77238153  0.09323118  1
  Te  Te97  1  0.75075072  0.77444540  0.42532569  1
  Te  Te98  1  0.76604508  0.74738272  0.74813582  1
  Te  Te99  1  0.05357722  0.30031828  0.25769287  1
  Te  Te100  1  0.07564460  0.24615174  0.58703286  1
  Te  Te101  1  0.09407804  0.24566092  0.91561484  1
  Te  Te102  1  0.06969622  0.57014080  0.22763275  1
  Te  Te103  1  0.04508115  0.53774594  0.62925007  1
  Te  Te104  1  0.07713199  0.57722757  0.91315817  1
  Te  Te105  1  0.09465020  0.90471219  0.25506759  1
  Te  Te106  1  0.07741923  0.92056164  0.56953385  1
  Te  Te107  1  0.07555505  0.91903142  0.92770201  1
  Te  Te108  1  0.45160942  0.21255202  0.26462310  1
  Te  Te109  1  0.42809959  0.25337909  0.59440550  1
  Te  Te110  1  0.44461220  0.28621182  0.89104256  1
  Te  Te111  1  0.39971749  0.58993791  0.24794087  1
  Te  Te112  1  0.43459119  0.57064501  0.60492018  1
  Te  Te113  1  0.38775565  0.56208059  0.89042177  1
  Te  Te114  1  0.40750120  0.91209252  0.23594697  1
  Te  Te115  1  0.41845594  0.89484692  0.58612860  1
  Te  Te116  1  0.42359595  0.90326471  0.90901245  1
  Te  Te117  1  0.75770415  0.25906667  0.23588726  1
  Te  Te118  1  0.73693887  0.26640914  0.58903659  1
  Te  Te119  1  0.72330726  0.23565441  0.90493487  1
  Te  Te120  1  0.74871263  0.58855490  0.24961540  1
  Te  Te121  1  0.74342441  0.58279675  0.58480792  1
  Te  Te122  1  0.73014682  0.56200233  0.90007893  1
  Te  Te123  1  0.70570592  0.92048128  0.24747904  1
  Te  Te124  1  0.70393434  0.90521614  0.61696287  1
  Te  Te125  1  0.73060088  0.93221700  0.91456792  1
  Te  Te126  1  0.24842404  0.23677308  0.06968939  1
  Te  Te127  1  0.24399402  0.23871241  0.42274773  1
  Te  Te128  1  0.26690855  0.25757532  0.75044707  1
  Te  Te129  1  0.24049623  0.60987215  0.08513432  1
  Te  Te130  1  0.25266821  0.59913745  0.40406474  1
  Te  Te131  1  0.27130641  0.57226583  0.76278726  1
  Te  Te132  1  0.25406631  0.91106083  0.08671176  1
  Te  Te133  1  0.23316190  0.90970722  0.42265160  1
  Te  Te134  1  0.26318269  0.91433752  0.75498259  1
  Te  Te135  1  0.59060595  0.24669033  0.08715422  1
  Te  Te136  1  0.59092428  0.22812100  0.40982847  1
  Te  Te137  1  0.57835172  0.19825054  0.74785711  1
  Te  Te138  1  0.57548308  0.56572160  0.05253832  1
  Te  Te139  1  0.57486926  0.58071357  0.43460273  1
  Te  Te140  1  0.59256881  0.57443789  0.76350198  1
  Te  Te141  1  0.60803063  0.93146302  0.11908758  1
  Te  Te142  1  0.60044199  0.91273178  0.42724446  1
  Te  Te143  1  0.59500636  0.92299722  0.73009325  1
  Te  Te144  1  0.91712086  0.26181247  0.07383342  1
  Te  Te145  1  0.91763187  0.25864896  0.41729752  1
  Te  Te146  1  0.89474244  0.24491069  0.73289173  1
  Te  Te147  1  0.92479385  0.56693951  0.10043403  1
  Te  Te148  1  0.92575424  0.58907566  0.42260622  1
  Te  Te149  1  0.94188449  0.59070076  0.73330029  1
  Te  Te150  1  0.92831796  0.93945383  0.09281203  1
  Te  Te151  1  0.90613089  0.92675936  0.42331272  1
  Te  Te152  1  0.89353821  0.91309189  0.75529563  1
  Te  Te153  1  0.25475330  0.08700909  0.24917939  1
  Te  Te154  1  0.24832915  0.05516520  0.57925841  1
  Te  Te155  1  0.27265529  0.10221177  0.90018639  1
  Te  Te156  1  0.26463211  0.40590108  0.24837560  1
  Te  Te157  1  0.24480453  0.44219111  0.59312387  1
  Te  Te158  1  0.24424269  0.43565668  0.93036499  1
  Te  Te159  1  0.21869106  0.73124370  0.29805355  1
  Te  Te160  1  0.23004587  0.71912430  0.57768642  1
  Te  Te161  1  0.26316280  0.75899453  0.89044089  1
  Te  Te162  1  0.59325958  0.02763628  0.25135939  1
  Te  Te163  1  0.57557898  0.09820602  0.61274056  1
  Te  Te164  1  0.59633689  0.06300364  0.93980625  1
  Te  Te165  1  0.57923540  0.41535778  0.24710466  1
  Te  Te166  1  0.59042486  0.42652859  0.59627772  1
  Te  Te167  1  0.57098904  0.40937076  0.86582087  1
  Te  Te168  1  0.58203704  0.74206077  0.24620333  1
  Te  Te169  1  0.60963604  0.77675024  0.57035784  1
  Te  Te170  1  0.57895966  0.74787859  0.93096364  1
  Te  Te171  1  0.92504658  0.10246227  0.25043123  1
  Te  Te172  1  0.88360660  0.08696970  0.59554102  1
  Te  Te173  1  0.91172296  0.06930069  0.90168529  1
  Te  Te174  1  0.92055581  0.38531150  0.24440514  1
  Te  Te175  1  0.93604584  0.42488455  0.56431262  1
  Te  Te176  1  0.93629939  0.43188555  0.88987561  1
  Te  Te177  1  0.89251543  0.77354709  0.27225345  1
  Te  Te178  1  0.91718527  0.75785536  0.59996911  1
  Te  Te179  1  0.90606975  0.74981968  0.92686665  1
