# generated using pymatgen
data_In2Te3
_symmetry_space_group_name_H-M   'P 1'
_cell_length_a   18.98381320
_cell_length_b   18.98533831
_cell_length_c   18.98481949
_cell_angle_alpha   89.90022037
_cell_angle_beta   90.12766020
_cell_angle_gamma   90.03250571
_symmetry_Int_Tables_number   1
_chemical_formula_structural   In2Te3
_chemical_formula_sum   'In72 Te108'
_cell_volume   6842.36848821
_cell_formula_units_Z   36
loop_
 _symmetry_equiv_pos_site_id
 _symmetry_equiv_pos_as_xyz
  1  'x, y, z'
loop_
 _atom_site_type_symbol
 _atom_site_label
 _atom_site_symmetry_multiplicity
 _atom_site_fract_x
 _atom_site_fract_y
 _atom_site_fract_z
 _atom_site_occupancy
  In  In0  1  -0.03073398  0.32476092  0.32888322  1
  In  In1  1  0.34703440  0.17370302  0.48725839  1
  In  In2  1  0.48881705  0.81166039  0.66447046  1
  In  In3  1  0.16827637  0.83402092  0.67126387  1
  In  In4  1  0.49129608  0.68538806  0.47805793  1
  In  In5  1  0.51604048  0.32731054  0.15121432  1
  In  In6  1  0.84421472  0.50287421  0.66320327  1
  In  In7  1  0.51515003  0.00905838  0.15391200  1
  In  In8  1  0.83527465  0.62773314  0.83446574  1
  In  In9  1  -0.01165466  0.01003104  0.01582898  1
  In  In10  1  0.16447892  0.66426361  0.50567689  1
  In  In11  1  0.17642172  0.17782784  0.35676105  1
  In  In12  1  0.81011214  0.16318470  0.65413649  1
  In  In13  1  0.66003353  0.47462709  0.47716593  1
  In  In14  1  0.32188488  0.64579840  0.66538743  1
  In  In15  1  0.65555723  0.00154584  0.66310744  1
  In  In16  1  0.69933959  0.35022829  0.03643408  1
  In  In17  1  0.67967939  0.82846409  0.15675163  1
  In  In18  1  0.33076910  0.48909682  0.51375736  1
  In  In19  1  0.35516273  0.64610883  -0.00809542  1
  In  In20  1  0.17648034  0.67895347  0.82362194  1
  In  In21  1  0.17789061  -0.02660278  0.46564487  1
  In  In22  1  0.52683664  0.81094815  -0.00635256  1
  In  In23  1  -0.01312880  0.68116319  0.00967851  1
  In  In24  1  0.16518053  0.34376980  0.80983432  1
  In  In25  1  0.33580771  0.32576306  0.33541848  1
  In  In26  1  0.14264432  0.85618918  0.00060279  1
  In  In27  1  0.50163796  0.31831735  0.49144645  1
  In  In28  1  0.52352437  0.48454572  0.00720604  1
  In  In29  1  0.33309057  0.82173503  0.18031491  1
  In  In30  1  0.50903466  0.85572950  0.33728208  1
  In  In31  1  0.00916316  0.68430008  0.32302936  1
  In  In32  1  0.32361743  0.14638012  0.16158135  1
  In  In33  1  0.32413546  0.19093301  0.85665219  1
  In  In34  1  0.38992328  0.40179261  0.85250386  1
  In  In35  1  0.69236617  0.31916292  0.28643919  1
  In  In36  1  0.86325261  0.37318922  0.84713483  1
  In  In37  1  0.27219249  0.64918404  0.21701256  1
  In  In38  1  0.33132334  0.82104151  0.82347515  1
  In  In39  1  0.15844196  -0.00835456  0.20150627  1
  In  In40  1  -0.04005807  0.02579191  0.33910017  1
  In  In41  1  0.66600640  0.32120979  0.65929582  1
  In  In42  1  0.81803566  0.01294501  0.15075378  1
  In  In43  1  0.13918031  0.16571542  0.64926305  1
  In  In44  1  0.72808670  0.77617961  0.93847966  1
  In  In45  1  0.84608137  0.18941871  0.03675253  1
  In  In46  1  0.50878647  -0.01643310  0.51455393  1
  In  In47  1  -0.01973745  0.16692040  0.82664245  1
  In  In48  1  0.64433386  0.64885092  0.66551647  1
  In  In49  1  0.53521184  -0.00492893  0.84465142  1
  In  In50  1  0.01161838  0.35027483  0.66411029  1
  In  In51  1  0.85035303  0.81773401  0.65776602  1
  In  In52  1  0.84677755  0.83388234  0.33313408  1
  In  In53  1  0.34158212  0.00912249  -0.00195755  1
  In  In54  1  -0.01782515  -0.01156447  0.67223332  1
  In  In55  1  0.49570430  0.14521494  0.66391576  1
  In  In56  1  0.16943089  0.50812069  0.35298151  1
  In  In57  1  -0.00298128  0.48338129  0.18161004  1
  In  In58  1  0.67437314  0.66702236  0.32197385  1
  In  In59  1  0.84373879  0.67247530  0.50195935  1
  In  In60  1  0.66013946  0.51393160  0.84512460  1
  In  In61  1  0.49714253  0.53350545  0.18385962  1
  In  In62  1  0.51671547  0.14649098  0.33497930  1
  In  In63  1  0.15317359  0.34024850  0.17827824  1
  In  In64  1  0.82152859  0.01515533  0.50296511  1
  In  In65  1  0.00830975  0.51329185  0.50788870  1
  In  In66  1  -0.02721380  0.85388745  0.15803329  1
  In  In67  1  0.68369534  0.17688913  0.83426648  1
  In  In68  1  0.16652508  0.50725597  -0.02244653  1
  In  In69  1  0.31185199  0.01014335  0.68444410  1
  In  In70  1  0.84178931  0.49173482  0.29593729  1
  In  In71  1  0.15186514  0.18766971  0.00266230  1
  Te  Te72  1  0.09306000  0.08316847  0.09688930  1
  Te  Te73  1  0.07936594  0.08119098  0.42034561  1
  Te  Te74  1  0.07818297  0.07773405  0.75517434  1
  Te  Te75  1  0.08326856  0.41862744  0.06881701  1
  Te  Te76  1  0.06731975  0.41313561  0.40913185  1
  Te  Te77  1  0.05797517  0.43877730  0.77168529  1
  Te  Te78  1  0.08081824  0.76224010  0.10014138  1
  Te  Te79  1  0.06124523  0.75085142  0.44381035  1
  Te  Te80  1  0.07550691  0.75422559  0.75060930  1
  Te  Te81  1  0.43430192  0.10616935  0.06642098  1
  Te  Te82  1  0.41947478  0.06378190  0.41725540  1
  Te  Te83  1  0.41584590  0.07615118  0.77436139  1
  Te  Te84  1  0.41668617  0.42681660  0.09715552  1
  Te  Te85  1  0.42365218  0.42162566  0.41200896  1
  Te  Te86  1  0.33914920  0.43520070  0.71514800  1
  Te  Te87  1  0.42477572  0.74475307  0.08355683  1
  Te  Te88  1  0.40273461  0.78928445  0.41903299  1
  Te  Te89  1  0.42078456  0.71887323  0.76234240  1
  Te  Te90  1  0.72961906  0.10778541  0.07778779  1
  Te  Te91  1  0.77866755  0.10494225  0.39156715  1
  Te  Te92  1  0.75462318  0.06726059  0.75753398  1
  Te  Te93  1  0.76099573  0.41746455  0.15328091  1
  Te  Te94  1  0.76440251  0.40533938  0.39213997  1
  Te  Te95  1  0.74826961  0.42024309  0.74838224  1
  Te  Te96  1  0.72212353  0.71448923  0.07381247  1
  Te  Te97  1  0.74915337  0.75666515  0.41945052  1
  Te  Te98  1  0.76017823  0.71687938  0.73152965  1
  Te  Te99  1  0.07814792  0.23894267  0.26007254  1
  Te  Te100  1  0.06906362  0.26050633  0.56431431  1
  Te  Te101  1  0.06838316  0.26392790  0.90213971  1
  Te  Te102  1  0.09321877  0.58528125  0.24544982  1
  Te  Te103  1  0.11653630  0.55843839  0.59987921  1
  Te  Te104  1  0.07397296  0.60411629  0.91094918  1
  Te  Te105  1  0.05051784  0.91626797  0.27199618  1
  Te  Te106  1  0.09113837  0.92725754  0.58069151  1
  Te  Te107  1  0.04807533  0.92362014  0.91423094  1
  Te  Te108  1  0.42045458  0.23679802  0.24732084  1
  Te  Te109  1  0.41244303  0.25416211  0.59732758  1
  Te  Te110  1  0.42257581  0.27554284  0.92121210  1
  Te  Te111  1  0.40472494  0.61354282  0.26572286  1
  Te  Te112  1  0.42921681  0.58637320  0.57696618  1
  Te  Te113  1  0.42436973  0.54460623  0.90794300  1
  Te  Te114  1  0.41806345  0.93218129  0.24036879  1
  Te  Te115  1  0.40176860  0.91894228  0.60204642  1
  Te  Te116  1  0.42083420  0.90714025  0.91782696  1
  Te  Te117  1  0.79092633  0.20386046  0.27011378  1
  Te  Te118  1  0.74847466  0.25561682  0.55931880  1
  Te  Te119  1  0.77425183  0.27147143  0.91742108  1
  Te  Te120  1  0.74463236  0.57743139  0.22743763  1
  Te  Te121  1  0.74342832  0.57329831  0.56268515  1
  Te  Te122  1  0.76428949  0.55162286  0.94537880  1
  Te  Te123  1  0.75306591  0.92126686  0.25298707  1
  Te  Te124  1  0.74946538  0.91208282  0.58652492  1
  Te  Te125  1  0.75073838  0.91948193  0.95865691  1
  Te  Te126  1  0.25194925  0.25885838  0.09188666  1
  Te  Te127  1  0.24453399  0.27937045  0.44643969  1
  Te  Te128  1  0.24429450  0.23708295  0.73701500  1
  Te  Te129  1  0.24919456  0.58625872  0.08089906  1
  Te  Te130  1  0.27027772  0.59619553  0.42227862  1
  Te  Te131  1  0.25856600  0.56507998  0.77376230  1
  Te  Te132  1  0.25291885  0.92820766  0.09204372  1
  Te  Te133  1  0.26172211  0.87834916  0.39450459  1
  Te  Te134  1  0.23069739  0.92414959  0.77832154  1
  Te  Te135  1  0.62139895  0.23820393  0.09729777  1
  Te  Te136  1  0.60030271  0.25581161  0.39719470  1
  Te  Te137  1  0.57393615  0.24318051  0.75049246  1
  Te  Te138  1  0.58817408  0.59296786  0.08328068  1
  Te  Te139  1  0.58087962  0.58294965  0.40678779  1
  Te  Te140  1  0.56431497  0.55328715  0.74187242  1
  Te  Te141  1  0.60226138  0.92344186  0.06230096  1
  Te  Te142  1  0.60474502  0.93093960  0.41915645  1
  Te  Te143  1  0.58935272  0.89448318  0.74870370  1
  Te  Te144  1  0.95905587  0.27735563  0.06479150  1
  Te  Te145  1  0.88489672  0.22243973  0.39666976  1
  Te  Te146  1  0.89898835  0.26185142  0.73949342  1
  Te  Te147  1  0.92098211  0.56880014  0.08500900  1
  Te  Te148  1  0.91543916  0.57933310  0.39705187  1
  Te  Te149  1  0.94009189  0.57791385  0.74295910  1
  Te  Te150  1  0.87136847  0.90216035  0.05020506  1
  Te  Te151  1  0.91728458  0.91667597  0.43725903  1
  Te  Te152  1  0.89420150  0.91312365  0.76026116  1
  Te  Te153  1  0.25802685  0.07653868  0.27849479  1
  Te  Te154  1  0.24947393  0.08321939  0.56691276  1
  Te  Te155  1  0.23546940  0.08736068  0.92296933  1
  Te  Te156  1  0.25268217  0.42412612  0.25600541  1
  Te  Te157  1  0.22744643  0.43970000  0.60705688  1
  Te  Te158  1  0.25147027  0.39655688  0.92278427  1
  Te  Te159  1  0.22444638  0.77802826  0.27442909  1
  Te  Te160  1  0.26069460  0.75568386  0.58227556  1
  Te  Te161  1  0.25211347  0.75755963  0.93867305  1
  Te  Te162  1  0.60638302  0.06817805  0.25218226  1
  Te  Te163  1  0.59802972  0.10024859  0.56376454  1
  Te  Te164  1  0.59260754  0.10267994  0.92269337  1
  Te  Te165  1  0.57954410  0.41870321  0.25109472  1
  Te  Te166  1  0.57192072  0.41544466  0.58516290  1
  Te  Te167  1  0.60643611  0.39270948  0.92183747  1
  Te  Te168  1  0.57846812  0.75676196  0.24554099  1
  Te  Te169  1  0.59097080  0.75484418  0.56940271  1
  Te  Te170  1  0.59480487  0.73083055  0.89416972  1
  Te  Te171  1  0.91979129  0.09882460  0.21668224  1
  Te  Te172  1  0.92393528  0.09541436  0.58170520  1
  Te  Te173  1  0.89723043  0.09206290  0.92710994  1
  Te  Te174  1  0.90727959  0.35284709  0.18599934  1
  Te  Te175  1  0.90944810  0.41216822  0.56299853  1
  Te  Te176  1  0.89214770  0.46608530  0.95755905  1
  Te  Te177  1  0.90193590  0.73868232  0.22977761  1
  Te  Te178  1  0.94911159  0.73918315  0.57887348  1
  Te  Te179  1  0.88655386  0.74226542  0.91715085  1
