# generated using pymatgen
data_In2Te3
_symmetry_space_group_name_H-M   'P 1'
_cell_length_a   18.95765946
_cell_length_b   18.90921195
_cell_length_c   18.94986348
_cell_angle_alpha   90.17802651
_cell_angle_beta   89.87996337
_cell_angle_gamma   89.90517388
_symmetry_Int_Tables_number   1
_chemical_formula_structural   In2Te3
_chemical_formula_sum   'In72 Te108'
_cell_volume   6792.98387943
_cell_formula_units_Z   36
loop_
 _symmetry_equiv_pos_site_id
 _symmetry_equiv_pos_as_xyz
  1  'x, y, z'
loop_
 _atom_site_type_symbol
 _atom_site_label
 _atom_site_symmetry_multiplicity
 _atom_site_fract_x
 _atom_site_fract_y
 _atom_site_fract_z
 _atom_site_occupancy
  In  In0  1  0.81646824  0.00237642  0.82742355  1
  In  In1  1  0.66688082  0.37334424  0.37185560  1
  In  In2  1  0.20658132  0.17597327  0.42857045  1
  In  In3  1  0.17873615  0.21329675  -0.00605051  1
  In  In4  1  0.64279623  0.30110828  -0.01694110  1
  In  In5  1  0.81399419  0.36073044  0.19760387  1
  In  In6  1  0.82403807  0.67993442  0.52048167  1
  In  In7  1  0.19410202  0.85190181  0.32857303  1
  In  In8  1  0.49033913  0.66866316  0.17467880  1
  In  In9  1  0.50905542  0.00418587  0.50920011  1
  In  In10  1  0.50208132  0.32036961  0.49897369  1
  In  In11  1  0.00264097  0.31715753  -0.01806923  1
  In  In12  1  0.34339336  -0.02296891  0.00171088  1
  In  In13  1  -0.00665333  0.67726941  0.66182679  1
  In  In14  1  0.82046621  0.34484123  0.82038888  1
  In  In15  1  0.65780235  0.14843150  0.79741781  1
  In  In16  1  0.02329978  -0.00959595  0.02274950  1
  In  In17  1  0.49425524  0.81954144  0.67370718  1
  In  In18  1  0.82809079  0.16511416  0.02902155  1
  In  In19  1  0.51006025  0.81190478  -0.01254394  1
  In  In20  1  0.15971812  0.82482816  0.64457090  1
  In  In21  1  0.50339678  0.49965862  -0.00362863  1
  In  In22  1  0.29256110  0.51547797  0.78868371  1
  In  In23  1  0.18778854  0.01837842  0.18996149  1
  In  In24  1  0.66422281  0.49929883  0.16672800  1
  In  In25  1  0.83695764  0.18447373  0.35945578  1
  In  In26  1  0.34736703  0.67799517  -0.02641690  1
  In  In27  1  0.18574616  0.32888993  0.14813198  1
  In  In28  1  0.67152497  0.82588777  0.51457321  1
  In  In29  1  0.49328700  0.49055952  0.36599272  1
  In  In30  1  0.17121081  0.52003675  0.35014314  1
  In  In31  1  0.00029876  0.16346275  0.19396311  1
  In  In32  1  0.31907229  0.34385612  0.01148810  1
  In  In33  1  0.32250377  0.50704049  0.16462313  1
  In  In34  1  0.65557228  0.16603036  0.52497018  1
  In  In35  1  0.63629963  0.84460413  0.16474318  1
  In  In36  1  -0.01754396  -0.00156756  0.46975354  1
  In  In37  1  0.35210863  -0.00617260  0.35298146  1
  In  In38  1  0.15692711  0.49405656  -0.03086059  1
  In  In39  1  0.19115334  0.69132301  0.16923652  1
  In  In40  1  0.33355232  0.32186635  0.62499473  1
  In  In41  1  0.47621424  0.18231012  0.31156890  1
  In  In42  1  0.16795274  0.18904004  0.63988652  1
  In  In43  1  0.81727677  0.01307373  0.16992470  1
  In  In44  1  0.31957628  -0.00218477  0.65164875  1
  In  In45  1  0.81681783  0.51510762  -0.01064162  1
  In  In46  1  0.17118156  0.00083000  0.81642484  1
  In  In47  1  0.67490068  0.51292995  0.49854528  1
  In  In48  1  0.83721733  0.82530179  0.66613036  1
  In  In49  1  -0.00857878  0.32851402  0.34356354  1
  In  In50  1  0.52103678  0.63010424  0.80082352  1
  In  In51  1  -0.02602365  0.15792801  0.81886891  1
  In  In52  1  0.83150927  0.51470251  0.34937943  1
  In  In53  1  0.17640909  0.67023706  0.49415426  1
  In  In54  1  0.47762175  0.14438313  0.01417325  1
  In  In55  1  -0.00350904  0.63613165  -0.02851030  1
  In  In56  1  0.66597079  0.00270167  0.34722156  1
  In  In57  1  0.48101477  0.36673793  0.81415070  1
  In  In58  1  0.65284922  0.35031501  0.65592497  1
  In  In59  1  -0.01423611  -0.01951299  0.65304786  1
  In  In60  1  0.47946674  0.67131142  0.48026588  1
  In  In61  1  0.02215285  0.50353682  0.53965387  1
  In  In62  1  0.01045396  0.66346979  0.32962607  1
  In  In63  1  0.81078722  0.67844390  0.81901816  1
  In  In64  1  0.82182913  0.84732689  -0.01229608  1
  In  In65  1  0.18474937  0.83304497  -0.01423460  1
  In  In66  1  0.02909865  0.82193487  0.17718932  1
  In  In67  1  0.83582789  0.68309596  0.15337264  1
  In  In68  1  0.50990338  -0.02821118  0.82990447  1
  In  In69  1  0.34544889  0.15458601  0.84217412  1
  In  In70  1  0.64723702  0.14475363  0.16879841  1
  In  In71  1  0.00946727  0.47004613  0.75826269  1
  Te  Te72  1  0.09751319  0.10564995  0.08884204  1
  Te  Te73  1  0.07139187  0.11828673  0.42624799  1
  Te  Te74  1  0.08444826  0.08556752  0.72588586  1
  Te  Te75  1  0.08253226  0.41194908  0.07227828  1
  Te  Te76  1  0.08109218  0.42341223  0.42461567  1
  Te  Te77  1  0.13825729  0.40260695  0.71352064  1
  Te  Te78  1  0.07852669  0.73772027  0.06103067  1
  Te  Te79  1  0.09322250  0.76242964  0.40617753  1
  Te  Te80  1  0.07195464  0.76723110  0.74673702  1
  Te  Te81  1  0.42103605  0.04540848  0.10761078  1
  Te  Te82  1  0.42523683  0.10471793  0.43138283  1
  Te  Te83  1  0.42006219  0.06394464  0.74734508  1
  Te  Te84  1  0.42395634  0.41671757  0.09496853  1
  Te  Te85  1  0.40318507  0.37883083  0.40449261  1
  Te  Te86  1  0.39870554  0.43780234  0.71270326  1
  Te  Te87  1  0.40400613  0.75836904  0.08739795  1
  Te  Te88  1  0.40040673  0.76878863  0.39179225  1
  Te  Te89  1  0.41292653  0.70903686  0.73608998  1
  Te  Te90  1  0.72131789  0.06280450  0.06393553  1
  Te  Te91  1  0.75392495  0.08453872  0.43771295  1
  Te  Te92  1  0.76790902  0.08977046  0.72139402  1
  Te  Te93  1  0.73972612  0.39728751  0.06960315  1
  Te  Te94  1  0.78804484  0.41070098  0.45044036  1
  Te  Te95  1  0.73081096  0.44189084  0.74787272  1
  Te  Te96  1  0.73382513  0.76096590  0.07588603  1
  Te  Te97  1  0.75476425  0.75290081  0.41477045  1
  Te  Te98  1  0.72346053  0.77377211  0.74516744  1
  Te  Te99  1  0.09696420  0.26094852  0.25582650  1
  Te  Te100  1  0.07924100  0.30585891  0.61313297  1
  Te  Te101  1  0.08651695  0.24687137  0.87789000  1
  Te  Te102  1  0.09813670  0.58928656  0.23056900  1
  Te  Te103  1  0.11512169  0.59471576  0.61701912  1
  Te  Te104  1  0.07826705  0.56723751  0.86385039  1
  Te  Te105  1  0.07963834  0.93630010  0.26022522  1
  Te  Te106  1  0.09348707  0.93089597  0.55921417  1
  Te  Te107  1  0.08234551  0.91423977  0.90653218  1
  Te  Te108  1  0.37855140  0.25159409  0.23049928  1
  Te  Te109  1  0.44760420  0.23011160  0.60043016  1
  Te  Te110  1  0.42117175  0.26291385  0.91970753  1
  Te  Te111  1  0.41275585  0.57456447  0.26471419  1
  Te  Te112  1  0.43457362  0.54394534  0.54088849  1
  Te  Te113  1  0.40185861  0.55683502  0.89986054  1
  Te  Te114  1  0.41587381  0.87532774  0.28953725  1
  Te  Te115  1  0.41495052  0.90513504  0.57609314  1
  Te  Te116  1  0.40663666  0.88607714  0.89893106  1
  Te  Te117  1  0.74908618  0.23402765  0.24392093  1
  Te  Te118  1  0.74673327  0.26669183  0.58096980  1
  Te  Te119  1  0.75761195  0.23107422  0.91119986  1
  Te  Te120  1  0.75243668  0.59286705  0.24683135  1
  Te  Te121  1  0.74400905  0.58927778  0.60706792  1
  Te  Te122  1  0.72668260  0.60369587  0.91653205  1
  Te  Te123  1  0.74567966  0.91211553  0.25449645  1
  Te  Te124  1  0.77504628  0.92231268  0.56924453  1
  Te  Te125  1  0.72530938  0.92200683  0.90767501  1
  Te  Te126  1  0.29064828  0.21871297  0.10560139  1
  Te  Te127  1  0.26758289  0.30587462  0.47515030  1
  Te  Te128  1  0.27014332  0.23785791  0.74380554  1
  Te  Te129  1  0.24230533  0.58441535  0.06079048  1
  Te  Te130  1  0.27402583  0.57006793  0.44307176  1
  Te  Te131  1  0.26897606  0.63008834  0.69777602  1
  Te  Te132  1  0.24781933  0.90800513  0.10253025  1
  Te  Te133  1  0.24792776  0.93333121  0.43763570  1
  Te  Te134  1  0.25565325  0.89872546  0.74707686  1
  Te  Te135  1  0.56070653  0.24646672  0.09637809  1
  Te  Te136  1  0.59741564  0.24197991  0.39686014  1
  Te  Te137  1  0.56867318  0.25927288  0.74518867  1
  Te  Te138  1  0.58666302  0.59468786  0.07949120  1
  Te  Te139  1  0.59471709  0.59625333  0.40214532  1
  Te  Te140  1  0.62598830  0.55807257  0.72518106  1
  Te  Te141  1  0.55151659  0.92487842  0.07430914  1
  Te  Te142  1  0.57926129  0.90258344  0.42073000  1
  Te  Te143  1  0.60285206  0.89560206  0.74244758  1
  Te  Te144  1  0.92061685  0.26134752  0.10252838  1
  Te  Te145  1  0.94453954  0.23633448  0.44960361  1
  Te  Te146  1  0.90216439  0.25455808  0.73612331  1
  Te  Te147  1  0.91788558  0.57343031  0.08664900  1
  Te  Te148  1  0.93291458  0.58737675  0.43841093  1
  Te  Te149  1  0.90617998  0.58680271  0.74552010  1
  Te  Te150  1  0.91720766  0.91258795  0.09853931  1
  Te  Te151  1  0.87491305  0.89385732  0.45464081  1
  Te  Te152  1  0.91921761  0.90700950  0.76739453  1
  Te  Te153  1  0.25102553  0.10009130  0.29709710  1
  Te  Te154  1  0.25630706  0.09734140  0.55722063  1
  Te  Te155  1  0.24549977  0.07595650  0.92828708  1
  Te  Te156  1  0.24382332  0.41769971  0.25722866  1
  Te  Te157  1  0.21982497  0.41288761  0.58077377  1
  Te  Te158  1  0.24975800  0.40445706  0.89179626  1
  Te  Te159  1  0.27883032  0.73724653  0.27963654  1
  Te  Te160  1  0.27223037  0.74645993  0.58079712  1
  Te  Te161  1  0.23793514  0.73238558  0.89436399  1
  Te  Te162  1  0.55904688  0.06180047  0.25754247  1
  Te  Te163  1  0.59279912  0.06686651  0.61294784  1
  Te  Te164  1  0.57238347  0.08786264  0.90653941  1
  Te  Te165  1  0.57960216  0.41263946  0.25585352  1
  Te  Te166  1  0.55368900  0.44830358  0.57235843  1
  Te  Te167  1  0.59356883  0.41949895  0.90300771  1
  Te  Te168  1  0.57631207  0.75112828  0.26059003  1
  Te  Te169  1  0.57674600  0.72820023  0.58244894  1
  Te  Te170  1  0.58549995  0.71702376  0.90233045  1
  Te  Te171  1  0.90870424  0.07472186  0.27359660  1
  Te  Te172  1  0.92528988  0.08798200  0.57338222  1
  Te  Te173  1  0.92516111  0.07979924  0.94279081  1
  Te  Te174  1  0.92679282  0.43874793  0.25693778  1
  Te  Te175  1  0.93966384  0.42381456  0.63340190  1
  Te  Te176  1  0.91490562  0.42037452  0.91345505  1
  Te  Te177  1  0.91655365  0.75906771  0.25792388  1
  Te  Te178  1  0.93933818  0.77425672  0.55644752  1
  Te  Te179  1  0.91121544  0.74762158  0.91421645  1
