# generated using pymatgen
data_In2Te3
_symmetry_space_group_name_H-M   'P 1'
_cell_length_a   18.81333696
_cell_length_b   18.81659166
_cell_length_c   18.81754164
_cell_angle_alpha   89.95146553
_cell_angle_beta   90.00894368
_cell_angle_gamma   89.97716066
_symmetry_Int_Tables_number   1
_chemical_formula_structural   In2Te3
_chemical_formula_sum   'In72 Te108'
_cell_volume   6661.46091979
_cell_formula_units_Z   36
loop_
 _symmetry_equiv_pos_site_id
 _symmetry_equiv_pos_as_xyz
  1  'x, y, z'
loop_
 _atom_site_type_symbol
 _atom_site_label
 _atom_site_symmetry_multiplicity
 _atom_site_fract_x
 _atom_site_fract_y
 _atom_site_fract_z
 _atom_site_occupancy
  In  In0  1  0.14915738  0.66819378  0.83966126  1
  In  In1  1  0.14718813  0.52253830  0.31541794  1
  In  In2  1  0.84432525  0.82574695  0.01561123  1
  In  In3  1  0.49427150  0.16268629  -0.00496773  1
  In  In4  1  -0.02711788  0.52778654  0.49828511  1
  In  In5  1  0.50160693  0.36204702  0.50702439  1
  In  In6  1  0.82816353  0.18494177  0.69134351  1
  In  In7  1  0.49572187  0.81111491  0.64960628  1
  In  In8  1  0.31990128  0.33094879  0.64454388  1
  In  In9  1  0.18553260  -0.01054080  0.48208917  1
  In  In10  1  0.33934264  0.01794059  0.00504440  1
  In  In11  1  0.34955700  0.17332549  0.50846233  1
  In  In12  1  0.50519192  0.66281173  0.17447636  1
  In  In13  1  0.68530667  0.01010871  0.66661044  1
  In  In14  1  0.65786295  -0.01084038  0.01016122  1
  In  In15  1  0.32903950  0.83811087  0.81670085  1
  In  In16  1  0.50172274  -0.00033036  0.83439580  1
  In  In17  1  0.16835850  0.82377595  0.68414832  1
  In  In18  1  0.15186449  0.18309212  0.30723689  1
  In  In19  1  -0.00340027  0.20168775  0.16097253  1
  In  In20  1  -0.01800674  0.52115039  0.82898469  1
  In  In21  1  0.68492922  0.36560177  0.00048474  1
  In  In22  1  0.48766255  0.34253859  0.15572480  1
  In  In23  1  0.15057175  0.66688810  0.51417800  1
  In  In24  1  0.52557204  0.33583667  0.81922452  1
  In  In25  1  0.32753051  0.47966529  0.49149107  1
  In  In26  1  0.12503899  0.33658642  0.82858914  1
  In  In27  1  -0.01258419  -0.00301432  -0.00324803  1
  In  In28  1  0.01738110  -0.00912107  0.68384683  1
  In  In29  1  0.68199381  0.51907356  0.19050079  1
  In  In30  1  0.81841561  0.00625338  0.49699409  1
  In  In31  1  0.50344995  0.49325569  0.67447439  1
  In  In32  1  0.67588129  0.82484093  0.17814351  1
  In  In33  1  0.69050836  0.82502211  0.82808900  1
  In  In34  1  0.32074418  0.34925284  0.02493480  1
  In  In35  1  0.83457876  0.17702273  -0.00558161  1
  In  In36  1  0.16618474  0.00340164  0.17260665  1
  In  In37  1  0.33100081  0.50428919  0.87504636  1
  In  In38  1  0.34632387  0.15945594  0.82371898  1
  In  In39  1  0.52185140  0.64163198  0.47367709  1
  In  In40  1  -0.02424191  0.65624841  0.02233173  1
  In  In41  1  0.17008128  0.19269011  -0.01660355  1
  In  In42  1  0.67821655  0.49602707  0.83112597  1
  In  In43  1  0.34612181  0.68184780  0.32851747  1
  In  In44  1  0.01501246  0.01406764  0.33903547  1
  In  In45  1  -0.02149274  0.81418678  0.50308697  1
  In  In46  1  0.84920010  0.34324154  0.83935498  1
  In  In47  1  0.83504688  0.18128350  0.33302361  1
  In  In48  1  0.14548296  0.16249246  0.65479111  1
  In  In49  1  0.67037622  0.79281965  0.48447444  1
  In  In50  1  0.50613263  0.16789939  0.32643831  1
  In  In51  1  0.65352772  0.33059503  0.66600024  1
  In  In52  1  0.68969256  0.65423381  -0.00873745  1
  In  In53  1  0.83863492  0.79239532  0.31080138  1
  In  In54  1  0.82809962  0.37498434  0.49577633  1
  In  In55  1  0.32409938  0.83249953  0.18655531  1
  In  In56  1  0.67133750  0.15902302  0.17043791  1
  In  In57  1  0.29763196  0.36834058  0.30752092  1
  In  In58  1  0.31696638  0.66652677  0.66608681  1
  In  In59  1  0.50577703  0.82732187  0.32147804  1
  In  In60  1  0.70128353  0.34594711  0.33284024  1
  In  In61  1  0.66356022  0.15313467  0.49968303  1
  In  In62  1  -0.00961704  0.47390657  0.16517262  1
  In  In63  1  0.31860895  0.15659302  0.15338150  1
  In  In64  1  -0.00927762  0.82377358  0.83756589  1
  In  In65  1  0.16762226  0.81275370  0.32988975  1
  In  In66  1  0.15931366  0.33605485  0.49728458  1
  In  In67  1  0.49740807  -0.03533765  0.50330753  1
  In  In68  1  0.84028268  0.79831102  0.66933219  1
  In  In69  1  0.13872316  0.81779319  -0.00636301  1
  In  In70  1  -0.02938185  0.19174267  0.50584937  1
  In  In71  1  0.51567355  0.80464582  0.01164357  1
  Te  Te72  1  0.08831330  0.09633813  0.08091057  1
  Te  Te73  1  0.08645269  0.11018525  0.43449880  1
  Te  Te74  1  0.07017876  0.10097670  0.76576314  1
  Te  Te75  1  0.11893474  0.43178880  0.10429578  1
  Te  Te76  1  0.07839211  0.43828586  0.42023865  1
  Te  Te77  1  0.07523146  0.44476576  0.74176256  1
  Te  Te78  1  0.06418650  0.74944408  0.10047735  1
  Te  Te79  1  0.06363202  0.73186281  0.40703754  1
  Te  Te80  1  0.05836572  0.73344289  0.73394782  1
  Te  Te81  1  0.43899575  0.07464712  0.10605746  1
  Te  Te82  1  0.42609054  0.07699018  0.42002391  1
  Te  Te83  1  0.41725225  0.06721520  0.73470204  1
  Te  Te84  1  0.40702564  0.45110376  0.09237718  1
  Te  Te85  1  0.42246282  0.41924780  0.39053725  1
  Te  Te86  1  0.40097306  0.40877073  0.75188404  1
  Te  Te87  1  0.40311293  0.74110252  0.09118852  1
  Te  Te88  1  0.42916502  0.75520909  0.43362421  1
  Te  Te89  1  0.42071152  0.73177449  0.75763180  1
  Te  Te90  1  0.76221347  0.07211767  0.08472325  1
  Te  Te91  1  0.73692951  0.07780003  0.38944046  1
  Te  Te92  1  0.76437147  0.07741645  0.76951698  1
  Te  Te93  1  0.76986495  0.43353936  0.10106646  1
  Te  Te94  1  0.74654214  0.47126976  0.40999859  1
  Te  Te95  1  0.76074121  0.41322833  0.73253101  1
  Te  Te96  1  0.76472481  0.72824988  0.10138286  1
  Te  Te97  1  0.77910496  0.70960400  0.42261446  1
  Te  Te98  1  0.74825853  0.70896363  0.74872643  1
  Te  Te99  1  0.06682447  0.29591768  0.25761434  1
  Te  Te100  1  0.06004950  0.27527830  0.59629581  1
  Te  Te101  1  0.04916848  0.26737610  0.93769424  1
  Te  Te102  1  0.04404551  0.60033810  0.23803334  1
  Te  Te103  1  0.07536450  0.57531565  0.60029862  1
  Te  Te104  1  0.07899947  0.57897754  0.93962441  1
  Te  Te105  1  0.07627845  0.90765963  0.24892497  1
  Te  Te106  1  0.08022893  0.91098880  0.56618900  1
  Te  Te107  1  0.08564754  0.92432308  0.90008676  1
  Te  Te108  1  0.40066758  0.25437136  0.24878246  1
  Te  Te109  1  0.44330232  0.25349979  0.59822004  1
  Te  Te110  1  0.40590591  0.26229796  0.92178352  1
  Te  Te111  1  0.42149397  0.57566706  0.26042839  1
  Te  Te112  1  0.41126851  0.57712686  0.57819132  1
  Te  Te113  1  0.42276262  0.60337512  0.93783139  1
  Te  Te114  1  0.41264835  0.92395412  0.25913424  1
  Te  Te115  1  0.39940270  0.91077331  0.59940089  1
  Te  Te116  1  0.42248446  0.90870105  0.93079231  1
  Te  Te117  1  0.76863619  0.26413224  0.22203806  1
  Te  Te118  1  0.76194032  0.24895072  0.56573999  1
  Te  Te119  1  0.73835787  0.25989650  0.90653231  1
  Te  Te120  1  0.78863834  0.58298913  0.27424530  1
  Te  Te121  1  0.78907399  0.60483540  0.61588471  1
  Te  Te122  1  0.77954458  0.55745179  0.92195840  1
  Te  Te123  1  0.77174031  0.90973738  0.25102946  1
  Te  Te124  1  0.74953894  0.89407315  0.57847539  1
  Te  Te125  1  0.76198195  0.91797294  0.92373635  1
  Te  Te126  1  0.22197348  0.26439447  0.10840319  1
  Te  Te127  1  0.26002471  0.25596184  0.41428802  1
  Te  Te128  1  0.24128207  0.25161698  0.74972065  1
  Te  Te129  1  0.29946955  0.57039315  0.01134163  1
  Te  Te130  1  0.25150910  0.58979527  0.41736584  1
  Te  Te131  1  0.24581141  0.57730366  0.76440306  1
  Te  Te132  1  0.24568594  0.91587421  0.07408493  1
  Te  Te133  1  0.26569320  0.90422014  0.39350765  1
  Te  Te134  1  0.23860655  0.93359138  0.75088733  1
  Te  Te135  1  0.58852703  0.25510752  0.07530165  1
  Te  Te136  1  0.59271680  0.26366136  0.41763088  1
  Te  Te137  1  0.59005530  0.22566250  0.74747329  1
  Te  Te138  1  0.59142462  0.57796333  0.08056330  1
  Te  Te139  1  0.61574333  0.55846702  0.40004507  1
  Te  Te140  1  0.57830315  0.58220791  0.76351621  1
  Te  Te141  1  0.57053469  0.90950395  0.10643519  1
  Te  Te142  1  0.60369487  0.90781298  0.40980163  1
  Te  Te143  1  0.58878093  0.90392084  0.74331501  1
  Te  Te144  1  0.92767650  0.28041813  0.05440189  1
  Te  Te145  1  0.92369221  0.29067357  0.39789125  1
  Te  Te146  1  0.93840946  0.25286668  0.76112864  1
  Te  Te147  1  0.88658426  0.55426352  0.08877469  1
  Te  Te148  1  0.89852240  0.59385527  0.38402392  1
  Te  Te149  1  0.87587628  0.58342773  0.73287351  1
  Te  Te150  1  0.92763770  0.91232516  0.10075887  1
  Te  Te151  1  0.91402690  0.92132481  0.41239008  1
  Te  Te152  1  0.90248842  0.91319995  0.74961009  1
  Te  Te153  1  0.25618430  0.07784543  0.27050980  1
  Te  Te154  1  0.25404236  0.08116512  0.58425300  1
  Te  Te155  1  0.24280616  0.08155034  0.90729198  1
  Te  Te156  1  0.23229050  0.46213290  0.20437178  1
  Te  Te157  1  0.22456825  0.43773234  0.59479729  1
  Te  Te158  1  0.22006333  0.40985561  0.92710095  1
  Te  Te159  1  0.23369588  0.71725850  0.22905333  1
  Te  Te160  1  0.25221142  0.76675428  0.57037948  1
  Te  Te161  1  0.25176462  0.75024300  0.91715090  1
  Te  Te162  1  0.58764856  0.07030948  0.25243171  1
  Te  Te163  1  0.57160801  0.07278743  0.58723840  1
  Te  Te164  1  0.59795960  0.08979636  0.91130257  1
  Te  Te165  1  0.58880354  0.40966549  0.24785970  1
  Te  Te166  1  0.60901876  0.44617241  0.57364277  1
  Te  Te167  1  0.56778232  0.43063997  0.92729729  1
  Te  Te168  1  0.60618128  0.72508835  0.27051974  1
  Te  Te169  1  0.59530729  0.71164366  0.58964971  1
  Te  Te170  1  0.59102234  0.73354011  0.90337755  1
  Te  Te171  1  0.92486286  0.09378094  0.24492856  1
  Te  Te172  1  0.91571872  0.07685376  0.59087400  1
  Te  Te173  1  0.91630245  0.08917582  0.90700325  1
  Te  Te174  1  0.93173646  0.38682730  0.27104146  1
  Te  Te175  1  0.92135013  0.42719326  0.59607940  1
  Te  Te176  1  0.91768569  0.43609020  0.93330665  1
  Te  Te177  1  0.94400182  0.72213866  0.23572900  1
  Te  Te178  1  0.90744303  0.70068366  0.57398572  1
  Te  Te179  1  0.89910494  0.72912025  0.90984083  1
