# generated using pymatgen
data_In2Te3
_symmetry_space_group_name_H-M   'P 1'
_cell_length_a   18.81416755
_cell_length_b   18.79254666
_cell_length_c   18.82155300
_cell_angle_alpha   89.96536657
_cell_angle_beta   89.88482134
_cell_angle_gamma   90.07486748
_symmetry_Int_Tables_number   1
_chemical_formula_structural   In2Te3
_chemical_formula_sum   'In72 Te108'
_cell_volume   6654.64314287
_cell_formula_units_Z   36
loop_
 _symmetry_equiv_pos_site_id
 _symmetry_equiv_pos_as_xyz
  1  'x, y, z'
loop_
 _atom_site_type_symbol
 _atom_site_label
 _atom_site_symmetry_multiplicity
 _atom_site_fract_x
 _atom_site_fract_y
 _atom_site_fract_z
 _atom_site_occupancy
  In  In0  1  0.53343872  0.18042551  0.00153876  1
  In  In1  1  0.33668304  -0.01667980  0.36378344  1
  In  In2  1  0.83997380  0.64056700  0.15215189  1
  In  In3  1  -0.00998527  0.82638971  0.84536003  1
  In  In4  1  0.66302198  0.34130966  0.01136577  1
  In  In5  1  0.85908417  0.52040063  0.36132912  1
  In  In6  1  0.01143070  0.17217294  0.83225203  1
  In  In7  1  0.32113987  0.78608901  0.16426713  1
  In  In8  1  0.34035589  0.52043025  0.15884216  1
  In  In9  1  -0.01518046  -0.00932867  0.32006609  1
  In  In10  1  -0.00562955  0.16130471  0.52465331  1
  In  In11  1  0.35719562  0.18463166  0.19217544  1
  In  In12  1  0.15038420  0.36731330  0.14560479  1
  In  In13  1  0.83891864  0.17519742  0.00361086  1
  In  In14  1  0.50289091  0.65570119  0.49896226  1
  In  In15  1  -0.01940772  0.81294924  0.14488354  1
  In  In16  1  0.50940572  0.01985323  0.17802895  1
  In  In17  1  0.32344050  0.16712401  0.81583952  1
  In  In18  1  0.82068510  0.32713783  0.50049855  1
  In  In19  1  0.68894096  0.35321641  0.33783120  1
  In  In20  1  -0.00568986  0.33086759  0.65464068  1
  In  In21  1  0.85457015  0.35281531  0.81449291  1
  In  In22  1  0.17209663  0.00115202  0.50447592  1
  In  In23  1  0.63485528  0.16409592  0.16002132  1
  In  In24  1  0.82097812  -0.01274325  0.83031082  1
  In  In25  1  0.65774412  0.15659904  0.83305180  1
  In  In26  1  0.02403761  0.34233039  0.33806866  1
  In  In27  1  0.17082166  0.18307454  0.66042020  1
  In  In28  1  0.68904503  0.79378418  0.80725945  1
  In  In29  1  0.69262865  0.83460431  0.52209675  1
  In  In30  1  0.31333377  0.83789589  0.50418916  1
  In  In31  1  0.81914801  0.50670610  0.65657853  1
  In  In32  1  0.50827886  0.00521480  0.48366174  1
  In  In33  1  0.79807591  0.16001377  0.35601038  1
  In  In34  1  -0.00331451  0.17993848  0.16591258  1
  In  In35  1  0.15810945  0.16970605  -0.00493229  1
  In  In36  1  0.67930057  0.16247920  0.50236079  1
  In  In37  1  0.32541037  0.35222227  0.00590187  1
  In  In38  1  0.00329955  0.66644531  -0.01965980  1
  In  In39  1  -0.01636911  -0.00235619  0.67266544  1
  In  In40  1  0.16424416  0.65210766  0.49655155  1
  In  In41  1  0.51787949  0.85806322  0.66991026  1
  In  In42  1  0.69323852  0.81384409  0.16151033  1
  In  In43  1  0.48775267  0.16090748  0.65910998  1
  In  In44  1  0.48212596  0.82115027  0.00143703  1
  In  In45  1  0.15872847  0.51307692  0.32833062  1
  In  In46  1  0.00063139  0.80355304  0.52221475  1
  In  In47  1  0.82982261  0.82858847  0.33270799  1
  In  In48  1  0.31430250  0.66634170  -0.00167597  1
  In  In49  1  0.83960889  0.36427352  0.16753728  1
  In  In50  1  0.84637540  -0.04066296  0.15913981  1
  In  In51  1  0.63779768  0.51756337  0.15019451  1
  In  In52  1  0.33451625  0.64870795  0.32139322  1
  In  In53  1  0.02171258  0.50127833  0.84486350  1
  In  In54  1  0.00096395  0.67380977  0.68984129  1
  In  In55  1  0.69496124  0.53261977  0.83794911  1
  In  In56  1  0.51552371  0.21342346  0.33815054  1
  In  In57  1  0.33825551  0.66154554  0.66351643  1
  In  In58  1  0.18576272  0.49229488  0.65656591  1
  In  In59  1  0.29479456  -0.02565959  0.69828877  1
  In  In60  1  0.33142127  0.22189176  0.49404923  1
  In  In61  1  0.52594896  0.47595522  0.64935752  1
  In  In62  1  0.19818338  0.16926478  0.36050836  1
  In  In63  1  0.50385823  0.34574710  0.84130971  1
  In  In64  1  0.66824576  -0.00745776  -0.01067806  1
  In  In65  1  0.30946928  0.49541834  0.84341939  1
  In  In66  1  0.49328864  0.65981833  0.83250105  1
  In  In67  1  0.50344307  0.82458776  0.31177639  1
  In  In68  1  0.34129928  -0.00835874  -0.02139484  1
  In  In69  1  0.15755589  0.83039867  -0.02104942  1
  In  In70  1  0.65774130  0.64942602  0.35597108  1
  In  In71  1  0.15953245  -0.00263766  0.15991827  1
  Te  Te72  1  0.06249070  0.07730804  0.07437183  1
  Te  Te73  1  0.07328714  0.08111653  0.40991522  1
  Te  Te74  1  0.09264177  0.07895360  0.74277870  1
  Te  Te75  1  0.04713936  0.44307037  0.07556757  1
  Te  Te76  1  0.06878098  0.44934949  0.42881041  1
  Te  Te77  1  0.09069534  0.40614813  0.74317352  1
  Te  Te78  1  0.09668658  0.73707025  0.08285900  1
  Te  Te79  1  0.06219098  0.72294101  0.41002500  1
  Te  Te80  1  0.09749117  0.76678113  0.75830955  1
  Te  Te81  1  0.41658481  0.09059935  0.07828304  1
  Te  Te82  1  0.41722632  0.10853668  0.41341211  1
  Te  Te83  1  0.41097275  0.06233896  0.74854708  1
  Te  Te84  1  0.42670001  0.43113726  0.07515134  1
  Te  Te85  1  0.38402872  0.36584787  0.47013726  1
  Te  Te86  1  0.41535324  0.43276276  0.75395768  1
  Te  Te87  1  0.44008786  0.70904898  0.10064126  1
  Te  Te88  1  0.40882347  0.75605756  0.41760001  1
  Te  Te89  1  0.42171978  0.76119067  0.74302896  1
  Te  Te90  1  0.74736278  0.08126334  0.08604089  1
  Te  Te91  1  0.74956500  0.04371659  0.43818510  1
  Te  Te92  1  0.74897283  0.08332449  0.74447928  1
  Te  Te93  1  0.75548747  0.44588626  0.07134760  1
  Te  Te94  1  0.74912240  0.45062612  0.44060420  1
  Te  Te95  1  0.73564762  0.41254108  0.74412316  1
  Te  Te96  1  0.76036360  0.72781236  0.05989235  1
  Te  Te97  1  0.76141242  0.73244388  0.43079265  1
  Te  Te98  1  0.76008181  0.71071209  0.69953984  1
  Te  Te99  1  0.10433013  0.24250999  0.25093779  1
  Te  Te100  1  0.09552699  0.26770444  0.55696084  1
  Te  Te101  1  0.08659781  0.26916830  0.91362212  1
  Te  Te102  1  0.12654926  0.60904972  0.22024103  1
  Te  Te103  1  0.07411241  0.57661649  0.59491895  1
  Te  Te104  1  0.11404387  0.59790788  0.90830039  1
  Te  Te105  1  0.07459779  0.89900373  0.23939165  1
  Te  Te106  1  0.08499617  0.91339638  0.59252157  1
  Te  Te107  1  0.06458337  0.92978239  0.92294452  1
  Te  Te108  1  0.41537331  0.29579364  0.26842616  1
  Te  Te109  1  0.40892496  0.27913159  0.61265479  1
  Te  Te110  1  0.41475057  0.24471533  0.91938773  1
  Te  Te111  1  0.43536155  0.55533409  0.26974460  1
  Te  Te112  1  0.41431232  0.56105973  0.58004085  1
  Te  Te113  1  0.41166681  0.57245591  0.92724666  1
  Te  Te114  1  0.40596588  0.91546568  0.23938138  1
  Te  Te115  1  0.40783865  0.92952578  0.57963065  1
  Te  Te116  1  0.43130282  0.91041791  0.89522936  1
  Te  Te117  1  0.75107951  0.25499540  0.23360346  1
  Te  Te118  1  0.75910527  0.23931745  0.60064503  1
  Te  Te119  1  0.74800400  0.25916194  0.91350685  1
  Te  Te120  1  0.75162770  0.57286875  0.25623073  1
  Te  Te121  1  0.72807051  0.60486371  0.59426217  1
  Te  Te122  1  0.77216961  0.62222235  0.92742415  1
  Te  Te123  1  0.73545971  0.92441328  0.25857963  1
  Te  Te124  1  0.76894584  0.95081048  0.56985507  1
  Te  Te125  1  0.75031717  0.88714518  0.92137647  1
  Te  Te126  1  0.25052818  0.24187033  0.09495712  1
  Te  Te127  1  0.23734290  0.30443453  0.40660279  1
  Te  Te128  1  0.24962774  0.27305586  0.74664639  1
  Te  Te129  1  0.22508326  0.58239598  0.08478043  1
  Te  Te130  1  0.26869913  0.56478338  0.42997699  1
  Te  Te131  1  0.23698154  0.59907321  0.75902330  1
  Te  Te132  1  0.25995072  0.90901528  0.08319956  1
  Te  Te133  1  0.21551244  0.89521528  0.40190057  1
  Te  Te134  1  0.22297834  0.87641374  0.78015208  1
  Te  Te135  1  0.55807482  0.28426342  0.10898852  1
  Te  Te136  1  0.59059427  0.28439637  0.45222231  1
  Te  Te137  1  0.57892019  0.25364743  0.74562246  1
  Te  Te138  1  0.57173927  0.62461981  0.07558209  1
  Te  Te139  1  0.56198054  0.55001646  0.41334164  1
  Te  Te140  1  0.58871222  0.58470014  0.74046569  1
  Te  Te141  1  0.58127762  0.91157784  0.09271823  1
  Te  Te142  1  0.58540909  0.89089422  0.42048176  1
  Te  Te143  1  0.62347618  0.91634329  0.75386392  1
  Te  Te144  1  0.92763689  0.27814996  0.07277616  1
  Te  Te145  1  0.91745616  0.24445870  0.40411429  1
  Te  Te146  1  0.90936647  0.23364979  0.73612622  1
  Te  Te147  1  0.94624792  0.56330399  0.07780212  1
  Te  Te148  1  0.94613720  0.61845611  0.42762017  1
  Te  Te149  1  0.91267684  0.57062262  0.75944312  1
  Te  Te150  1  0.91847960  0.90228175  0.04464950  1
  Te  Te151  1  0.92454848  0.90242050  0.42703598  1
  Te  Te152  1  0.89823059  0.89140607  0.74005023  1
  Te  Te153  1  0.25761589  0.07232955  0.25193101  1
  Te  Te154  1  0.26576757  0.09391363  0.57952434  1
  Te  Te155  1  0.23770271  0.07502336  0.90408595  1
  Te  Te156  1  0.25094913  0.42299534  0.24129388  1
  Te  Te157  1  0.27001922  0.40970482  0.56747127  1
  Te  Te158  1  0.21800335  0.41298854  0.92668794  1
  Te  Te159  1  0.22239034  0.72984424  0.26225639  1
  Te  Te160  1  0.23216325  0.74909704  0.59475428  1
  Te  Te161  1  0.27577752  0.77577649  0.90299436  1
  Te  Te162  1  0.59147579  0.08904780  0.28589706  1
  Te  Te163  1  0.59060363  0.07016409  0.59281495  1
  Te  Te164  1  0.56137177  0.06343913  0.90723387  1
  Te  Te165  1  0.58866527  0.42606734  0.25706883  1
  Te  Te166  1  0.60913174  0.40432046  0.55240818  1
  Te  Te167  1  0.59427739  0.44057203  0.91829720  1
  Te  Te168  1  0.59323793  0.72673671  0.23974569  1
  Te  Te169  1  0.58468901  0.74686207  0.58900479  1
  Te  Te170  1  0.58593642  0.74783153  0.91543723  1
  Te  Te171  1  0.89795062  0.08910601  0.24142226  1
  Te  Te172  1  0.89139380  0.06803013  0.57620616  1
  Te  Te173  1  0.91392970  0.08283324  0.91061180  1
  Te  Te174  1  0.93730882  0.43972208  0.25718304  1
  Te  Te175  1  0.91638735  0.42702195  0.56752372  1
  Te  Te176  1  0.91708128  0.42803048  0.92329250  1
  Te  Te177  1  0.91531097  0.72925249  0.25352877  1
  Te  Te178  1  0.89273883  0.73949561  0.60555469  1
  Te  Te179  1  0.89178828  0.71964047  0.89318962  1
