# generated using pymatgen
data_In2Te3
_symmetry_space_group_name_H-M   'P 1'
_cell_length_a   18.89271317
_cell_length_b   18.88846223
_cell_length_c   18.89085611
_cell_angle_alpha   90.09950470
_cell_angle_beta   89.93514023
_cell_angle_gamma   90.19096777
_symmetry_Int_Tables_number   1
_chemical_formula_structural   In2Te3
_chemical_formula_sum   'In72 Te108'
_cell_volume   6741.23133401
_cell_formula_units_Z   36
loop_
 _symmetry_equiv_pos_site_id
 _symmetry_equiv_pos_as_xyz
  1  'x, y, z'
loop_
 _atom_site_type_symbol
 _atom_site_label
 _atom_site_symmetry_multiplicity
 _atom_site_fract_x
 _atom_site_fract_y
 _atom_site_fract_z
 _atom_site_occupancy
  In  In0  1  0.67840977  0.33983384  0.64201424  1
  In  In1  1  0.85616110  0.49009710  0.66410507  1
  In  In2  1  0.85185838  0.65845235  0.49628797  1
  In  In3  1  0.67512477  0.67816306  0.65680286  1
  In  In4  1  0.53067376  0.64299379  0.15312121  1
  In  In5  1  0.35267280  0.17586327  0.81599363  1
  In  In6  1  0.49621671  0.33099864  0.14457230  1
  In  In7  1  0.69462548  0.82161894  0.80980643  1
  In  In8  1  0.66742946  0.32893968  0.32612515  1
  In  In9  1  0.13059075  0.83146980  0.33140409  1
  In  In10  1  0.30782898  0.35145437  0.33438474  1
  In  In11  1  0.33509194  0.65115367  0.32916036  1
  In  In12  1  0.82779710  0.50627756  0.29115178  1
  In  In13  1  0.82209352  0.15956056  0.01409295  1
  In  In14  1  0.54084143  -0.02207487  0.85478896  1
  In  In15  1  0.00001132  0.00752852  -0.00162531  1
  In  In16  1  0.31075747  0.64284220  -0.03911204  1
  In  In17  1  0.67468250  -0.01891517  0.67997459  1
  In  In18  1  0.68688632  -0.02117925  0.32330386  1
  In  In19  1  0.69958624  0.19091779  0.84361173  1
  In  In20  1  0.50354533  0.37723165  0.82991806  1
  In  In21  1  0.29418638  0.36753378  0.68244685  1
  In  In22  1  -0.00421711  0.22132194  0.80831098  1
  In  In23  1  0.31893419  0.17643065  0.16286286  1
  In  In24  1  0.69773657  0.84962987  0.16401717  1
  In  In25  1  0.13961452  0.65839086  0.15034083  1
  In  In26  1  -0.00245353  0.17426597  0.17630318  1
  In  In27  1  0.33562462  0.00343168  0.03813138  1
  In  In28  1  -0.00987591  0.34184508  0.33292299  1
  In  In29  1  0.16016529  0.49716001  -0.01078381  1
  In  In30  1  -0.01230020  0.66362152  0.67099885  1
  In  In31  1  0.15328847  0.51789960  0.32066884  1
  In  In32  1  0.65137441  0.48384941  0.48813612  1
  In  In33  1  0.84285413  0.17056436  0.33913923  1
  In  In34  1  0.31634579  0.81727753  0.49232591  1
  In  In35  1  -0.01999196  0.47568327  0.51813041  1
  In  In36  1  0.85696479  0.34802568  0.52198779  1
  In  In37  1  0.66192827  0.02837552  0.02342301  1
  In  In38  1  0.69530656  0.63539853  0.01688660  1
  In  In39  1  0.85103553  0.83428864  -0.01012338  1
  In  In40  1  -0.03053769  0.39256095  0.00955607  1
  In  In41  1  0.33112649  0.00175524  0.34176506  1
  In  In42  1  0.66861470  0.17676816  0.17616001  1
  In  In43  1  0.15520694  0.20578303  0.65036293  1
  In  In44  1  0.30032665  0.81192135  0.12933163  1
  In  In45  1  0.49975239  0.81346574  -0.02542064  1
  In  In46  1  0.31383000  0.16139374  0.50147235  1
  In  In47  1  0.47995526  0.31760631  0.49175726  1
  In  In48  1  0.31921344  0.02013129  0.65675536  1
  In  In49  1  0.13774846  0.15236252  0.35424690  1
  In  In50  1  0.84686111  -0.00567353  0.84608726  1
  In  In51  1  0.14479316  0.19711386  -0.02387782  1
  In  In52  1  0.49233015  0.47775266  0.34476426  1
  In  In53  1  0.00539844  0.00354918  0.65448566  1
  In  In54  1  0.00889770  0.81741973  0.81765589  1
  In  In55  1  0.51088604  0.16512741  0.67031173  1
  In  In56  1  0.48517713  0.00563902  0.52024850  1
  In  In57  1  0.17746480  0.01848167  0.84209960  1
  In  In58  1  0.68220805  0.81192159  0.48532914  1
  In  In59  1  0.33354354  0.80709392  0.82554929  1
  In  In60  1  0.84867877  -0.00548120  0.49099394  1
  In  In61  1  -0.01981726  0.81405365  0.18358719  1
  In  In62  1  0.14974567  0.82180579  0.65490090  1
  In  In63  1  0.54028481  0.19902039  0.32160833  1
  In  In64  1  0.47015886  -0.00396553  0.15916238  1
  In  In65  1  0.50330145  0.64889291  0.83167145  1
  In  In66  1  0.32360475  0.34286233  -0.01007016  1
  In  In67  1  0.48780914  0.62558396  0.52682445  1
  In  In68  1  -0.01812665  0.63464089  0.00861269  1
  In  In69  1  0.51722571  0.82167404  0.32150892  1
  In  In70  1  0.14971283  0.67768797  0.48844979  1
  In  In71  1  0.67286263  0.51133486  0.84310094  1
  Te  Te72  1  0.09098988  0.09828373  0.07871579  1
  Te  Te73  1  0.06310570  0.06294749  0.44408206  1
  Te  Te74  1  0.08316368  0.10061254  0.75691920  1
  Te  Te75  1  0.07958092  0.43598300  0.09746592  1
  Te  Te76  1  0.08539310  0.42222218  0.41906676  1
  Te  Te77  1  0.15441169  0.44121495  0.74981309  1
  Te  Te78  1  0.06216493  0.75720826  0.06861100  1
  Te  Te79  1  0.04337072  0.74055044  0.40827383  1
  Te  Te80  1  0.10713780  0.71846419  0.75847093  1
  Te  Te81  1  0.43183299  0.11896544  0.07816197  1
  Te  Te82  1  0.42547058  0.09904421  0.41561693  1
  Te  Te83  1  0.43629559  0.06024965  0.75534001  1
  Te  Te84  1  0.40340899  0.42439106  0.08388470  1
  Te  Te85  1  0.38633451  0.42681404  0.44215407  1
  Te  Te86  1  0.41318225  0.44854819  0.73257394  1
  Te  Te87  1  0.42772506  0.74081850  0.08764905  1
  Te  Te88  1  0.42574376  0.74004250  0.41752397  1
  Te  Te89  1  0.41429976  0.72284481  0.73979207  1
  Te  Te90  1  0.76585071  0.07011623  0.12442243  1
  Te  Te91  1  0.74234656  0.08365565  0.41441865  1
  Te  Te92  1  0.76090193  0.08210528  0.75586292  1
  Te  Te93  1  0.79383598  0.46616447  0.12236643  1
  Te  Te94  1  0.76802078  0.41132835  0.41395576  1
  Te  Te95  1  0.75188943  0.41748746  0.74905132  1
  Te  Te96  1  0.77705097  0.74405354  0.08791586  1
  Te  Te97  1  0.76106638  0.72422199  0.39602966  1
  Te  Te98  1  0.78271696  0.72444993  0.74573437  1
  Te  Te99  1  0.09370101  0.26149267  0.25554382  1
  Te  Te100  1  0.04618783  0.25841128  0.56892122  1
  Te  Te101  1  0.06229888  0.30668491  0.91312760  1
  Te  Te102  1  0.05787451  0.61652293  0.26558385  1
  Te  Te103  1  0.07559208  0.57955195  0.58055738  1
  Te  Te104  1  0.08248021  0.59336060  0.90867817  1
  Te  Te105  1  0.06425699  0.92325888  0.23876117  1
  Te  Te106  1  0.06871220  0.90420945  0.56274095  1
  Te  Te107  1  0.08337922  0.91848947  0.90761305  1
  Te  Te108  1  0.41000687  0.25497943  0.26459327  1
  Te  Te109  1  0.39801564  0.24175051  0.60342905  1
  Te  Te110  1  0.42950803  0.26726359  0.90779143  1
  Te  Te111  1  0.42636723  0.56970690  0.24138945  1
  Te  Te112  1  0.39237989  0.56278407  0.61993778  1
  Te  Te113  1  0.42539882  0.56172641  0.92088376  1
  Te  Te114  1  0.40108027  0.89602421  0.25434084  1
  Te  Te115  1  0.39806714  0.90530624  0.59102791  1
  Te  Te116  1  0.40816121  0.92502059  0.92320378  1
  Te  Te117  1  0.77476720  0.26566508  0.23980598  1
  Te  Te118  1  0.77872280  0.24203968  0.59393671  1
  Te  Te119  1  0.77130988  0.27597073  0.93885334  1
  Te  Te120  1  0.71898917  0.56155022  0.21048466  1
  Te  Te121  1  0.74876142  0.56276793  0.57537933  1
  Te  Te122  1  0.78880031  0.56106047  0.92618146  1
  Te  Te123  1  0.79573042  0.88862236  0.27517380  1
  Te  Te124  1  0.75825310  0.90062929  0.58138190  1
  Te  Te125  1  0.73659527  0.92494190  0.92726119  1
  Te  Te126  1  0.22802107  0.26818989  0.08410429  1
  Te  Te127  1  0.22798081  0.25939554  0.42759251  1
  Te  Te128  1  0.23392767  0.25653290  0.77101426  1
  Te  Te129  1  0.25352541  0.58250274  0.08743984  1
  Te  Te130  1  0.25124955  0.57935185  0.43006066  1
  Te  Te131  1  0.26184009  0.53737650  0.72139002  1
  Te  Te132  1  0.22235973  0.92988342  0.09509328  1
  Te  Te133  1  0.23203468  0.91656350  0.41767502  1
  Te  Te134  1  0.24042580  0.91777043  0.74490227  1
  Te  Te135  1  0.60798737  0.26412991  0.07607476  1
  Te  Te136  1  0.60885443  0.24993922  0.44657772  1
  Te  Te137  1  0.59013681  0.26376752  0.75380267  1
  Te  Te138  1  0.57718693  0.54932504  0.04744305  1
  Te  Te139  1  0.57937601  0.58821703  0.40696076  1
  Te  Te140  1  0.59160252  0.57582586  0.73154382  1
  Te  Te141  1  0.57627093  0.90984550  0.07954688  1
  Te  Te142  1  0.57590538  0.92067216  0.42284401  1
  Te  Te143  1  0.57340179  0.88344856  0.74040634  1
  Te  Te144  1  0.92141267  0.25788187  0.07676453  1
  Te  Te145  1  0.93718358  0.24352496  0.43691821  1
  Te  Te146  1  0.88134276  0.27679829  0.73364650  1
  Te  Te147  1  0.91123953  0.56916059  0.12301997  1
  Te  Te148  1  0.91893643  0.55934300  0.40510577  1
  Te  Te149  1  0.94634067  0.55198003  0.76697403  1
  Te  Te150  1  0.91332556  0.92713866  0.09068243  1
  Te  Te151  1  0.96662802  0.94931850  0.41465418  1
  Te  Te152  1  0.91511957  0.90972301  0.74243090  1
  Te  Te153  1  0.23981023  0.08388151  0.25426582  1
  Te  Te154  1  0.20862093  0.07903583  0.57390677  1
  Te  Te155  1  0.26689500  0.10534950  0.92928075  1
  Te  Te156  1  0.24202682  0.43591943  0.23594135  1
  Te  Te157  1  0.18850048  0.43089030  0.60167422  1
  Te  Te158  1  0.25126811  0.42835242  0.89225832  1
  Te  Te159  1  0.24016988  0.74326840  0.25424739  1
  Te  Te160  1  0.25245199  0.72682053  0.59417948  1
  Te  Te161  1  0.24266144  0.76947887  0.93309378  1
  Te  Te162  1  0.57593344  0.06376957  0.24986354  1
  Te  Te163  1  0.60162240  0.07832119  0.58606769  1
  Te  Te164  1  0.58883486  0.10675673  0.91706248  1
  Te  Te165  1  0.58430704  0.41849519  0.23862551  1
  Te  Te166  1  0.55835013  0.41226722  0.58429735  1
  Te  Te167  1  0.60294880  0.41506735  0.93300874  1
  Te  Te168  1  0.61308416  0.74327300  0.23669070  1
  Te  Te169  1  0.57205505  0.74702227  0.57003589  1
  Te  Te170  1  0.61554750  0.73509285  0.91567688  1
  Te  Te171  1  0.92881176  0.07727249  0.26433010  1
  Te  Te172  1  0.90379597  0.08775473  0.59187223  1
  Te  Te173  1  0.92885533  0.10876937  0.90614794  1
  Te  Te174  1  0.93261245  0.42394526  0.21968818  1
  Te  Te175  1  0.97261740  0.36963710  0.64755454  1
  Te  Te176  1  0.90981754  0.46070906  0.89315131  1
  Te  Te177  1  0.87553662  0.75423527  0.27033751  1
  Te  Te178  1  0.91929953  0.75733080  0.58081661  1
  Te  Te179  1  0.91628342  0.73192549  0.90246766  1
