# generated using pymatgen
data_In2Te3
_symmetry_space_group_name_H-M   'P 1'
_cell_length_a   18.79968678
_cell_length_b   18.80395589
_cell_length_c   18.79010992
_cell_angle_alpha   90.00868775
_cell_angle_beta   89.90862024
_cell_angle_gamma   89.88809816
_symmetry_Int_Tables_number   1
_chemical_formula_structural   In2Te3
_chemical_formula_sum   'In72 Te108'
_cell_volume   6642.44201797
_cell_formula_units_Z   36
loop_
 _symmetry_equiv_pos_site_id
 _symmetry_equiv_pos_as_xyz
  1  'x, y, z'
loop_
 _atom_site_type_symbol
 _atom_site_label
 _atom_site_symmetry_multiplicity
 _atom_site_fract_x
 _atom_site_fract_y
 _atom_site_fract_z
 _atom_site_occupancy
  In  In0  1  0.14067117  0.81399811  0.36600029  1
  In  In1  1  0.66418050  0.65540370  0.34307572  1
  In  In2  1  -0.01106824  0.31779804  0.34366011  1
  In  In3  1  0.67943415  0.83812064  0.16661246  1
  In  In4  1  0.17446743  0.48831449  -0.00999857  1
  In  In5  1  0.50266126  0.83427728  0.65028714  1
  In  In6  1  0.49590791  0.01566894  0.17818245  1
  In  In7  1  0.84700215  0.70779452  0.52748665  1
  In  In8  1  0.50058556  0.00990051  0.83835480  1
  In  In9  1  0.79837293  0.50243282  0.00575477  1
  In  In10  1  0.52363393  0.49116999  -0.00288269  1
  In  In11  1  0.52362350  0.65670146  0.83198465  1
  In  In12  1  -0.01405939  -0.00836598  -0.04906982  1
  In  In13  1  0.15254963  0.12297108  0.66627769  1
  In  In14  1  0.02405736  0.32578958  -0.01648476  1
  In  In15  1  0.65779347  0.49635895  0.84708676  1
  In  In16  1  0.34666210  0.83565050  0.49460685  1
  In  In17  1  0.64833497  0.48431202  0.49522697  1
  In  In18  1  0.33029609  0.82725197  0.17971268  1
  In  In19  1  0.48816951  0.14347828  0.36274715  1
  In  In20  1  0.14349992  0.84957455  0.66938289  1
  In  In21  1  0.82271383  0.17812452  0.34463842  1
  In  In22  1  0.12509299  0.85558891  -0.00644920  1
  In  In23  1  0.51610641  0.82304134  0.35379981  1
  In  In24  1  0.17392430  0.02864579  0.15218604  1
  In  In25  1  -0.00863720  0.32336811  0.67747957  1
  In  In26  1  0.83272888  0.31991008  0.83285235  1
  In  In27  1  0.35289008  0.30811495  0.00005980  1
  In  In28  1  0.81398712  0.29897821  0.53195508  1
  In  In29  1  0.64687047  0.33087584  0.33126215  1
  In  In30  1  0.30455836  0.84012506  0.81586053  1
  In  In31  1  0.33653586  0.03170765  0.01507498  1
  In  In32  1  0.47799397  0.82278379  0.01415742  1
  In  In33  1  0.82632572  0.51549134  0.34195501  1
  In  In34  1  0.82578854  -0.00691808  0.16292054  1
  In  In35  1  0.16539885  0.51529268  0.64858613  1
  In  In36  1  0.15478321  0.68589524  0.81060304  1
  In  In37  1  0.18517455  0.51541041  0.33182192  1
  In  In38  1  0.82992024  0.52550875  0.67123713  1
  In  In39  1  0.17269888  0.66355627  0.17779548  1
  In  In40  1  0.67354669  0.69456448  0.66903304  1
  In  In41  1  0.68557769  0.13274140  0.53168788  1
  In  In42  1  -0.01077643  0.51771583  0.82754538  1
  In  In43  1  0.01386260  0.51153836  0.15659609  1
  In  In44  1  0.36430312  0.34089037  0.69726612  1
  In  In45  1  0.34130269  0.65719325  0.65258457  1
  In  In46  1  0.52067517  0.32523026  0.15276188  1
  In  In47  1  0.18255092  0.14709861  0.34901796  1
  In  In48  1  0.15896123  0.31111836  0.84532968  1
  In  In49  1  0.35479806  0.17092183  0.16914704  1
  In  In50  1  0.16567973  0.17509696  -0.02552857  1
  In  In51  1  0.66622935  0.00774023  -0.02754588  1
  In  In52  1  0.65712111  0.84656352  0.49988674  1
  In  In53  1  0.36771053  0.51071863  0.21637358  1
  In  In54  1  -0.03631148  0.70658525  -0.03879702  1
  In  In55  1  0.69460648  0.84679271  0.81928138  1
  In  In56  1  0.84674164  -0.00674652  0.53282099  1
  In  In57  1  0.82334702  0.16144270  -0.00162721  1
  In  In58  1  0.34598408  0.66087047  -0.00691466  1
  In  In59  1  -0.00653055  0.82794004  0.17779016  1
  In  In60  1  0.00776299  0.51955873  0.51228364  1
  In  In61  1  0.80484673  0.35603071  0.16063837  1
  In  In62  1  0.83367471  0.67178305  0.18030381  1
  In  In63  1  0.16786618  -0.01201301  0.50649625  1
  In  In64  1  0.34648405  0.50999887  0.48251423  1
  In  In65  1  0.52023339  0.15966775  0.67331003  1
  In  In66  1  0.33435983  0.16308163  0.83887216  1
  In  In67  1  0.67518705  0.65753800  -0.00389688  1
  In  In68  1  0.18232929  0.32081518  0.49862575  1
  In  In69  1  0.00557236  0.18027592  0.17259998  1
  In  In70  1  0.49331178  0.33969083  0.49429376  1
  In  In71  1  0.00623014  -0.01931576  0.34585642  1
  Te  Te72  1  0.06153316  0.08437665  0.06350252  1
  Te  Te73  1  0.07099111  0.08707518  0.43282235  1
  Te  Te74  1  0.05626585  0.03753588  0.74044766  1
  Te  Te75  1  0.10052131  0.40263561  0.09339895  1
  Te  Te76  1  0.07947675  0.41548686  0.42317919  1
  Te  Te77  1  0.08851921  0.42257438  0.75525958  1
  Te  Te78  1  0.07650147  0.73729996  0.08268822  1
  Te  Te79  1  0.06973675  0.72866459  0.46034912  1
  Te  Te80  1  0.04580418  0.76592873  0.74874984  1
  Te  Te81  1  0.45998455  0.11629198  0.05868611  1
  Te  Te82  1  0.36930165  0.10933542  0.44446712  1
  Te  Te83  1  0.40549908  0.07404911  0.73864366  1
  Te  Te84  1  0.40892036  0.42369703  0.08517582  1
  Te  Te85  1  0.40624793  0.40657822  0.39471537  1
  Te  Te86  1  0.44746620  0.43159447  0.77481804  1
  Te  Te87  1  0.41999673  0.72164666  0.11303498  1
  Te  Te88  1  0.42008094  0.72606410  0.41927324  1
  Te  Te89  1  0.42037811  0.75373469  0.76121209  1
  Te  Te90  1  0.72816105  0.08445252  0.09102441  1
  Te  Te91  1  0.76179882  0.06227581  0.41893894  1
  Te  Te92  1  0.77406057  0.03345987  0.69004654  1
  Te  Te93  1  0.70443181  0.40409748  0.06284512  1
  Te  Te94  1  0.76569213  0.39713053  0.41696561  1
  Te  Te95  1  0.75264216  0.42131295  0.75023915  1
  Te  Te96  1  0.76579119  0.75557720  0.07126411  1
  Te  Te97  1  0.75056387  0.75612781  0.41790772  1
  Te  Te98  1  0.78651841  0.75036639  0.74999914  1
  Te  Te99  1  0.10222664  0.25210255  0.26329014  1
  Te  Te100  1  0.08640016  0.24298682  0.58892304  1
  Te  Te101  1  0.04764604  0.21350637  0.88248954  1
  Te  Te102  1  0.06789325  0.59870103  0.26810917  1
  Te  Te103  1  0.09023157  0.62807047  0.58027265  1
  Te  Te104  1  0.08507079  0.59260866  0.92176897  1
  Te  Te105  1  0.10332685  0.91889987  0.23733913  1
  Te  Te106  1  0.05054838  0.90822077  0.56292832  1
  Te  Te107  1  0.08829957  0.92280333  0.86531208  1
  Te  Te108  1  0.43885275  0.25314805  0.26188222  1
  Te  Te109  1  0.41981589  0.24733205  0.59236265  1
  Te  Te110  1  0.43831916  0.25538727  0.88939176  1
  Te  Te111  1  0.42133347  0.60867840  0.31165479  1
  Te  Te112  1  0.43501061  0.56533076  0.58715355  1
  Te  Te113  1  0.42086342  0.56713811  0.90150498  1
  Te  Te114  1  0.42420296  0.91164293  0.26348270  1
  Te  Te115  1  0.42965283  0.93503874  0.56831795  1
  Te  Te116  1  0.40348947  0.91735659  0.91919029  1
  Te  Te117  1  0.73540090  0.24415031  0.23848494  1
  Te  Te118  1  0.72436059  0.23767313  0.63781543  1
  Te  Te119  1  0.73665758  0.25846864  0.92645690  1
  Te  Te120  1  0.73640695  0.56690747  0.23246103  1
  Te  Te121  1  0.74407142  0.58842574  0.56120364  1
  Te  Te122  1  0.76675729  0.59641879  0.89014246  1
  Te  Te123  1  0.75709093  0.91323272  0.26587021  1
  Te  Te124  1  0.74766067  0.90090652  0.60627166  1
  Te  Te125  1  0.77733879  0.91858348  0.92186405  1
  Te  Te126  1  0.24407469  0.24086852  0.08683915  1
  Te  Te127  1  0.27741454  0.24802913  0.40798703  1
  Te  Te128  1  0.24173947  0.23806808  0.73869762  1
  Te  Te129  1  0.25850908  0.57408046  0.08812193  1
  Te  Te130  1  0.23037832  0.59481732  0.44676214  1
  Te  Te131  1  0.25272965  0.58228636  0.75527338  1
  Te  Te132  1  0.25202755  0.90937461  0.07590964  1
  Te  Te133  1  0.25050295  0.91342631  0.40289970  1
  Te  Te134  1  0.25780233  0.93418416  0.71271765  1
  Te  Te135  1  0.57086459  0.22186705  0.06318711  1
  Te  Te136  1  0.60183428  0.23345030  0.44030542  1
  Te  Te137  1  0.61378917  0.24806101  0.74496993  1
  Te  Te138  1  0.57300089  0.59915190  0.08479537  1
  Te  Te139  1  0.56383200  0.55622539  0.39337478  1
  Te  Te140  1  0.59703612  0.57661150  0.72694647  1
  Te  Te141  1  0.57647443  0.92234012  0.07632584  1
  Te  Te142  1  0.56877425  0.94207535  0.42723659  1
  Te  Te143  1  0.58621580  0.92257750  0.74426677  1
  Te  Te144  1  0.91471972  0.26667904  0.08463218  1
  Te  Te145  1  0.92306619  0.22790279  0.44761380  1
  Te  Te146  1  0.89981124  0.22200440  0.73938719  1
  Te  Te147  1  0.91366408  0.58778922  0.07067900  1
  Te  Te148  1  0.91247495  0.60444403  0.42751907  1
  Te  Te149  1  0.94154127  0.60833451  0.72142686  1
  Te  Te150  1  0.92517997  0.91738498  0.07580522  1
  Te  Te151  1  0.91529563  0.90241263  0.43176155  1
  Te  Te152  1  0.91124468  0.97843245  0.72696664  1
  Te  Te153  1  0.27735514  0.06959066  0.25425393  1
  Te  Te154  1  0.25998166  0.09364625  0.56176568  1
  Te  Te155  1  0.23659076  0.06304663  0.90194884  1
  Te  Te156  1  0.25764570  0.41863630  0.24836530  1
  Te  Te157  1  0.26277435  0.40967004  0.59516999  1
  Te  Te158  1  0.26547607  0.40114213  0.90639848  1
  Te  Te159  1  0.25206117  0.74184994  0.27891995  1
  Te  Te160  1  0.25412818  0.76560509  0.59385028  1
  Te  Te161  1  0.24136521  0.75187653  0.92753127  1
  Te  Te162  1  0.58675624  0.08683092  0.26817793  1
  Te  Te163  1  0.56306161  0.05660833  0.57228200  1
  Te  Te164  1  0.60504807  0.10728444  0.88000880  1
  Te  Te165  1  0.58413182  0.42770360  0.23966134  1
  Te  Te166  1  0.58291347  0.40002753  0.59570899  1
  Te  Te167  1  0.55295790  0.39059553  0.88494881  1
  Te  Te168  1  0.58749463  0.74408024  0.24289004  1
  Te  Te169  1  0.57243470  0.73251847  0.56124181  1
  Te  Te170  1  0.58890083  0.76820930  0.91547265  1
  Te  Te171  1  0.92104983  0.08537249  0.25692433  1
  Te  Te172  1  0.90048833  0.10528351  0.61933444  1
  Te  Te173  1  0.87807560  0.07491150  0.88931681  1
  Te  Te174  1  0.92153910  0.42027174  0.24927047  1
  Te  Te175  1  0.91222938  0.41667421  0.58152850  1
  Te  Te176  1  0.91872033  0.42281114  0.92593258  1
  Te  Te177  1  0.91122344  0.75431399  0.27419743  1
  Te  Te178  1  0.94077862  0.80096321  0.59453357  1
  Te  Te179  1  0.88946996  0.80060982  0.87795180  1
