# generated using pymatgen
data_In2Te3
_symmetry_space_group_name_H-M   'P 1'
_cell_length_a   18.91447227
_cell_length_b   18.92803287
_cell_length_c   18.89813566
_cell_angle_alpha   89.96165936
_cell_angle_beta   89.96727482
_cell_angle_gamma   89.92677277
_symmetry_Int_Tables_number   1
_chemical_formula_structural   In2Te3
_chemical_formula_sum   'In72 Te108'
_cell_volume   6765.78432995
_cell_formula_units_Z   36
loop_
 _symmetry_equiv_pos_site_id
 _symmetry_equiv_pos_as_xyz
  1  'x, y, z'
loop_
 _atom_site_type_symbol
 _atom_site_label
 _atom_site_symmetry_multiplicity
 _atom_site_fract_x
 _atom_site_fract_y
 _atom_site_fract_z
 _atom_site_occupancy
  In  In0  1  0.47667944  0.34133308  0.83601165  1
  In  In1  1  0.00762697  0.31441929  -0.00442676  1
  In  In2  1  0.00886335  0.32219870  0.65465241  1
  In  In3  1  0.87403023  0.67452844  0.82930643  1
  In  In4  1  0.65090147  0.19493606  0.48757865  1
  In  In5  1  0.67294505  0.33492409  0.65831109  1
  In  In6  1  0.66506810  0.17740086  0.17924425  1
  In  In7  1  0.06373719  0.82466021  0.53827949  1
  In  In8  1  0.49139110  0.02294442  0.82457120  1
  In  In9  1  0.46986855  0.68881902  0.83874187  1
  In  In10  1  0.32791928  0.16232791  0.15090174  1
  In  In11  1  0.48792821  0.82853867  0.01697421  1
  In  In12  1  0.31645437  0.82977542  0.80863154  1
  In  In13  1  0.30791273  0.83585680  0.51697806  1
  In  In14  1  0.34136566  0.33569809  0.33849796  1
  In  In15  1  0.83192544  0.00101034  0.81621932  1
  In  In16  1  0.82424272  0.15514807  -0.00942506  1
  In  In17  1  0.81980873  0.52038911  0.03022673  1
  In  In18  1  0.85979878  0.01434710  0.16473999  1
  In  In19  1  0.64850887  0.47223226  0.19118274  1
  In  In20  1  0.82456110  0.34431918  0.19112502  1
  In  In21  1  0.49277288  0.16938245  -0.00963652  1
  In  In22  1  0.32188952  0.50241391  0.80123768  1
  In  In23  1  0.66155515  0.80664124  0.15996472  1
  In  In24  1  0.36095809  0.16842558  0.51465100  1
  In  In25  1  0.33625875  0.50258934  0.16791203  1
  In  In26  1  0.66350453  0.85854508  0.83923243  1
  In  In27  1  0.65924605  0.65615151  0.03122266  1
  In  In28  1  0.46826624  0.50661346  -0.01499084  1
  In  In29  1  0.16846473  0.83223076  0.34921446  1
  In  In30  1  0.84819341  0.66898725  0.52003277  1
  In  In31  1  0.67539067  0.15923688  0.81737790  1
  In  In32  1  0.17900837  -0.01439032  0.14185825  1
  In  In33  1  -0.00548434  0.50249875  0.83751526  1
  In  In34  1  0.33374169  0.01684163  0.67135469  1
  In  In35  1  0.67391528  0.47253520  0.49597043  1
  In  In36  1  0.18199606  0.51663859  0.37953102  1
  In  In37  1  0.10324654  0.67232736  0.67793392  1
  In  In38  1  0.49505388  0.35165599  0.17431606  1
  In  In39  1  0.85539385  0.46564757  0.62620982  1
  In  In40  1  0.16984442  0.66563380  0.20485153  1
  In  In41  1  0.85720299  0.85050847  0.66246268  1
  In  In42  1  0.67881927  0.67533251  0.34585761  1
  In  In43  1  0.46401663  0.67376018  0.17966390  1
  In  In44  1  0.16272390  0.30221720  0.16505208  1
  In  In45  1  0.04780294  -0.00880428  -0.03337272  1
  In  In46  1  0.49240631  0.49688089  0.64405801  1
  In  In47  1  0.02508508  0.69211887  -0.01605229  1
  In  In48  1  -0.01069127  0.82703356  0.17074168  1
  In  In49  1  0.19278390  0.31521327  0.78541890  1
  In  In50  1  0.00823403  0.14400173  0.16590276  1
  In  In51  1  0.82555422  0.50080313  0.35444819  1
  In  In52  1  0.84481511  0.83317806  0.34267646  1
  In  In53  1  0.45762255  0.87530326  0.36033208  1
  In  In54  1  0.48405767  0.48856706  0.33556487  1
  In  In55  1  0.86230030  0.31483741  0.83281759  1
  In  In56  1  0.65749402  0.66976768  0.68554805  1
  In  In57  1  0.30700736  0.01013828  -0.05170752  1
  In  In58  1  0.15717178  0.15590261  0.32095004  1
  In  In59  1  -0.01845223  0.00048612  0.34531626  1
  In  In60  1  0.49731410  0.83973792  0.68582930  1
  In  In61  1  0.68067292  0.00469275  0.32672525  1
  In  In62  1  0.84305462  0.67596670  0.15880479  1
  In  In63  1  0.49985512  -0.00819155  0.17773382  1
  In  In64  1  0.00374066  0.18279160  0.49502567  1
  In  In65  1  0.01700487  0.15950106  0.79681840  1
  In  In66  1  0.17074872  0.47632733  0.00287749  1
  In  In67  1  0.19576729  0.34429620  0.52642415  1
  In  In68  1  0.66735935  0.49320974  0.83799506  1
  In  In69  1  0.84140521  0.00618290  0.51501843  1
  In  In70  1  0.51773529  0.02457961  0.49657302  1
  In  In71  1  0.49018893  0.66680103  0.51592099  1
  Te  Te72  1  0.10736185  0.09539299  0.06265960  1
  Te  Te73  1  0.08653542  0.07211759  0.42652968  1
  Te  Te74  1  0.10970694  0.05305265  0.75068173  1
  Te  Te75  1  0.07139062  0.40767482  0.09495311  1
  Te  Te76  1  0.10626600  0.39667410  0.41825092  1
  Te  Te77  1  0.08184657  0.41684540  0.74821391  1
  Te  Te78  1  0.10066947  0.75891972  0.09716789  1
  Te  Te79  1  0.07690215  0.73638162  0.41675467  1
  Te  Te80  1  0.08346313  0.76771128  0.79583367  1
  Te  Te81  1  0.41183789  0.05946069  0.06408709  1
  Te  Te82  1  0.41631610  0.08261137  0.40775495  1
  Te  Te83  1  0.42626885  0.11934371  0.73118843  1
  Te  Te84  1  0.39637014  0.40257000  0.06978564  1
  Te  Te85  1  0.38941856  0.43606329  0.43745514  1
  Te  Te86  1  0.39323037  0.39360228  0.71173594  1
  Te  Te87  1  0.39073740  0.73194707  0.06653795  1
  Te  Te88  1  0.39936859  0.75227314  0.42706357  1
  Te  Te89  1  0.39524567  0.73102316  0.71536413  1
  Te  Te90  1  0.74230779  0.07766026  0.09198505  1
  Te  Te91  1  0.75373772  0.09091120  0.42513820  1
  Te  Te92  1  0.75589395  0.08400960  0.72188208  1
  Te  Te93  1  0.73303192  0.40739878  0.08319573  1
  Te  Te94  1  0.77133855  0.38198271  0.42818361  1
  Te  Te95  1  0.77005194  0.41789024  0.75411529  1
  Te  Te96  1  0.76787379  0.76247155  0.05971861  1
  Te  Te97  1  0.75367100  0.76266320  0.44275547  1
  Te  Te98  1  0.75724724  0.75607128  0.75982752  1
  Te  Te99  1  0.05512025  0.25232737  0.26264275  1
  Te  Te100  1  0.11510806  0.23372611  0.59354190  1
  Te  Te101  1  0.09412757  0.25302280  0.89071429  1
  Te  Te102  1  0.09087034  0.56325164  0.27241699  1
  Te  Te103  1  0.09744011  0.56598598  0.56798365  1
  Te  Te104  1  0.10007788  0.57856575  0.91291447  1
  Te  Te105  1  0.07428453  0.93072698  0.24673106  1
  Te  Te106  1  0.09314278  0.92817590  0.64090047  1
  Te  Te107  1  0.12258414  0.87937736  0.89945195  1
  Te  Te108  1  0.41743462  0.24140761  0.24480336  1
  Te  Te109  1  0.35387075  0.28205701  0.60825556  1
  Te  Te110  1  0.39595700  0.24151164  0.90728091  1
  Te  Te111  1  0.38505619  0.59163582  0.28106173  1
  Te  Te112  1  0.39268713  0.56271014  0.55574772  1
  Te  Te113  1  0.37167104  0.59758274  0.91026290  1
  Te  Te114  1  0.39747538  0.89816044  0.22899634  1
  Te  Te115  1  0.42573358  0.92175323  0.57985899  1
  Te  Te116  1  0.42403355  0.90572212  0.89547979  1
  Te  Te117  1  0.75450463  0.24585143  0.27276541  1
  Te  Te118  1  0.76112790  0.25932760  0.56802509  1
  Te  Te119  1  0.74612016  0.25925464  0.91312415  1
  Te  Te120  1  0.73899821  0.58904466  0.23589660  1
  Te  Te121  1  0.73548459  0.57601227  0.59265515  1
  Te  Te122  1  0.75666438  0.59289731  0.91052900  1
  Te  Te123  1  0.76322734  0.90469190  0.23518536  1
  Te  Te124  1  0.74962849  0.91864360  0.59040978  1
  Te  Te125  1  0.75336412  0.93634832  0.92303744  1
  Te  Te126  1  0.24456182  0.24088695  0.05987091  1
  Te  Te127  1  0.24539365  0.24228470  0.40987708  1
  Te  Te128  1  0.27997336  0.19679405  0.75309272  1
  Te  Te129  1  0.23795572  0.58307487  0.08772674  1
  Te  Te130  1  0.19798750  0.63949058  0.46454548  1
  Te  Te131  1  0.22030171  0.57935276  0.72426719  1
  Te  Te132  1  0.25263823  0.90810330  0.04040908  1
  Te  Te133  1  0.23579988  0.93341138  0.43287991  1
  Te  Te134  1  0.23364911  0.90822904  0.71045222  1
  Te  Te135  1  0.57580436  0.25630504  0.08515720  1
  Te  Te136  1  0.55559417  0.28112548  0.41733523  1
  Te  Te137  1  0.58194530  0.26304116  0.75489125  1
  Te  Te138  1  0.55569371  0.56620554  0.10302175  1
  Te  Te139  1  0.58496670  0.57921267  0.41899837  1
  Te  Te140  1  0.55704085  0.57451737  0.76330531  1
  Te  Te141  1  0.59233397  0.91710919  0.08137881  1
  Te  Te142  1  0.59314222  0.91326595  0.41102037  1
  Te  Te143  1  0.59252526  0.94549260  0.73753053  1
  Te  Te144  1  0.90973760  0.24043653  0.08735676  1
  Te  Te145  1  0.90744513  0.28727108  0.45193340  1
  Te  Te146  1  0.90449252  0.22817018  0.71882966  1
  Te  Te147  1  0.94150480  0.59630666  0.07599449  1
  Te  Te148  1  0.92297419  0.57519834  0.43635370  1
  Te  Te149  1  0.91473660  0.56884898  0.72743486  1
  Te  Te150  1  0.94437746  0.93296072  0.07031638  1
  Te  Te151  1  0.93901813  0.89380759  0.44495745  1
  Te  Te152  1  0.94403830  0.92892269  0.75099788  1
  Te  Te153  1  0.25553580  0.06764584  0.24546729  1
  Te  Te154  1  0.25575605  0.07494485  0.56056074  1
  Te  Te155  1  0.22584770  0.08420833  0.84940782  1
  Te  Te156  1  0.24584657  0.40570223  0.24224487  1
  Te  Te157  1  0.20664484  0.46821326  0.60901462  1
  Te  Te158  1  0.25366644  0.40516332  0.89635381  1
  Te  Te159  1  0.26078118  0.77230217  0.25160284  1
  Te  Te160  1  0.21171253  0.74431307  0.58928786  1
  Te  Te161  1  0.21612776  0.74775280  0.88074914  1
  Te  Te162  1  0.57219735  0.09157791  0.26580945  1
  Te  Te163  1  0.57539396  0.11999556  0.59039088  1
  Te  Te164  1  0.59404803  0.07985122  0.92114351  1
  Te  Te165  1  0.59217644  0.37718751  0.29962421  1
  Te  Te166  1  0.56398180  0.38954216  0.56170475  1
  Te  Te167  1  0.57585117  0.41399403  0.92869695  1
  Te  Te168  1  0.56876455  0.74697680  0.26408286  1
  Te  Te169  1  0.58666784  0.76036937  0.58682288  1
  Te  Te170  1  0.58671221  0.74212840  0.92029804  1
  Te  Te171  1  0.90290181  0.10826570  0.27502494  1
  Te  Te172  1  0.94591069  0.08119487  0.58471962  1
  Te  Te173  1  0.93889179  0.09176509  0.91584050  1
  Te  Te174  1  0.91137963  0.44684647  0.24690485  1
  Te  Te175  1  0.96135575  0.40566132  0.53588492  1
  Te  Te176  1  0.90600252  0.42408409  0.93623576  1
  Te  Te177  1  0.92870792  0.72827835  0.27205923  1
  Te  Te178  1  0.94948763  0.73987422  0.60791746  1
  Te  Te179  1  0.92591196  0.77828512  0.91721628  1
