# generated using pymatgen
data_In2Te3
_symmetry_space_group_name_H-M   'P 1'
_cell_length_a   18.75663901
_cell_length_b   18.75823885
_cell_length_c   18.76219710
_cell_angle_alpha   90.01325341
_cell_angle_beta   90.04064740
_cell_angle_gamma   90.01559213
_symmetry_Int_Tables_number   1
_chemical_formula_structural   In2Te3
_chemical_formula_sum   'In72 Te108'
_cell_volume   6601.31775999
_cell_formula_units_Z   36
loop_
 _symmetry_equiv_pos_site_id
 _symmetry_equiv_pos_as_xyz
  1  'x, y, z'
loop_
 _atom_site_type_symbol
 _atom_site_label
 _atom_site_symmetry_multiplicity
 _atom_site_fract_x
 _atom_site_fract_y
 _atom_site_fract_z
 _atom_site_occupancy
  In  In0  1  0.33602897  -0.00036542  -0.00982634  1
  In  In1  1  0.81535622  0.49746919  0.00309813  1
  In  In2  1  0.15686142  0.17597667  0.66322035  1
  In  In3  1  0.54726749  0.81757030  0.31958561  1
  In  In4  1  -0.00324177  0.50153674  0.51411487  1
  In  In5  1  -0.03630552  0.83892939  0.85379304  1
  In  In6  1  0.15077514  0.00208856  0.81468380  1
  In  In7  1  0.64963508  0.33378410  0.66241729  1
  In  In8  1  0.79484435  0.81256181  0.33764724  1
  In  In9  1  0.51651671  0.84395104  0.68936947  1
  In  In10  1  -0.04261920  0.86666417  0.12941373  1
  In  In11  1  0.67029118  0.68177761  -0.00430481  1
  In  In12  1  0.15238641  0.32331671  0.82507007  1
  In  In13  1  0.16010184  0.52230343  -0.01830563  1
  In  In14  1  0.68269420  -0.01665036  -0.00580445  1
  In  In15  1  0.31230547  -0.02470151  0.33478589  1
  In  In16  1  0.52373278  0.02297098  0.50847983  1
  In  In17  1  0.16110975  0.49128223  0.36106878  1
  In  In18  1  0.32527272  0.80840085  0.51656736  1
  In  In19  1  0.31162182  0.52674866  0.80292237  1
  In  In20  1  0.66675930  0.15353047  0.52329283  1
  In  In21  1  0.00204025  0.67606228  0.66143442  1
  In  In22  1  0.65345535  0.49946667  0.84442100  1
  In  In23  1  0.66762589  0.50898627  0.16050339  1
  In  In24  1  0.83758779  0.50789185  0.31686813  1
  In  In25  1  0.65334199  0.50028512  0.51389801  1
  In  In26  1  0.33842774  0.33126997  0.65771127  1
  In  In27  1  -0.00372072  0.85026723  0.51331795  1
  In  In28  1  0.83299185  0.15587880  -0.01507730  1
  In  In29  1  -0.02082961  0.02138675  0.32087186  1
  In  In30  1  0.16429731  0.16887953  -0.01258071  1
  In  In31  1  0.36608857  0.50634198  0.19393674  1
  In  In32  1  0.52570853  0.00202219  0.14528686  1
  In  In33  1  0.51188478  0.17240721  0.34137084  1
  In  In34  1  0.35809455  0.82799814  0.16053595  1
  In  In35  1  0.15793686  0.68295952  0.15992869  1
  In  In36  1  0.34577805  0.01314645  0.66905567  1
  In  In37  1  0.32379952  0.49960057  0.51455678  1
  In  In38  1  0.83714288  0.50446338  0.66853254  1
  In  In39  1  0.33998346  0.32807906  0.34207198  1
  In  In40  1  0.49949517  0.00032484  0.82447060  1
  In  In41  1  0.51948760  0.32701493  0.16117471  1
  In  In42  1  0.67870111  0.00080193  0.32299798  1
  In  In43  1  0.15473895  0.82444419  0.34383972  1
  In  In44  1  -0.00074532  0.33451871  0.00089575  1
  In  In45  1  0.00211795  0.66698187  0.34268763  1
  In  In46  1  0.15571757  0.83147755  0.65253425  1
  In  In47  1  0.16360665  0.15777586  0.35357853  1
  In  In48  1  0.51442429  0.66274525  0.83859021  1
  In  In49  1  0.52224161  0.16248528  0.00053736  1
  In  In50  1  0.83306837  0.32534115  0.49626144  1
  In  In51  1  0.51613929  0.33615454  0.83948764  1
  In  In52  1  0.35236098  0.82294127  0.84609005  1
  In  In53  1  0.15120386  0.02664155  0.17334546  1
  In  In54  1  0.82691517  0.84884464  0.68323183  1
  In  In55  1  -0.01078265  0.16760545  0.51449094  1
  In  In56  1  0.34479889  0.33188277  0.00528094  1
  In  In57  1  0.84781850  0.28994101  0.81254197  1
  In  In58  1  0.33087218  0.17577394  0.51259230  1
  In  In59  1  0.49191392  0.52169265  0.34332330  1
  In  In60  1  0.00801555  0.50421587  0.81958935  1
  In  In61  1  0.67103848  0.67616768  0.67971149  1
  In  In62  1  -0.01719957  0.16559889  0.16040904  1
  In  In63  1  0.35000784  0.67054616  0.00278939  1
  In  In64  1  0.82683872  -0.00550307  0.51577022  1
  In  In65  1  0.17869185  0.82771163  -0.01335491  1
  In  In66  1  0.68953008  0.30314719  0.31492823  1
  In  In67  1  0.35594040  0.62954130  0.33348355  1
  In  In68  1  0.49088866  0.66677111  0.50940054  1
  In  In69  1  0.15235525  0.31606658  0.16829689  1
  In  In70  1  0.84236435  0.65954640  0.14645260  1
  In  In71  1  -0.04708469  0.50360454  0.17396791  1
  Te  Te72  1  0.06305171  0.07978471  0.06166729  1
  Te  Te73  1  0.07581226  0.06173683  0.43131982  1
  Te  Te74  1  0.05708122  0.10173464  0.75217236  1
  Te  Te75  1  0.08662436  0.42776608  0.08571768  1
  Te  Te76  1  0.05080810  0.40884413  0.41015072  1
  Te  Te77  1  0.08779171  0.41661037  0.73075432  1
  Te  Te78  1  0.06688042  0.76576236  0.07271295  1
  Te  Te79  1  0.08467594  0.73908999  0.44946677  1
  Te  Te80  1  0.07003017  0.76883555  0.76168962  1
  Te  Te81  1  0.41472013  0.08872991  0.08549590  1
  Te  Te82  1  0.41065106  0.07703968  0.41357588  1
  Te  Te83  1  0.42637350  0.10583654  0.74937276  1
  Te  Te84  1  0.43640561  0.42834160  0.08016387  1
  Te  Te85  1  0.42508054  0.41494352  0.43146214  1
  Te  Te86  1  0.41084387  0.42037757  0.75977429  1
  Te  Te87  1  0.44857600  0.76378440  0.06270515  1
  Te  Te88  1  0.42024132  0.76237209  0.40364244  1
  Te  Te89  1  0.42039435  0.73654645  0.74100124  1
  Te  Te90  1  0.75478558  0.07772446  0.08739619  1
  Te  Te91  1  0.75911759  0.09038677  0.41772491  1
  Te  Te92  1  0.75199020  0.09267238  0.66430906  1
  Te  Te93  1  0.75435310  0.40421934  0.10034792  1
  Te  Te94  1  0.74395910  0.42370134  0.41540281  1
  Te  Te95  1  0.75093634  0.41426956  0.75659902  1
  Te  Te96  1  0.76171096  0.76798641  0.08043167  1
  Te  Te97  1  0.71306068  0.72306160  0.41830115  1
  Te  Te98  1  0.74163609  0.76521535  0.77732877  1
  Te  Te99  1  0.06681603  0.24068966  0.26706162  1
  Te  Te100  1  0.08314296  0.26699138  0.57246484  1
  Te  Te101  1  0.05417298  0.23223345  0.90213900  1
  Te  Te102  1  0.08399001  0.57817204  0.24544090  1
  Te  Te103  1  0.09613742  0.57154803  0.60519924  1
  Te  Te104  1  0.07639014  0.61034543  0.89970855  1
  Te  Te105  1  0.07591040  0.91480167  0.24606249  1
  Te  Te106  1  0.06439686  0.93897461  0.60940378  1
  Te  Te107  1  0.07841221  0.92251969  0.92210882  1
  Te  Te108  1  0.41772179  0.24444153  0.24256393  1
  Te  Te109  1  0.43712002  0.24330709  0.58794886  1
  Te  Te110  1  0.41998123  0.23813016  0.91385102  1
  Te  Te111  1  0.46676754  0.62509287  0.22046900  1
  Te  Te112  1  0.41347792  0.58118036  0.60062567  1
  Te  Te113  1  0.41553141  0.56842549  0.90981758  1
  Te  Te114  1  0.43390439  0.92551580  0.25423629  1
  Te  Te115  1  0.42370017  0.91437024  0.57720044  1
  Te  Te116  1  0.44324450  0.90733525  0.93474592  1
  Te  Te117  1  0.78561928  0.20716424  0.26033849  1
  Te  Te118  1  0.76759103  0.24245970  0.60684305  1
  Te  Te119  1  0.74213162  0.24149235  0.90123223  1
  Te  Te120  1  0.74067040  0.60846443  0.25050318  1
  Te  Te121  1  0.75436262  0.59512961  0.57856180  1
  Te  Te122  1  0.75784577  0.59460549  0.90142356  1
  Te  Te123  1  0.74473911  0.90304701  0.23264977  1
  Te  Te124  1  0.73207605  0.90332584  0.58134289  1
  Te  Te125  1  0.79289982  0.90198701  0.92499251  1
  Te  Te126  1  0.25620693  0.23736922  0.08883131  1
  Te  Te127  1  0.23480098  0.26688872  0.43368775  1
  Te  Te128  1  0.25994936  0.24059421  0.75624091  1
  Te  Te129  1  0.25967925  0.58470157  0.09554465  1
  Te  Te130  1  0.24013840  0.60010135  0.42938082  1
  Te  Te131  1  0.21382883  0.59260335  0.71504735  1
  Te  Te132  1  0.24656710  0.92237295  0.09373194  1
  Te  Te133  1  0.23209159  0.90989677  0.44622863  1
  Te  Te134  1  0.26259087  0.90855456  0.75515118  1
  Te  Te135  1  0.61386483  0.24842374  0.07995652  1
  Te  Te136  1  0.59699435  0.26019962  0.42986665  1
  Te  Te137  1  0.60368145  0.23933587  0.76719901  1
  Te  Te138  1  0.58572560  0.57551166  0.05629670  1
  Te  Te139  1  0.60012458  0.61154264  0.41012748  1
  Te  Te140  1  0.57626043  0.56891345  0.73274465  1
  Te  Te141  1  0.60296256  0.89306854  0.08423104  1
  Te  Te142  1  0.59850508  0.91830189  0.42489323  1
  Te  Te143  1  0.61471903  0.92372053  0.76626682  1
  Te  Te144  1  0.89476619  0.26415454  0.08359018  1
  Te  Te145  1  0.89944313  0.22493625  0.40812754  1
  Te  Te146  1  0.94901308  0.21684186  0.73592181  1
  Te  Te147  1  0.93411807  0.58586889  0.04837222  1
  Te  Te148  1  0.90380607  0.59014546  0.42941474  1
  Te  Te149  1  0.90639379  0.60587122  0.75873730  1
  Te  Te150  1  0.89104640  0.96980056  0.03489930  1
  Te  Te151  1  0.90762994  0.90883412  0.40033341  1
  Te  Te152  1  0.90765714  0.94797864  0.76448091  1
  Te  Te153  1  0.26162406  0.09542081  0.25363724  1
  Te  Te154  1  0.23855534  0.07426394  0.57964406  1
  Te  Te155  1  0.25367140  0.08571787  0.89559399  1
  Te  Te156  1  0.25044522  0.41432528  0.24938901  1
  Te  Te157  1  0.23250982  0.40766801  0.58643983  1
  Te  Te158  1  0.24660737  0.41292974  0.91685463  1
  Te  Te159  1  0.25835089  0.74953013  0.25634582  1
  Te  Te160  1  0.25225930  0.72219674  0.61487419  1
  Te  Te161  1  0.24826703  0.72378107  0.89949520  1
  Te  Te162  1  0.59854553  0.10055598  0.23846589  1
  Te  Te163  1  0.59317935  0.07555796  0.63084214  1
  Te  Te164  1  0.60721982  0.08057695  0.90311685  1
  Te  Te165  1  0.58416001  0.41829307  0.26877675  1
  Te  Te166  1  0.55443796  0.42189949  0.59030477  1
  Te  Te167  1  0.59697504  0.40589408  0.94372620  1
  Te  Te168  1  0.58921880  0.71907769  0.22019708  1
  Te  Te169  1  0.58848546  0.76107526  0.58201219  1
  Te  Te170  1  0.61083528  0.76788612  0.88484103  1
  Te  Te171  1  0.87462680  0.07912252  0.22640280  1
  Te  Te172  1  0.90213270  0.08589479  0.61108118  1
  Te  Te173  1  0.88894091  0.04608323  0.89661297  1
  Te  Te174  1  0.91500825  0.39292321  0.26318800  1
  Te  Te175  1  0.92138871  0.39825198  0.60037870  1
  Te  Te176  1  0.91081401  0.41358490  0.90370120  1
  Te  Te177  1  0.92442155  0.75095464  0.24277005  1
  Te  Te178  1  0.89843831  0.75507523  0.58110676  1
  Te  Te179  1  0.87812673  0.77312753  0.95727820  1
