# generated using pymatgen
data_In2Te3
_symmetry_space_group_name_H-M   'P 1'
_cell_length_a   18.81814366
_cell_length_b   18.81940389
_cell_length_c   18.81324465
_cell_angle_alpha   90.11701465
_cell_angle_beta   89.98626695
_cell_angle_gamma   89.93561375
_symmetry_Int_Tables_number   1
_chemical_formula_structural   In2Te3
_chemical_formula_sum   'In72 Te108'
_cell_volume   6662.62167346
_cell_formula_units_Z   36
loop_
 _symmetry_equiv_pos_site_id
 _symmetry_equiv_pos_as_xyz
  1  'x, y, z'
loop_
 _atom_site_type_symbol
 _atom_site_label
 _atom_site_symmetry_multiplicity
 _atom_site_fract_x
 _atom_site_fract_y
 _atom_site_fract_z
 _atom_site_occupancy
  In  In0  1  0.82320728  0.34296480  0.80581226  1
  In  In1  1  0.67047365  0.17938186  0.17487239  1
  In  In2  1  0.66769355  0.16033066  0.81423284  1
  In  In3  1  0.00890997  0.50562642  0.49486641  1
  In  In4  1  0.82487199  0.84346291  -0.02438449  1
  In  In5  1  0.34564119  0.02168619  0.62502108  1
  In  In6  1  0.31559701  0.51398073  0.46775394  1
  In  In7  1  0.48626342  0.68410182  0.48547666  1
  In  In8  1  0.17710193  0.82251987  0.33624816  1
  In  In9  1  0.00683857  0.33869139  0.32480824  1
  In  In10  1  0.51272497  0.00216568  0.82794116  1
  In  In11  1  0.67267502  0.49244905  0.84024287  1
  In  In12  1  0.00000209  -0.01922483  0.36134870  1
  In  In13  1  0.17227605  -0.01775804  0.81203945  1
  In  In14  1  0.48372650  0.49257639  0.00173293  1
  In  In15  1  0.65243675  0.33958683  0.00613475  1
  In  In16  1  0.33743925  0.83419930  0.50972062  1
  In  In17  1  0.81334788  0.01382806  0.18463585  1
  In  In18  1  0.32840872  0.83313807  0.83576925  1
  In  In19  1  0.14885038  0.16860563  0.00171673  1
  In  In20  1  -0.00148684  0.00849947  0.01395609  1
  In  In21  1  0.82139873  0.34153651  0.49532707  1
  In  In22  1  0.20486870  0.30708606  0.48262758  1
  In  In23  1  0.00681278  0.65441071  0.33129195  1
  In  In24  1  -0.00829718  0.33366741  0.67320736  1
  In  In25  1  0.19227845  0.83846884  0.00852328  1
  In  In26  1  0.87116939  0.66994877  0.76226863  1
  In  In27  1  0.81629277  0.15976915  0.34110957  1
  In  In28  1  0.35505820  0.01584749  0.34492877  1
  In  In29  1  0.65309140  -0.00399595  0.33632922  1
  In  In30  1  0.67926352  0.50960951  0.52304725  1
  In  In31  1  0.49766759  0.00006786  0.17267458  1
  In  In32  1  0.00429218  0.81555315  0.17110308  1
  In  In33  1  0.31536581  0.65727850  0.66776033  1
  In  In34  1  0.82850660  0.00302347  0.81335599  1
  In  In35  1  -0.01371488  0.31887613  -0.00796153  1
  In  In36  1  0.02588453  0.16692716  0.15639325  1
  In  In37  1  0.67952259  0.85628766  0.50648387  1
  In  In38  1  0.51905213  0.66245509  0.85463860  1
  In  In39  1  0.33239406  0.33868492  -0.00490190  1
  In  In40  1  0.65775357  0.85121196  0.17605651  1
  In  In41  1  0.83775062  0.50457427  0.01583346  1
  In  In42  1  0.13739113  0.51677590  -0.02746795  1
  In  In43  1  -0.01676299  -0.01176120  0.67206464  1
  In  In44  1  0.65805049  0.70077012  -0.01433814  1
  In  In45  1  0.65121225  0.50103355  0.18477088  1
  In  In46  1  0.35260406  0.30587781  0.63809128  1
  In  In47  1  0.32419049  0.00424034  0.02806231  1
  In  In48  1  0.67865274  0.68976582  0.34908382  1
  In  In49  1  0.49325110  0.67109098  0.16411129  1
  In  In50  1  0.63036225  0.18057264  0.47573790  1
  In  In51  1  0.16136793  0.67962530  0.17517334  1
  In  In52  1  0.32890178  0.48855707  0.18071352  1
  In  In53  1  0.34158333  0.66620290  0.00731867  1
  In  In54  1  0.49750326  0.47902807  0.33665331  1
  In  In55  1  0.82287600  0.16573033  0.02395754  1
  In  In56  1  -0.00800199  0.82610601  0.81652708  1
  In  In57  1  0.17847104  0.34044197  0.18486415  1
  In  In58  1  -0.00586564  0.20167694  0.82883631  1
  In  In59  1  0.50096862  0.47186399  0.65883233  1
  In  In60  1  0.15114555  0.51453685  0.65413247  1
  In  In61  1  0.00935674  0.50314960  0.18388266  1
  In  In62  1  0.66375333  0.32722973  0.66518896  1
  In  In63  1  0.33524816  0.18531895  0.83250896  1
  In  In64  1  -0.02622497  0.81846271  0.52815219  1
  In  In65  1  0.19307867  0.16194682  0.66404897  1
  In  In66  1  0.00751849  0.14237836  0.51096903  1
  In  In67  1  0.49483543  0.85504860  0.66808455  1
  In  In68  1  0.69132395  0.66911150  0.65924208  1
  In  In69  1  0.35819088  0.17512297  0.20446385  1
  In  In70  1  0.14745424  0.81470142  0.65321011  1
  In  In71  1  0.84910972  0.65698426  0.17389241  1
  Te  Te72  1  0.11485507  0.05486689  0.09932292  1
  Te  Te73  1  0.09411995  0.08526286  0.40665490  1
  Te  Te74  1  0.07902241  0.09161038  0.75139588  1
  Te  Te75  1  0.08287832  0.40645295  0.08205366  1
  Te  Te76  1  0.10060461  0.40579564  0.42374332  1
  Te  Te77  1  0.07139822  0.43082333  0.75484370  1
  Te  Te78  1  0.08232831  0.74533936  0.06096059  1
  Te  Te79  1  0.07081777  0.75580468  0.42296666  1
  Te  Te80  1  0.09764180  0.73310880  0.76652533  1
  Te  Te81  1  0.42340526  0.10318472  0.08472197  1
  Te  Te82  1  0.42420673  0.11548209  0.43706919  1
  Te  Te83  1  0.41321498  0.08618234  0.74492507  1
  Te  Te84  1  0.42620090  0.39857649  0.10517806  1
  Te  Te85  1  0.41136796  0.40608041  0.43374281  1
  Te  Te86  1  0.41526372  0.38881646  0.74454570  1
  Te  Te87  1  0.43423374  0.76402743  0.06631368  1
  Te  Te88  1  0.38973910  0.75038577  0.39798927  1
  Te  Te89  1  0.41877386  0.74435831  0.74633577  1
  Te  Te90  1  0.72262213  0.06560625  0.07589180  1
  Te  Te91  1  0.73988451  0.07201902  0.43566439  1
  Te  Te92  1  0.73823592  0.07250479  0.71421170  1
  Te  Te93  1  0.74857616  0.41498502  0.09855589  1
  Te  Te94  1  0.72763807  0.42022612  0.41455503  1
  Te  Te95  1  0.75081570  0.44414135  0.71860360  1
  Te  Te96  1  0.75506751  0.75098065  0.09665600  1
  Te  Te97  1  0.76889771  0.75327991  0.44668988  1
  Te  Te98  1  0.74114235  0.73926039  0.77884295  1
  Te  Te99  1  0.10501580  0.23472846  0.26771113  1
  Te  Te100  1  0.09142310  0.25935367  0.58403151  1
  Te  Te101  1  0.10414172  0.27575826  0.90301064  1
  Te  Te102  1  0.12337218  0.56024426  0.27128323  1
  Te  Te103  1  0.05881069  0.61296276  0.58753794  1
  Te  Te104  1  0.05931017  0.59595441  0.87200969  1
  Te  Te105  1  0.08621971  0.91344439  0.25075140  1
  Te  Te106  1  0.08033884  0.92378879  0.57343150  1
  Te  Te107  1  0.07719695  0.91857099  0.91604412  1
  Te  Te108  1  0.41670177  0.27018660  0.30556449  1
  Te  Te109  1  0.45018447  0.20839587  0.56676233  1
  Te  Te110  1  0.42738129  0.24481295  0.92967318  1
  Te  Te111  1  0.41460355  0.58560556  0.26203146  1
  Te  Te112  1  0.41879175  0.57940225  0.57988010  1
  Te  Te113  1  0.40413203  0.57372000  0.90025582  1
  Te  Te114  1  0.42913756  0.91245070  0.26936206  1
  Te  Te115  1  0.44810643  0.93677115  0.54816602  1
  Te  Te116  1  0.40559624  0.93165602  0.91875572  1
  Te  Te117  1  0.76164096  0.26420314  0.25453151  1
  Te  Te118  1  0.74190939  0.23691398  0.57102748  1
  Te  Te119  1  0.75928921  0.26022003  0.92085048  1
  Te  Te120  1  0.75151394  0.58304780  0.26494081  1
  Te  Te121  1  0.78732216  0.60423440  0.56511407  1
  Te  Te122  1  0.75105580  0.59091876  0.92426353  1
  Te  Te123  1  0.76117853  0.90521873  0.27552531  1
  Te  Te124  1  0.72914624  0.92923408  0.62502537  1
  Te  Te125  1  0.73847351  0.94344484  0.91402880  1
  Te  Te126  1  0.25156529  0.24084820  0.09012270  1
  Te  Te127  1  0.30389303  0.21496284  0.41548633  1
  Te  Te128  1  0.24434616  0.27500553  0.74943769  1
  Te  Te129  1  0.24301775  0.57305045  0.08289029  1
  Te  Te130  1  0.21288173  0.58758660  0.39760016  1
  Te  Te131  1  0.24990251  0.56000482  0.75555298  1
  Te  Te132  1  0.27179417  0.89803167  0.11687105  1
  Te  Te133  1  0.25038562  0.92412875  0.42277690  1
  Te  Te134  1  0.26676556  0.91129623  0.71523557  1
  Te  Te135  1  0.57184302  0.25025870  0.09016123  1
  Te  Te136  1  0.56303412  0.24661061  0.35915555  1
  Te  Te137  1  0.57261841  0.25839803  0.75765015  1
  Te  Te138  1  0.58984292  0.58250114  0.06874079  1
  Te  Te139  1  0.58393222  0.58444851  0.41961331  1
  Te  Te140  1  0.58135658  0.57897237  0.74092533  1
  Te  Te141  1  0.57460103  0.91725874  0.07551590  1
  Te  Te142  1  0.56914158  0.90834930  0.42202584  1
  Te  Te143  1  0.60730641  0.93217907  0.72993263  1
  Te  Te144  1  0.91093584  0.25636462  0.10915613  1
  Te  Te145  1  0.92475686  0.24688687  0.42210773  1
  Te  Te146  1  0.88888224  0.23103417  0.72373304  1
  Te  Te147  1  0.94706744  0.59242008  0.07607037  1
  Te  Te148  1  0.91341937  0.55857329  0.39363866  1
  Te  Te149  1  0.95532623  0.54688208  0.76834347  1
  Te  Te150  1  0.90786400  0.91687317  0.09413882  1
  Te  Te151  1  0.89909362  0.91692225  0.44697202  1
  Te  Te152  1  0.88399888  0.88688791  0.72806057  1
  Te  Te153  1  0.25647906  0.08346836  0.25597469  1
  Te  Te154  1  0.24060110  0.09008925  0.54478560  1
  Te  Te155  1  0.24213494  0.07931800  0.90871780  1
  Te  Te156  1  0.26403539  0.40559416  0.28518262  1
  Te  Te157  1  0.25401196  0.41711153  0.58022630  1
  Te  Te158  1  0.24764232  0.43381540  0.91882865  1
  Te  Te159  1  0.27005210  0.75391547  0.24066862  1
  Te  Te160  1  0.23583747  0.73071788  0.56141086  1
  Te  Te161  1  0.24195082  0.73319250  0.90923044  1
  Te  Te162  1  0.57116348  0.10222431  0.26550410  1
  Te  Te163  1  0.56159539  0.10977605  0.58552606  1
  Te  Te164  1  0.58304799  0.09692380  0.91668289  1
  Te  Te165  1  0.58417073  0.38844090  0.25444396  1
  Te  Te166  1  0.58104911  0.39547162  0.55443260  1
  Te  Te167  1  0.56323391  0.40748201  0.90053441  1
  Te  Te168  1  0.57328412  0.75764396  0.26228956  1
  Te  Te169  1  0.57989868  0.74912511  0.58791892  1
  Te  Te170  1  0.57799832  0.78955511  0.89954555  1
  Te  Te171  1  0.92839009  0.08678976  0.25161802  1
  Te  Te172  1  0.90098052  0.06808834  0.57919919  1
  Te  Te173  1  0.91856300  0.09576154  0.91804250  1
  Te  Te174  1  0.90792852  0.42491705  0.25640182  1
  Te  Te175  1  0.91101216  0.42672815  0.58451668  1
  Te  Te176  1  0.90933423  0.41982415  0.90913482  1
  Te  Te177  1  0.90805966  0.75804576  0.27244677  1
  Te  Te178  1  0.92450516  0.70838749  0.61845702  1
  Te  Te179  1  0.90689685  0.73942650  0.90835694  1
