# generated using pymatgen
data_In2Te3
_symmetry_space_group_name_H-M   'P 1'
_cell_length_a   18.80001844
_cell_length_b   18.80746260
_cell_length_c   18.80877186
_cell_angle_alpha   90.04888933
_cell_angle_beta   89.96281984
_cell_angle_gamma   89.96359579
_symmetry_Int_Tables_number   1
_chemical_formula_structural   In2Te3
_chemical_formula_sum   'In72 Te108'
_cell_volume   6650.41249866
_cell_formula_units_Z   36
loop_
 _symmetry_equiv_pos_site_id
 _symmetry_equiv_pos_as_xyz
  1  'x, y, z'
loop_
 _atom_site_type_symbol
 _atom_site_label
 _atom_site_symmetry_multiplicity
 _atom_site_fract_x
 _atom_site_fract_y
 _atom_site_fract_z
 _atom_site_occupancy
  In  In0  1  0.67993014  0.46712506  0.49366603  1
  In  In1  1  0.49523556  0.33969812  0.82614306  1
  In  In2  1  0.81374820  0.68365299  0.17658508  1
  In  In3  1  0.16731267  0.66879017  0.84306482  1
  In  In4  1  0.34795562  0.83608936  0.50811881  1
  In  In5  1  0.33974397  0.48324642  0.84203176  1
  In  In6  1  0.34501920  0.67451257  0.67272540  1
  In  In7  1  0.00722094  0.15991523  0.50492326  1
  In  In8  1  0.84906707  0.67610236  0.52057928  1
  In  In9  1  0.64175378  0.67766064  0.67484062  1
  In  In10  1  0.50233527  0.82878324  0.00577525  1
  In  In11  1  0.49902948  0.17732272  -0.00468199  1
  In  In12  1  0.49784896  0.32673042  0.15852387  1
  In  In13  1  0.49744908  -0.00822842  0.51299106  1
  In  In14  1  0.01146698  0.87776144  0.84863941  1
  In  In15  1  0.81958068  0.48877773  0.67201602  1
  In  In16  1  0.51970410  0.01566987  0.81826396  1
  In  In17  1  0.70187158  0.15225506  0.83984364  1
  In  In18  1  0.01021471  0.67464679  0.00401297  1
  In  In19  1  0.51352019  0.65575921  0.50463298  1
  In  In20  1  0.15696191  0.47249854  0.65650724  1
  In  In21  1  0.32106148  0.49408167  0.15953404  1
  In  In22  1  0.67514830  0.83633453  0.15774109  1
  In  In23  1  0.14936397  0.86502120  0.64907966  1
  In  In24  1  0.17954837  0.17395499  0.34580543  1
  In  In25  1  0.02026109  0.66353322  0.36238449  1
  In  In26  1  0.83189148  0.84680393  0.33997535  1
  In  In27  1  -0.00892216  0.50520217  0.52075179  1
  In  In28  1  0.16375617  0.18823755  -0.01115267  1
  In  In29  1  0.64300571  0.48246737  0.17525369  1
  In  In30  1  0.50635237  -0.00641600  0.17251466  1
  In  In31  1  -0.01229733  0.32341722  0.33206651  1
  In  In32  1  0.67426016  0.84680583  0.50657092  1
  In  In33  1  0.33858762  0.64716909  0.33532992  1
  In  In34  1  0.30586840  0.15278993  0.53071670  1
  In  In35  1  0.66619974  0.84895825  0.84189894  1
  In  In36  1  0.66515482  0.33733643  0.67633520  1
  In  In37  1  0.16402324  0.31918623  0.49772705  1
  In  In38  1  0.00015445  0.31823768  -0.01507951  1
  In  In39  1  0.85251559  0.86987644  0.69441725  1
  In  In40  1  0.83680821  0.85488847  -0.00317668  1
  In  In41  1  0.84021011  0.16693974  0.66491134  1
  In  In42  1  0.83458294  0.64816078  0.83264217  1
  In  In43  1  0.48716542  0.66971123  0.16471783  1
  In  In44  1  0.84389422  0.30888616  0.17255931  1
  In  In45  1  0.50681821  0.16585983  0.32134547  1
  In  In46  1  0.49016132  0.16832404  0.64589943  1
  In  In47  1  -0.00921917  0.67405939  0.66632731  1
  In  In48  1  0.18381651  0.49519585  -0.01423865  1
  In  In49  1  -0.01293483  0.33607935  0.69355495  1
  In  In50  1  0.49551347  0.65312459  0.82079925  1
  In  In51  1  0.65841059  0.16887013  0.48189174  1
  In  In52  1  0.48982295  0.50664681  0.65290275  1
  In  In53  1  0.19376926  0.34079312  0.17167812  1
  In  In54  1  0.14698527  0.68795789  0.16892792  1
  In  In55  1  -0.01031479  0.84524138  0.15298954  1
  In  In56  1  0.64287167  0.65941990  0.32722884  1
  In  In57  1  0.00426515  0.15929860  0.13571083  1
  In  In58  1  0.31126160  0.83541102  0.82417920  1
  In  In59  1  0.33722451  -0.00071187  0.32255520  1
  In  In60  1  0.17044194  0.82958899  0.34444448  1
  In  In61  1  0.30832582  0.16565851  0.81089105  1
  In  In62  1  0.18046726  0.50211615  0.32284256  1
  In  In63  1  0.83872895  0.49343199  -0.01163958  1
  In  In64  1  0.49452415  0.51136533  0.01632571  1
  In  In65  1  -0.00948345  0.02301904  0.34764873  1
  In  In66  1  0.66788034  0.31977764  -0.01384222  1
  In  In67  1  -0.02989124  0.46471054  0.17083234  1
  In  In68  1  0.34156396  -0.00097698  0.00999810  1
  In  In69  1  0.81724451  0.16975719  0.33453765  1
  In  In70  1  0.16864482  0.00427682  0.15142723  1
  In  In71  1  0.67643051  0.00005579  0.34776661  1
  Te  Te72  1  0.07263340  0.05741732  0.04345519  1
  Te  Te73  1  0.10976817  0.07150346  0.43209251  1
  Te  Te74  1  0.15142771  0.09503698  0.73851464  1
  Te  Te75  1  0.08682173  0.41108189  0.08455398  1
  Te  Te76  1  0.07455279  0.42123855  0.41317590  1
  Te  Te77  1  0.09090703  0.40939354  0.77118885  1
  Te  Te78  1  0.09669541  0.78618681  0.06152919  1
  Te  Te79  1  0.08446103  0.76478903  0.44566042  1
  Te  Te80  1  0.08092230  0.76188194  0.75525192  1
  Te  Te81  1  0.42008104  0.09599750  0.09741049  1
  Te  Te82  1  0.41378087  0.08657675  0.42694625  1
  Te  Te83  1  0.40613420  0.07557817  0.73428722  1
  Te  Te84  1  0.40069091  0.40333753  0.06556087  1
  Te  Te85  1  0.44827681  0.46960719  0.46656202  1
  Te  Te86  1  0.39996521  0.40368984  0.72633516  1
  Te  Te87  1  0.40078158  0.74878834  0.07572385  1
  Te  Te88  1  0.42725516  0.74468327  0.41330578  1
  Te  Te89  1  0.43111057  0.77160363  0.74961662  1
  Te  Te90  1  0.78014398  0.05107796  0.03644901  1
  Te  Te91  1  0.77195789  0.07030970  0.44126805  1
  Te  Te92  1  0.74726940  0.06804566  0.72721521  1
  Te  Te93  1  0.75405199  0.41104803  0.08823954  1
  Te  Te94  1  0.76648014  0.39648680  0.40103724  1
  Te  Te95  1  0.75813904  0.39968694  0.77369344  1
  Te  Te96  1  0.74595328  0.74673735  0.05556057  1
  Te  Te97  1  0.74442504  0.73752123  0.41379390  1
  Te  Te98  1  0.75927386  0.74926028  0.74196364  1
  Te  Te99  1  0.08270123  0.24462038  0.24095408  1
  Te  Te100  1  0.08310156  0.24728578  0.60505770  1
  Te  Te101  1  0.05738616  0.21720932  0.88875626  1
  Te  Te102  1  0.07168341  0.57183906  0.23947348  1
  Te  Te103  1  0.09389929  0.59603507  0.58511213  1
  Te  Te104  1  0.07199849  0.57040367  0.91220459  1
  Te  Te105  1  0.07867096  0.92424768  0.25548271  1
  Te  Te106  1  0.06057265  0.96243467  0.58219787  1
  Te  Te107  1  0.10516826  0.94603933  0.93712988  1
  Te  Te108  1  0.40839920  0.24056667  0.24050093  1
  Te  Te109  1  0.39768342  0.25981265  0.57804126  1
  Te  Te110  1  0.40127383  0.24950156  0.90537628  1
  Te  Te111  1  0.42788194  0.55803923  0.24895272  1
  Te  Te112  1  0.38573706  0.57578465  0.55748720  1
  Te  Te113  1  0.40272937  0.59407908  0.92604027  1
  Te  Te114  1  0.41499319  0.90238006  0.24339275  1
  Te  Te115  1  0.40270164  0.93048751  0.60818635  1
  Te  Te116  1  0.42519056  0.92269590  0.90420659  1
  Te  Te117  1  0.73071247  0.25327548  0.24950096  1
  Te  Te118  1  0.74528732  0.25236299  0.57976515  1
  Te  Te119  1  0.77469453  0.26833339  0.89679153  1
  Te  Te120  1  0.74438107  0.57316569  0.25387612  1
  Te  Te121  1  0.73499004  0.58945514  0.58085243  1
  Te  Te122  1  0.73928811  0.57881411  0.91945060  1
  Te  Te123  1  0.76249433  0.93285761  0.23693847  1
  Te  Te124  1  0.76257144  0.92911948  0.59058948  1
  Te  Te125  1  0.77059438  0.94769331  0.89502147  1
  Te  Te126  1  0.26140276  0.24371953  0.08407666  1
  Te  Te127  1  0.28108653  0.25854536  0.41740971  1
  Te  Te128  1  0.21349010  0.23145813  0.71680553  1
  Te  Te129  1  0.24078593  0.59786687  0.08288057  1
  Te  Te130  1  0.23113036  0.59667556  0.42314847  1
  Te  Te131  1  0.25346542  0.57967222  0.75041600  1
  Te  Te132  1  0.26562357  0.90685888  0.09755154  1
  Te  Te133  1  0.25328743  0.92678258  0.42779627  1
  Te  Te134  1  0.22516567  0.93804991  0.75715272  1
  Te  Te135  1  0.60343503  0.23398862  0.09193492  1
  Te  Te136  1  0.57125405  0.26481031  0.41191288  1
  Te  Te137  1  0.58164587  0.23295517  0.75908430  1
  Te  Te138  1  0.59770728  0.59861978  0.08604747  1
  Te  Te139  1  0.56815466  0.54771119  0.40609942  1
  Te  Te140  1  0.59444377  0.55691716  0.75436715  1
  Te  Te141  1  0.59878666  0.93076165  0.06578141  1
  Te  Te142  1  0.57259306  0.90842400  0.40797211  1
  Te  Te143  1  0.59292107  0.91794846  0.73549487  1
  Te  Te144  1  0.89511596  0.22884904  0.05431315  1
  Te  Te145  1  0.90481897  0.24794582  0.43437521  1
  Te  Te146  1  0.93517360  0.21745053  0.76949130  1
  Te  Te147  1  0.91408072  0.59448506  0.09166802  1
  Te  Te148  1  0.90529846  0.57913258  0.41686193  1
  Te  Te149  1  0.92995548  0.56270301  0.74936406  1
  Te  Te150  1  0.90736884  0.95232992  0.08701161  1
  Te  Te151  1  0.92521159  0.91774623  0.42791228  1
  Te  Te152  1  0.94246267  0.97279776  0.75703610  1
  Te  Te153  1  0.25486352  0.09683061  0.23818092  1
  Te  Te154  1  0.22447162  0.05656108  0.61101126  1
  Te  Te155  1  0.24612714  0.07562950  0.91975606  1
  Te  Te156  1  0.28554603  0.40224153  0.27893535  1
  Te  Te157  1  0.25564776  0.41388408  0.56504455  1
  Te  Te158  1  0.23978515  0.38983558  0.89934479  1
  Te  Te159  1  0.25954049  0.75044289  0.24996642  1
  Te  Te160  1  0.24683001  0.75681596  0.59171547  1
  Te  Te161  1  0.25097391  0.75313722  0.92957082  1
  Te  Te162  1  0.60903331  0.08457890  0.24087548  1
  Te  Te163  1  0.59812318  0.07719725  0.58859860  1
  Te  Te164  1  0.59842693  0.08181297  0.93043636  1
  Te  Te165  1  0.57037642  0.39602246  0.26922403  1
  Te  Te166  1  0.56645447  0.39650648  0.57484688  1
  Te  Te167  1  0.57933505  0.42500637  0.92034429  1
  Te  Te168  1  0.57300971  0.76766945  0.24783325  1
  Te  Te169  1  0.56537638  0.77455908  0.58743453  1
  Te  Te170  1  0.58545350  0.74009310  0.91121810  1
  Te  Te171  1  0.91052831  0.09328709  0.23972332  1
  Te  Te172  1  0.94188042  0.06360973  0.60155004  1
  Te  Te173  1  0.87943831  0.05679113  0.93178861  1
  Te  Te174  1  0.87436953  0.41767975  0.28676567  1
  Te  Te175  1  0.90211787  0.39859454  0.58029159  1
  Te  Te176  1  0.92666358  0.41497987  0.90052602  1
  Te  Te177  1  0.92987549  0.74736189  0.25676104  1
  Te  Te178  1  0.92824219  0.78638950  0.58502122  1
  Te  Te179  1  0.92200394  0.75480009  0.90516067  1
