# generated using pymatgen
data_In2Te3
_symmetry_space_group_name_H-M   'P 1'
_cell_length_a   18.97539826
_cell_length_b   18.97103480
_cell_length_c   18.98862265
_cell_angle_alpha   90.08117597
_cell_angle_beta   89.86670150
_cell_angle_gamma   90.03241121
_symmetry_Int_Tables_number   1
_chemical_formula_structural   In2Te3
_chemical_formula_sum   'In72 Te108'
_cell_volume   6835.55378371
_cell_formula_units_Z   36
loop_
 _symmetry_equiv_pos_site_id
 _symmetry_equiv_pos_as_xyz
  1  'x, y, z'
loop_
 _atom_site_type_symbol
 _atom_site_label
 _atom_site_symmetry_multiplicity
 _atom_site_fract_x
 _atom_site_fract_y
 _atom_site_fract_z
 _atom_site_occupancy
  In  In0  1  0.16859655  0.29053584  0.16259535  1
  In  In1  1  0.68559429  0.17237535  0.48736071  1
  In  In2  1  0.10981032  0.86588962  0.01074802  1
  In  In3  1  0.49469679  0.31924030  0.50263808  1
  In  In4  1  0.33715455  0.79242136  0.80027702  1
  In  In5  1  0.33554020  0.67852650  0.34650606  1
  In  In6  1  0.65335854  0.32557903  0.69750883  1
  In  In7  1  0.50795258  0.85519632  0.30218942  1
  In  In8  1  0.30238245  0.17320350  0.51525851  1
  In  In9  1  -0.00609590  0.67905210  0.67433910  1
  In  In10  1  0.47879413  0.50807566  -0.02198623  1
  In  In11  1  0.31511857  0.30832006  -0.00247307  1
  In  In12  1  0.65008755  0.52466125  0.50006029  1
  In  In13  1  0.33712376  0.85410329  0.16201609  1
  In  In14  1  0.31781508  0.48962025  0.13223464  1
  In  In15  1  0.82466507  0.67628033  0.84633476  1
  In  In16  1  0.16153897  0.67374194  0.83754238  1
  In  In17  1  0.86169517  -0.03986446  0.13864540  1
  In  In18  1  0.30680975  -0.00431166  0.66251659  1
  In  In19  1  0.84854039  0.30439441  0.18315303  1
  In  In20  1  0.16504160  0.49894721  0.33528651  1
  In  In21  1  0.68174945  0.12752341  0.15301222  1
  In  In22  1  -0.00495908  0.68711143  0.00846364  1
  In  In23  1  0.31258884  0.17987465  0.83481120  1
  In  In24  1  0.15136937  0.82637677  0.66131661  1
  In  In25  1  0.47143001  0.68391599  0.19006695  1
  In  In26  1  0.51280685  0.51374546  0.33624675  1
  In  In27  1  0.02092156  0.16274043  0.81855738  1
  In  In28  1  0.84699855  0.15203871  0.69817754  1
  In  In29  1  0.14279546  0.13358031  0.01431014  1
  In  In30  1  0.16712987  0.35426117  0.51127933  1
  In  In31  1  0.32948955  0.66983302  -0.00633169  1
  In  In32  1  0.49426142  0.34600088  0.84275172  1
  In  In33  1  0.83113178  0.49643578  0.31777240  1
  In  In34  1  0.19051815  0.51374704  0.67268152  1
  In  In35  1  0.17073369  0.87205182  0.32014441  1
  In  In36  1  0.49107331  0.15493024  0.33512247  1
  In  In37  1  0.84040041  -0.01191335  0.83372183  1
  In  In38  1  0.86271534  0.68849553  0.48620330  1
  In  In39  1  0.68560431  0.81967494  0.51611247  1
  In  In40  1  0.83415960  0.49445162  0.66561619  1
  In  In41  1  0.67513811  0.31234166  0.00961631  1
  In  In42  1  0.15085779  0.08960199  0.26935379  1
  In  In43  1  0.51249213  0.32456283  0.18575518  1
  In  In44  1  -0.01223782  0.31986150  0.01793559  1
  In  In45  1  0.65280781  0.66062386  0.67375927  1
  In  In46  1  0.68295628  -0.00553713  0.66888948  1
  In  In47  1  0.83752602  0.50760947  -0.01602066  1
  In  In48  1  0.49542529  -0.01360569  0.51552314  1
  In  In49  1  0.15473943  0.68623833  0.48164492  1
  In  In50  1  0.31766446  0.81952566  0.49880053  1
  In  In51  1  0.50325358  0.00474759  0.84742877  1
  In  In52  1  0.82720241  0.70620623  0.18673058  1
  In  In53  1  0.68117764  0.01547312  0.33583235  1
  In  In54  1  0.34411516  0.34069004  0.35492441  1
  In  In55  1  0.16251257  0.34980140  0.81776649  1
  In  In56  1  0.02240520  0.17958222  0.48478732  1
  In  In57  1  -0.01385622  0.49991298  0.48559654  1
  In  In58  1  0.65946090  0.86666304  0.13821067  1
  In  In59  1  0.88231123  0.86338702  0.35153820  1
  In  In60  1  0.48335916  0.51622116  0.67055111  1
  In  In61  1  0.83118541  0.32188780  0.84785294  1
  In  In62  1  0.17365307  0.51135836  -0.01919390  1
  In  In63  1  0.01332774  0.51027780  0.15650182  1
  In  In64  1  0.00253871  -0.00117938  0.66638865  1
  In  In65  1  0.84242224  0.14556887  0.31956889  1
  In  In66  1  0.67169533  0.50832023  0.14784374  1
  In  In67  1  0.33998289  -0.01132532  -0.01418926  1
  In  In68  1  0.83055286  0.33157206  0.50141755  1
  In  In69  1  0.66023096  0.83824057  0.83832879  1
  In  In70  1  0.64746670  0.68165966  0.01504502  1
  In  In71  1  0.51200735  0.17847365  0.68770332  1
  Te  Te72  1  0.07130140  0.07318253  0.13120447  1
  Te  Te73  1  0.07274575  0.06678125  0.40176749  1
  Te  Te74  1  0.10581689  0.07632474  0.73699669  1
  Te  Te75  1  0.10293894  0.41063941  0.07821319  1
  Te  Te76  1  0.06988908  0.40381913  0.40406013  1
  Te  Te77  1  0.08281217  0.44661500  0.74438694  1
  Te  Te78  1  0.07739638  0.75816253  0.10588920  1
  Te  Te79  1  0.07913347  0.77945859  0.39708849  1
  Te  Te80  1  0.06445196  0.77018851  0.77350497  1
  Te  Te81  1  0.42778687  0.04142710  0.09080632  1
  Te  Te82  1  0.40929147  0.08696268  0.44195741  1
  Te  Te83  1  0.41041046  0.08153011  0.74746570  1
  Te  Te84  1  0.42386232  0.39227693  0.07861321  1
  Te  Te85  1  0.42586480  0.43793051  0.43711239  1
  Te  Te86  1  0.41551152  0.40201549  0.73380583  1
  Te  Te87  1  0.42134606  0.76216056  0.07264351  1
  Te  Te88  1  0.43509203  0.77175354  0.40833383  1
  Te  Te89  1  0.44418531  0.73035972  0.71390143  1
  Te  Te90  1  0.76477791  0.04427852  0.06255882  1
  Te  Te91  1  0.78254288  0.06766280  0.43622995  1
  Te  Te92  1  0.73465408  0.08768598  0.77461946  1
  Te  Te93  1  0.77228536  0.40880947  0.09042428  1
  Te  Te94  1  0.74555750  0.42729924  0.42188477  1
  Te  Te95  1  0.74819049  0.42095162  0.76731597  1
  Te  Te96  1  0.75669308  0.77068013  0.06902069  1
  Te  Te97  1  0.76887018  0.76875208  0.40001839  1
  Te  Te98  1  0.74771519  0.75645584  0.74370735  1
  Te  Te99  1  0.07209701  0.21585539  0.24128127  1
  Te  Te100  1  0.09307832  0.25478402  0.58936483  1
  Te  Te101  1  0.09604225  0.25217840  0.92649684  1
  Te  Te102  1  0.08849938  0.59079480  0.25211026  1
  Te  Te103  1  0.06999207  0.59161342  0.57230090  1
  Te  Te104  1  0.06243598  0.58747258  0.91485017  1
  Te  Te105  1  0.07318381  0.95798778  0.23946533  1
  Te  Te106  1  0.07729904  0.91165538  0.56461509  1
  Te  Te107  1  0.04489706  0.96864697  0.92353533  1
  Te  Te108  1  0.40158659  0.24369265  0.25119429  1
  Te  Te109  1  0.40693861  0.24616371  0.60058538  1
  Te  Te110  1  0.42336145  0.23237474  0.92307395  1
  Te  Te111  1  0.39164668  0.56073337  0.24672976  1
  Te  Te112  1  0.41815530  0.62969072  0.60632551  1
  Te  Te113  1  0.39567829  0.58885665  0.88800769  1
  Te  Te114  1  0.39105269  0.94334578  0.27241423  1
  Te  Te115  1  0.40503204  0.89962913  0.59866240  1
  Te  Te116  1  0.41150212  0.89190098  0.89098237  1
  Te  Te117  1  0.73622387  0.23069210  0.25246501  1
  Te  Te118  1  0.75278492  0.24557261  0.60651166  1
  Te  Te119  1  0.77681202  0.22808242  0.94603773  1
  Te  Te120  1  0.73895053  0.59675602  0.25094296  1
  Te  Te121  1  0.76872001  0.59326475  0.57058937  1
  Te  Te122  1  0.72676594  0.58730145  0.92227098  1
  Te  Te123  1  0.75518790  0.91818727  0.24688105  1
  Te  Te124  1  0.76782311  0.92744168  0.57165013  1
  Te  Te125  1  0.73307250  0.93554813  0.92718351  1
  Te  Te126  1  0.26290553  0.19947278  0.08695834  1
  Te  Te127  1  0.23404329  0.25385451  0.40820035  1
  Te  Te128  1  0.23079385  0.24803204  0.73580662  1
  Te  Te129  1  0.22959412  0.60367715  0.08792006  1
  Te  Te130  1  0.25318919  0.58104883  0.42757321  1
  Te  Te131  1  0.26738461  0.59283973  0.77200356  1
  Te  Te132  1  0.23178810  0.92917563  0.08324178  1
  Te  Te133  1  0.24570731  0.92890872  0.43370747  1
  Te  Te134  1  0.23861666  0.90228814  0.75990794  1
  Te  Te135  1  0.57971594  0.22771516  0.09054709  1
  Te  Te136  1  0.58701971  0.25124231  0.40297427  1
  Te  Te137  1  0.59429913  0.23400119  0.80177558  1
  Te  Te138  1  0.54620298  0.57930457  0.09536563  1
  Te  Te139  1  0.57855865  0.61801594  0.41411655  1
  Te  Te140  1  0.59336678  0.55785669  0.75715865  1
  Te  Te141  1  0.54087422  0.93674327  0.07840717  1
  Te  Te142  1  0.59517162  0.92027614  0.41930512  1
  Te  Te143  1  0.57517318  0.91975439  0.74043946  1
  Te  Te144  1  0.91138701  0.21570515  0.08551664  1
  Te  Te145  1  0.91190964  0.25268705  0.40283633  1
  Te  Te146  1  0.93278961  0.26518071  0.74987082  1
  Te  Te147  1  0.89515065  0.59236781  0.09602130  1
  Te  Te148  1  0.92642393  0.59530106  0.38468097  1
  Te  Te149  1  0.91155208  0.58422639  0.75974553  1
  Te  Te150  1  0.95930439  0.90471678  0.03749393  1
  Te  Te151  1  0.98633741  0.92885043  0.43684663  1
  Te  Te152  1  0.90215657  0.90837447  0.72764260  1
  Te  Te153  1  0.28103458  0.03531507  0.21297319  1
  Te  Te154  1  0.21890601  0.06444164  0.56800089  1
  Te  Te155  1  0.23740647  0.07259061  0.91018224  1
  Te  Te156  1  0.24934401  0.40055223  0.24121159  1
  Te  Te157  1  0.26922548  0.43212971  0.58129413  1
  Te  Te158  1  0.26824895  0.41890932  0.90757598  1
  Te  Te159  1  0.25492779  0.75934907  0.25125395  1
  Te  Te160  1  0.24555642  0.72735265  0.59638140  1
  Te  Te161  1  0.23844662  0.76969276  0.92568883  1
  Te  Te162  1  0.57321128  0.06681391  0.24376195  1
  Te  Te163  1  0.58625519  0.09871446  0.57806593  1
  Te  Te164  1  0.59664843  0.02166483  0.96044438  1
  Te  Te165  1  0.60388426  0.42241237  0.25538983  1
  Te  Te166  1  0.59950525  0.40079194  0.57817623  1
  Te  Te167  1  0.59353555  0.41662410  0.93492919  1
  Te  Te168  1  0.59678087  0.75702958  0.23013184  1
  Te  Te169  1  0.57483439  0.75493417  0.59059571  1
  Te  Te170  1  0.56932856  0.74942968  0.91321945  1
  Te  Te171  1  0.92314057  0.04573279  0.24527335  1
  Te  Te172  1  0.92722616  0.10342550  0.58273437  1
  Te  Te173  1  0.93417434  0.08056472  0.90928128  1
  Te  Te174  1  0.93484836  0.41256259  0.24512341  1
  Te  Te175  1  0.92968904  0.40445506  0.58931875  1
  Te  Te176  1  0.93373228  0.41579040  0.91381031  1
  Te  Te177  1  0.93884499  0.78238514  0.24222012  1
  Te  Te178  1  0.91989048  0.77377742  0.58999495  1
  Te  Te179  1  0.90650121  0.77026193  0.92483156  1
