# generated using pymatgen
data_In2Te3
_symmetry_space_group_name_H-M   'P 1'
_cell_length_a   18.77967733
_cell_length_b   18.78653039
_cell_length_c   18.78096238
_cell_angle_alpha   90.03538965
_cell_angle_beta   90.04864839
_cell_angle_gamma   90.00169848
_symmetry_Int_Tables_number   1
_chemical_formula_structural   In2Te3
_chemical_formula_sum   'In72 Te108'
_cell_volume   6626.01337980
_cell_formula_units_Z   36
loop_
 _symmetry_equiv_pos_site_id
 _symmetry_equiv_pos_as_xyz
  1  'x, y, z'
loop_
 _atom_site_type_symbol
 _atom_site_label
 _atom_site_symmetry_multiplicity
 _atom_site_fract_x
 _atom_site_fract_y
 _atom_site_fract_z
 _atom_site_occupancy
  In  In0  1  0.46512160  0.35084892  0.46369146  1
  In  In1  1  0.50761814  0.68222382  0.85191544  1
  In  In2  1  0.83728044  0.50530349  0.03376137  1
  In  In3  1  0.82827454  0.67921606  0.48845335  1
  In  In4  1  0.82592128  0.17123727  0.34121193  1
  In  In5  1  0.32489167  0.33667809  0.67056458  1
  In  In6  1  0.18068734  0.32463794  0.48288769  1
  In  In7  1  0.84711432  0.66657796  0.17339630  1
  In  In8  1  0.04759924  0.14131507  0.17397480  1
  In  In9  1  0.50311907  0.84135680  0.64859586  1
  In  In10  1  0.63127256  0.13460153  0.87919251  1
  In  In11  1  0.67465632  0.00523564  0.65360098  1
  In  In12  1  0.33267235  0.83912342  0.18503443  1
  In  In13  1  0.66909811  0.84084952  0.83728447  1
  In  In14  1  0.82436442  0.69581742  0.84548314  1
  In  In15  1  0.18925226  0.49784002  0.02772228  1
  In  In16  1  0.33005652  0.66832574  0.32523334  1
  In  In17  1  0.48587741  0.49904276  0.63763218  1
  In  In18  1  0.17043978  -0.00125815  0.84567569  1
  In  In19  1  0.85215273  0.84760246  0.00118070  1
  In  In20  1  0.66692359  0.14706196  0.51444320  1
  In  In21  1  0.52818448  0.15529748  0.65424753  1
  In  In22  1  0.81884721  -0.01337752  0.17348850  1
  In  In23  1  0.65966576  0.66224148  0.34721217  1
  In  In24  1  0.65728526  0.32457246  0.03347558  1
  In  In25  1  0.00666514  0.16268104  0.83843191  1
  In  In26  1  0.00038956  0.85407750  0.83323328  1
  In  In27  1  0.02041556  0.82798344  0.16913617  1
  In  In28  1  0.69130785  0.30713531  0.64827927  1
  In  In29  1  0.14622931  0.36053957  0.84276297  1
  In  In30  1  0.30190847  0.30930211  0.02805226  1
  In  In31  1  0.64441522  0.86847555  0.15814055  1
  In  In32  1  0.66639985  0.68375031  -0.01301373  1
  In  In33  1  0.85992604  0.50559569  0.63586205  1
  In  In34  1  0.33954959  0.14338436  0.49481243  1
  In  In35  1  0.46832528  0.30867326  0.83307448  1
  In  In36  1  0.84434137  0.32587351  0.83697736  1
  In  In37  1  0.17779513  0.49142831  0.66100963  1
  In  In38  1  0.46163667  0.66943203  0.17382219  1
  In  In39  1  0.83768901  0.15336039  0.64717845  1
  In  In40  1  0.03801723  0.50039297  0.82526001  1
  In  In41  1  -0.00015790  0.67154193  0.33021730  1
  In  In42  1  0.19360116  0.48161975  0.30428422  1
  In  In43  1  0.82020743  0.01036659  0.48395106  1
  In  In44  1  0.83426743  -0.00071275  0.83590625  1
  In  In45  1  0.16727966  0.68780084  0.49015623  1
  In  In46  1  0.00801425  0.16149216  0.46325296  1
  In  In47  1  0.67257665  0.48041527  0.47382395  1
  In  In48  1  0.66159454  0.70104654  0.65774532  1
  In  In49  1  -0.01081202  0.47443364  0.19804880  1
  In  In50  1  0.51177507  0.86602560  0.33048624  1
  In  In51  1  0.01435266  0.48677055  0.48994657  1
  In  In52  1  0.32449283  0.65920473  0.64255402  1
  In  In53  1  0.67332576  0.31645013  0.32797070  1
  In  In54  1  0.65045715  0.48850252  0.82288746  1
  In  In55  1  0.47852990  0.49546149  0.01182995  1
  In  In56  1  0.02351274  -0.01127890  0.32267852  1
  In  In57  1  0.29900183  0.86110370  0.45533934  1
  In  In58  1  0.34113134  0.00424178  0.03559521  1
  In  In59  1  0.49740052  0.15131055  0.32418010  1
  In  In60  1  0.84299909  0.16658449  0.02238868  1
  In  In61  1  0.00347094  0.33354173  0.02243486  1
  In  In62  1  0.48921782  0.31857705  0.17118353  1
  In  In63  1  0.33355921  0.83108261  0.85265153  1
  In  In64  1  0.66444650  0.49053023  0.16684419  1
  In  In65  1  0.35284727  0.17016287  0.85564528  1
  In  In66  1  0.32131591  0.67574248  0.01444127  1
  In  In67  1  -0.01168326  0.67577786  0.68105896  1
  In  In68  1  0.16898249  0.15247400  0.66753822  1
  In  In69  1  0.33896030  0.01432073  0.66713723  1
  In  In70  1  0.17442576  0.68443566  0.83918650  1
  In  In71  1  0.03039593  0.86551275  0.50677303  1
  Te  Te72  1  0.12682399  0.08526059  0.06123416  1
  Te  Te73  1  0.11809148  0.07654900  0.40224279  1
  Te  Te74  1  0.07097667  0.06201951  0.74362397  1
  Te  Te75  1  0.10288970  0.40483332  0.11278567  1
  Te  Te76  1  0.09006976  0.40357830  0.38717931  1
  Te  Te77  1  0.06948833  0.39893650  0.71419530  1
  Te  Te78  1  0.05148607  0.72286670  0.07278146  1
  Te  Te79  1  0.09115070  0.77564010  0.39443250  1
  Te  Te80  1  0.09328187  0.76760378  0.74101476  1
  Te  Te81  1  0.42549891  0.07991985  0.13475780  1
  Te  Te82  1  0.39926138  0.05418144  0.38965826  1
  Te  Te83  1  0.43678353  0.08699095  0.75827910  1
  Te  Te84  1  0.38858642  0.41820478  0.10339661  1
  Te  Te85  1  0.37784127  0.42696428  0.36811537  1
  Te  Te86  1  0.41384801  0.42999268  0.75397660  1
  Te  Te87  1  0.41947515  0.77665141  0.07471144  1
  Te  Te88  1  0.41176816  0.77097769  0.40386788  1
  Te  Te89  1  0.41524768  0.74887204  0.74610909  1
  Te  Te90  1  0.74263572  0.07954618  0.08689997  1
  Te  Te91  1  0.71584315  0.07161608  0.38871053  1
  Te  Te92  1  0.74453892  0.10196988  0.75826367  1
  Te  Te93  1  0.77065908  0.39313077  0.11133239  1
  Te  Te94  1  0.77602163  0.40970422  0.39170786  1
  Te  Te95  1  0.76136382  0.41182891  0.73842531  1
  Te  Te96  1  0.75439146  0.75808442  0.08811298  1
  Te  Te97  1  0.74183936  0.76872093  0.40972591  1
  Te  Te98  1  0.76736990  0.78171339  0.73373661  1
  Te  Te99  1  0.12300692  0.24150073  0.25631335  1
  Te  Te100  1  0.08816705  0.24083625  0.57275203  1
  Te  Te101  1  0.09225455  0.24841904  0.93130573  1
  Te  Te102  1  0.08825983  0.58035231  0.24715333  1
  Te  Te103  1  0.08372521  0.59403631  0.58828345  1
  Te  Te104  1  0.10377596  0.58541834  0.93259902  1
  Te  Te105  1  0.12434364  0.92577047  0.22655950  1
  Te  Te106  1  0.11246034  0.94846838  0.59384123  1
  Te  Te107  1  0.08044298  0.92324269  0.93606875  1
  Te  Te108  1  0.39441609  0.24394387  0.26280209  1
  Te  Te109  1  0.41510648  0.24334754  0.59052698  1
  Te  Te110  1  0.42892650  0.24406140  0.96581153  1
  Te  Te111  1  0.42800845  0.56535546  0.27317312  1
  Te  Te112  1  0.41626298  0.59234393  0.54824989  1
  Te  Te113  1  0.40480169  0.59015865  0.91727768  1
  Te  Te114  1  0.39660595  0.94566054  0.27059101  1
  Te  Te115  1  0.39762744  0.91539390  0.56651316  1
  Te  Te116  1  0.41223766  0.94336919  0.91371412  1
  Te  Te117  1  0.73809171  0.22408130  0.23287383  1
  Te  Te118  1  0.78082712  0.24802874  0.54000336  1
  Te  Te119  1  0.74684086  0.25009085  0.92585481  1
  Te  Te120  1  0.75258107  0.57936194  0.25550531  1
  Te  Te121  1  0.73874288  0.58189862  0.58276947  1
  Te  Te122  1  0.74969670  0.57295067  0.91969296  1
  Te  Te123  1  0.73713293  0.90423755  0.26696053  1
  Te  Te124  1  0.74438574  0.91185764  0.56486052  1
  Te  Te125  1  0.74118985  0.93187605  0.93738891  1
  Te  Te126  1  0.22464827  0.20351363  0.10906987  1
  Te  Te127  1  0.26265300  0.23044634  0.40194788  1
  Te  Te128  1  0.24503400  0.24535312  0.76488361  1
  Te  Te129  1  0.25960631  0.59196534  0.12017358  1
  Te  Te130  1  0.24087778  0.57969892  0.41592742  1
  Te  Te131  1  0.25477817  0.58241085  0.75538877  1
  Te  Te132  1  0.23425811  0.92213219  0.10283699  1
  Te  Te133  1  0.20441033  0.93948100  0.37019055  1
  Te  Te134  1  0.25640364  0.91573883  0.75021337  1
  Te  Te135  1  0.58377617  0.22052051  0.10778644  1
  Te  Te136  1  0.57244937  0.24235665  0.43012243  1
  Te  Te137  1  0.59048238  0.25472809  0.75850452  1
  Te  Te138  1  0.58202721  0.59011676  0.07773843  1
  Te  Te139  1  0.56894415  0.57102345  0.42150460  1
  Te  Te140  1  0.57748030  0.59866620  0.74150078  1
  Te  Te141  1  0.54404917  0.96302994  0.09691196  1
  Te  Te142  1  0.58836044  0.95200569  0.42378740  1
  Te  Te143  1  0.58080209  0.92812895  0.74864245  1
  Te  Te144  1  0.93328594  0.24220711  0.11866590  1
  Te  Te145  1  0.94269882  0.26114882  0.37095756  1
  Te  Te146  1  0.92522225  0.24412512  0.73730766  1
  Te  Te147  1  0.95094670  0.59221564  0.08843256  1
  Te  Te148  1  0.91493049  0.57732132  0.41411760  1
  Te  Te149  1  0.90986919  0.57728737  0.76820603  1
  Te  Te150  1  0.93806979  0.93358891  0.09141456  1
  Te  Te151  1  0.92119464  0.91863570  0.41189331  1
  Te  Te152  1  0.90880689  0.91940724  0.73701422  1
  Te  Te153  1  0.20330243  0.11724302  0.23562760  1
  Te  Te154  1  0.22450767  0.05316185  0.56274581  1
  Te  Te155  1  0.24975924  0.09266517  0.93737912  1
  Te  Te156  1  0.28617150  0.37325487  0.25697810  1
  Te  Te157  1  0.26975693  0.42600628  0.55956616  1
  Te  Te158  1  0.26435521  0.41562932  0.91985934  1
  Te  Te159  1  0.23497002  0.73957565  0.23623889  1
  Te  Te160  1  0.25068605  0.77683963  0.57966051  1
  Te  Te161  1  0.22743500  0.77738739  0.94829119  1
  Te  Te162  1  0.56078315  0.06226773  0.21942840  1
  Te  Te163  1  0.55436248  0.04330389  0.54857508  1
  Te  Te164  1  0.54137849  0.04140404  0.94833246  1
  Te  Te165  1  0.57438873  0.41208476  0.26047626  1
  Te  Te166  1  0.58366662  0.39688109  0.57960754  1
  Te  Te167  1  0.57387005  0.40626791  0.92941689  1
  Te  Te168  1  0.57620754  0.74959197  0.23716271  1
  Te  Te169  1  0.57779024  0.75865577  0.55221323  1
  Te  Te170  1  0.56668418  0.79026758  0.94195288  1
  Te  Te171  1  0.91969698  0.07910774  0.25421121  1
  Te  Te172  1  0.93606690  0.07125757  0.56614329  1
  Te  Te173  1  0.92667746  0.07453759  0.93294973  1
  Te  Te174  1  0.89287788  0.40273240  0.28219732  1
  Te  Te175  1  0.92236382  0.39541819  0.56261390  1
  Te  Te176  1  0.92550804  0.42274621  0.92341965  1
  Te  Te177  1  0.90904873  0.77353033  0.26166976  1
  Te  Te178  1  0.92833851  0.76087553  0.57102129  1
  Te  Te179  1  0.93991995  0.74197052  0.93121535  1
