# generated using pymatgen
data_In2Te3
_symmetry_space_group_name_H-M   'P 1'
_cell_length_a   18.86501493
_cell_length_b   18.85158843
_cell_length_c   18.87408299
_cell_angle_alpha   90.17804084
_cell_angle_beta   90.00415891
_cell_angle_gamma   89.90594024
_symmetry_Int_Tables_number   1
_chemical_formula_structural   In2Te3
_chemical_formula_sum   'In72 Te108'
_cell_volume   6712.25242317
_cell_formula_units_Z   36
loop_
 _symmetry_equiv_pos_site_id
 _symmetry_equiv_pos_as_xyz
  1  'x, y, z'
loop_
 _atom_site_type_symbol
 _atom_site_label
 _atom_site_symmetry_multiplicity
 _atom_site_fract_x
 _atom_site_fract_y
 _atom_site_fract_z
 _atom_site_occupancy
  In  In0  1  0.83193770  0.17411988  -0.00889296  1
  In  In1  1  0.48170086  0.18454764  0.64768820  1
  In  In2  1  0.84451929  -0.01298545  0.18545485  1
  In  In3  1  -0.01251909  0.49650069  0.17515313  1
  In  In4  1  0.32000977  0.81853490  0.49928490  1
  In  In5  1  0.84747854  0.01538790  0.49002563  1
  In  In6  1  0.84652628  0.67226747  0.17536664  1
  In  In7  1  0.00517325  0.17053250  0.50850754  1
  In  In8  1  0.01851205  0.14034761  0.82424527  1
  In  In9  1  0.80931086  0.02269497  0.82014106  1
  In  In10  1  0.49928376  0.15817358  0.32158143  1
  In  In11  1  0.84795644  0.82866504  0.02481697  1
  In  In12  1  0.29842655  0.30436083  0.36325994  1
  In  In13  1  0.32663621  0.66533373  0.00911750  1
  In  In14  1  0.49196939  0.50550203  0.30530257  1
  In  In15  1  0.65715973  0.30955581  0.64658104  1
  In  In16  1  -0.00273918  0.34264580  -0.01300855  1
  In  In17  1  0.17170619  0.48322475  0.66069534  1
  In  In18  1  0.18197950  0.31704519  0.16057412  1
  In  In19  1  0.01725592  0.48617864  0.49136074  1
  In  In20  1  0.34700734  0.51505925  0.15923317  1
  In  In21  1  0.02053267  0.84257214  0.17199550  1
  In  In22  1  0.66899378  0.85042951  0.49403537  1
  In  In23  1  0.16986278  0.17871391  0.66900627  1
  In  In24  1  0.65291117  0.46860544  0.84436683  1
  In  In25  1  0.68186160  0.83252524  0.18281171  1
  In  In26  1  0.30939427  0.47909294  0.82494522  1
  In  In27  1  0.16220196  0.67584893  0.84196553  1
  In  In28  1  0.51261708  -0.00007454  0.47415865  1
  In  In29  1  0.32894335  0.02854996  0.33103364  1
  In  In30  1  0.19458124  0.01955297  0.83299349  1
  In  In31  1  0.84612151  0.67268029  0.53068889  1
  In  In32  1  0.31600707  0.84367400  0.15981424  1
  In  In33  1  0.66706652  0.65114799  0.66117340  1
  In  In34  1  0.66617899  0.66955864  0.33713212  1
  In  In35  1  0.00349103  0.00826019  0.33966155  1
  In  In36  1  0.33285392  0.51294071  0.49853949  1
  In  In37  1  0.49204364  0.32842123  0.50622869  1
  In  In38  1  0.82154751  0.34385976  0.17961059  1
  In  In39  1  0.82472169  0.66407159  0.85880571  1
  In  In40  1  0.00917860  0.68974983  0.33641871  1
  In  In41  1  0.48383252  0.83957536  -0.01760525  1
  In  In42  1  0.46444179  0.48034013  0.67514150  1
  In  In43  1  0.03373160  0.52857107  0.83567229  1
  In  In44  1  0.66590157  0.18001158  0.17213850  1
  In  In45  1  0.82857566  0.51629105  0.67095534  1
  In  In46  1  0.17657568  0.51088474  0.34149039  1
  In  In47  1  0.82456364  0.83864672  0.66259102  1
  In  In48  1  0.03569881  0.13557119  0.14330714  1
  In  In49  1  0.17059810  0.30571217  0.84539754  1
  In  In50  1  0.50645421  0.49782385  0.00342662  1
  In  In51  1  0.18516967  0.83680969  0.33532276  1
  In  In52  1  0.82792319  0.31368878  0.85256783  1
  In  In53  1  0.50167253  0.84865465  0.68932672  1
  In  In54  1  0.82826871  0.48883810  0.02668797  1
  In  In55  1  0.82788259  0.31298012  0.49313634  1
  In  In56  1  0.48383217  0.68378180  0.82481278  1
  In  In57  1  0.66378336  0.49028368  0.15624818  1
  In  In58  1  0.66780636  0.15043238  0.48745471  1
  In  In59  1  0.48597068  0.01597463  0.84407774  1
  In  In60  1  0.66426499  0.00688609  -0.01823173  1
  In  In61  1  0.32433471  0.00561190  0.65561426  1
  In  In62  1  0.63476560  0.84372512  0.84623181  1
  In  In63  1  -0.00905386  0.30274295  0.66373646  1
  In  In64  1  -0.01545045  0.85630977  0.84269008  1
  In  In65  1  0.02632713  0.69593070  0.65633927  1
  In  In66  1  0.48933951  0.33560076  0.15335880  1
  In  In67  1  0.83568206  0.47361868  0.35555431  1
  In  In68  1  0.48797872  0.00134814  0.16252153  1
  In  In69  1  0.16674716  0.84784751  0.00722523  1
  In  In70  1  0.33464755  0.14955517  0.14348884  1
  In  In71  1  0.48499467  0.66781570  0.48892055  1
  Te  Te72  1  0.13181801  0.05504397  0.06706256  1
  Te  Te73  1  0.10148941  0.09031337  0.42206504  1
  Te  Te74  1  0.09304104  0.05635041  0.72250039  1
  Te  Te75  1  0.08304570  0.41314522  0.09023540  1
  Te  Te76  1  0.10326880  0.40144988  0.40880098  1
  Te  Te77  1  0.07111467  0.40433275  0.75435542  1
  Te  Te78  1  0.09745059  0.74802284  0.09057347  1
  Te  Te79  1  0.09551352  0.76301695  0.43463806  1
  Te  Te80  1  0.09216599  0.78600828  0.75872977  1
  Te  Te81  1  0.44395849  0.09254247  0.05164115  1
  Te  Te82  1  0.41176231  0.10602300  0.43390525  1
  Te  Te83  1  0.40243608  0.09949043  0.74860393  1
  Te  Te84  1  0.39484867  0.40865530  0.06035288  1
  Te  Te85  1  0.41180070  0.41252654  0.40375079  1
  Te  Te86  1  0.41467943  0.38528649  0.77600799  1
  Te  Te87  1  0.42006060  0.75435245  0.09057090  1
  Te  Te88  1  0.41749701  0.76419896  0.40263957  1
  Te  Te89  1  0.39331456  0.76662623  0.74479468  1
  Te  Te90  1  0.75556000  0.07275850  0.08666681  1
  Te  Te91  1  0.75003595  0.07249766  0.39349576  1
  Te  Te92  1  0.75675412  0.13424406  0.74236643  1
  Te  Te93  1  0.72672220  0.38391496  0.06659273  1
  Te  Te94  1  0.73093802  0.40199309  0.42740666  1
  Te  Te95  1  0.75434471  0.40305256  0.74154187  1
  Te  Te96  1  0.74408958  0.73342527  0.08146547  1
  Te  Te97  1  0.76095191  0.74796561  0.42708711  1
  Te  Te98  1  0.74240624  0.74697568  0.75633411  1
  Te  Te99  1  0.10265812  0.22314177  0.24368569  1
  Te  Te100  1  0.10438384  0.27686984  0.57071698  1
  Te  Te101  1  0.07849347  0.22362709  0.93625287  1
  Te  Te102  1  0.08207071  0.59019679  0.24953812  1
  Te  Te103  1  0.09640461  0.58639930  0.57518137  1
  Te  Te104  1  0.11014642  0.58462511  0.94804492  1
  Te  Te105  1  0.10682485  0.93757379  0.25103623  1
  Te  Te106  1  0.14362809  0.86434715  0.54964477  1
  Te  Te107  1  0.08746149  0.94070770  0.91573524  1
  Te  Te108  1  0.40034718  0.24956391  0.24938740  1
  Te  Te109  1  0.37775558  0.27132035  0.58223116  1
  Te  Te110  1  0.37716843  0.20631276  0.95474854  1
  Te  Te111  1  0.38951351  0.60523371  0.26927698  1
  Te  Te112  1  0.40640322  0.60048554  0.60142610  1
  Te  Te113  1  0.40787136  0.57895315  0.90549797  1
  Te  Te114  1  0.40803311  0.91923191  0.25878918  1
  Te  Te115  1  0.42776183  0.91623455  0.57345593  1
  Te  Te116  1  0.38991881  0.92599924  0.91022005  1
  Te  Te117  1  0.75318605  0.24883500  0.26731320  1
  Te  Te118  1  0.76616441  0.21398812  0.59176465  1
  Te  Te119  1  0.71963504  0.23017241  0.91058496  1
  Te  Te120  1  0.76491687  0.56829583  0.25106166  1
  Te  Te121  1  0.73970065  0.56641433  0.55777306  1
  Te  Te122  1  0.73418512  0.56704988  0.93153661  1
  Te  Te123  1  0.75498768  0.91728563  0.27871714  1
  Te  Te124  1  0.74416240  0.94151239  0.58799230  1
  Te  Te125  1  0.76381259  0.89847904  0.91608898  1
  Te  Te126  1  0.25814340  0.24481781  0.05027963  1
  Te  Te127  1  0.22314303  0.19014245  0.41980813  1
  Te  Te128  1  0.26886516  0.25603844  0.74815799  1
  Te  Te129  1  0.23531366  0.58090501  0.08792921  1
  Te  Te130  1  0.25848872  0.60837466  0.41514195  1
  Te  Te131  1  0.24353639  0.58932815  0.74390805  1
  Te  Te132  1  0.24993047  0.95353334  0.07953939  1
  Te  Te133  1  0.25195684  0.94034090  0.42883224  1
  Te  Te134  1  0.26989217  0.91402621  0.75829923  1
  Te  Te135  1  0.55852992  0.22499658  0.08157957  1
  Te  Te136  1  0.58278646  0.25074019  0.41084831  1
  Te  Te137  1  0.55840954  0.26635847  0.74596889  1
  Te  Te138  1  0.56575630  0.58627533  0.10483965  1
  Te  Te139  1  0.57739031  0.57233368  0.41380046  1
  Te  Te140  1  0.57658616  0.57302013  0.75419787  1
  Te  Te141  1  0.58796937  0.91288165  0.07517532  1
  Te  Te142  1  0.57913691  0.90015090  0.38887195  1
  Te  Te143  1  0.59681646  0.94998608  0.74920427  1
  Te  Te144  1  0.91603373  0.25898465  0.08592486  1
  Te  Te145  1  0.92355370  0.24212647  0.40890160  1
  Te  Te146  1  0.90390177  0.21850377  0.75531120  1
  Te  Te147  1  0.92855629  0.59367016  0.07392669  1
  Te  Te148  1  0.92310007  0.59237752  0.41803950  1
  Te  Te149  1  0.92422079  0.61014356  0.74564284  1
  Te  Te150  1  0.94078243  0.93495144  0.07909337  1
  Te  Te151  1  0.92751053  0.91189939  0.41983263  1
  Te  Te152  1  0.91048955  0.93892055  0.73907016  1
  Te  Te153  1  0.23489464  0.11159338  0.24972179  1
  Te  Te154  1  0.23771879  0.08995006  0.56864745  1
  Te  Te155  1  0.25531224  0.12250663  0.92400307  1
  Te  Te156  1  0.26102016  0.41221817  0.24917810  1
  Te  Te157  1  0.27060224  0.40501275  0.58167630  1
  Te  Te158  1  0.22179727  0.41847354  0.92583132  1
  Te  Te159  1  0.24269233  0.74222276  0.23733316  1
  Te  Te160  1  0.22756216  0.75160207  0.59091086  1
  Te  Te161  1  0.25983180  0.76536267  0.91700276  1
  Te  Te162  1  0.59470695  0.06558253  0.24865924  1
  Te  Te163  1  0.57733155  0.08118846  0.58692613  1
  Te  Te164  1  0.59569064  0.10418989  0.89472307  1
  Te  Te165  1  0.58877528  0.39896878  0.25084415  1
  Te  Te166  1  0.57643923  0.42656679  0.58701951  1
  Te  Te167  1  0.56061068  0.38633961  0.92220613  1
  Te  Te168  1  0.58200752  0.74152536  0.24186349  1
  Te  Te169  1  0.58266554  0.75373050  0.58795218  1
  Te  Te170  1  0.58398660  0.73004922  0.92934044  1
  Te  Te171  1  0.92583902  0.10087548  0.24322753  1
  Te  Te172  1  0.94360697  0.06586435  0.59107137  1
  Te  Te173  1  0.91644360  0.07222437  0.91768869  1
  Te  Te174  1  0.93577086  0.39393866  0.27304498  1
  Te  Te175  1  0.91738042  0.42015352  0.58899525  1
  Te  Te176  1  0.91234302  0.43905431  0.90235945  1
  Te  Te177  1  0.91247193  0.77853644  0.26079556  1
  Te  Te178  1  0.93743347  0.78772341  0.57301193  1
  Te  Te179  1  0.93460550  0.74191191  0.93048024  1
