# generated using pymatgen
data_In2Te3
_symmetry_space_group_name_H-M   'P 1'
_cell_length_a   19.04482380
_cell_length_b   19.00529345
_cell_length_c   18.95916509
_cell_angle_alpha   90.18430624
_cell_angle_beta   89.99897224
_cell_angle_gamma   89.82739558
_symmetry_Int_Tables_number   1
_chemical_formula_structural   In2Te3
_chemical_formula_sum   'In72 Te108'
_cell_volume   6862.24989501
_cell_formula_units_Z   36
loop_
 _symmetry_equiv_pos_site_id
 _symmetry_equiv_pos_as_xyz
  1  'x, y, z'
loop_
 _atom_site_type_symbol
 _atom_site_label
 _atom_site_symmetry_multiplicity
 _atom_site_fract_x
 _atom_site_fract_y
 _atom_site_fract_z
 _atom_site_occupancy
  In  In0  1  0.32493911  0.14903854  0.15771508  1
  In  In1  1  0.82337494  0.64273730  0.11158962  1
  In  In2  1  0.34391976  0.33984352  0.64914853  1
  In  In3  1  0.80552915  0.35198550  0.51227825  1
  In  In4  1  0.17048110  0.13471262  -0.00672554  1
  In  In5  1  -0.01773872  -0.01644201  -0.02456252  1
  In  In6  1  0.83686129  0.16346070  -0.01154425  1
  In  In7  1  0.64873615  0.68667052  0.33238931  1
  In  In8  1  0.32895081  0.00074688  0.34032134  1
  In  In9  1  0.49659797  0.65184385  0.83726947  1
  In  In10  1  0.02930153  0.82247077  0.51137401  1
  In  In11  1  0.16509528  0.15242549  0.37536262  1
  In  In12  1  -0.00706438  0.34679331  -0.00076168  1
  In  In13  1  0.68602000  0.81971674  0.15851983  1
  In  In14  1  0.70107766  -0.01436716  -0.03640088  1
  In  In15  1  0.17218645  0.32216881  0.85338437  1
  In  In16  1  0.35979216  0.18371438  0.85773337  1
  In  In17  1  0.02764726  0.27112853  0.71311995  1
  In  In18  1  0.47795871  -0.00467806  0.50013174  1
  In  In19  1  0.35265154  0.37491698  0.30100369  1
  In  In20  1  0.50007543  -0.00023075  0.16202672  1
  In  In21  1  0.81448490  -0.00941622  0.50347736  1
  In  In22  1  0.01084966  0.65570247  0.66837683  1
  In  In23  1  -0.00585708  0.82559594  0.15979841  1
  In  In24  1  0.32129865  0.14825798  0.49950413  1
  In  In25  1  0.64237858  0.49509592  0.47993318  1
  In  In26  1  0.50504963  0.63815569  0.15622571  1
  In  In27  1  -0.02129189  0.82600596  0.83595447  1
  In  In28  1  0.47251982  0.66888515  0.47060865  1
  In  In29  1  0.51106239  0.81765647  -0.00575292  1
  In  In30  1  0.84735676  -0.00047976  0.16424388  1
  In  In31  1  0.17126845  0.30520118  0.18122895  1
  In  In32  1  0.80324161  0.51157468  0.69243593  1
  In  In33  1  0.82757916  0.64484338  0.86786673  1
  In  In34  1  0.19067873  0.81514994  0.65793698  1
  In  In35  1  0.83540704  0.18288778  0.67835167  1
  In  In36  1  0.68642323  -0.04754225  0.72903562  1
  In  In37  1  0.67501341  0.19942895  0.84583691  1
  In  In38  1  0.64940648  0.38019854  0.72216802  1
  In  In39  1  -0.03044229  0.35540983  0.33720075  1
  In  In40  1  0.20030905  0.69891242  0.17861976  1
  In  In41  1  0.85880565  0.82208600  0.32663327  1
  In  In42  1  0.35507089  0.64314778  -0.00228855  1
  In  In43  1  0.43774189  0.33894009  0.09864155  1
  In  In44  1  0.14986192  0.83992690  -0.01166143  1
  In  In45  1  0.52818034  0.15070370  0.67614010  1
  In  In46  1  0.51442862  -0.01813432  0.84206493  1
  In  In47  1  0.03366133  0.13752967  0.59082189  1
  In  In48  1  0.35352391  0.81098083  0.82206621  1
  In  In49  1  0.14668358  0.47483175  0.66799215  1
  In  In50  1  0.16951453  -0.00386664  0.53755060  1
  In  In51  1  0.83998442  0.19772009  0.32153689  1
  In  In52  1  0.81100363  0.52040076  0.34356924  1
  In  In53  1  0.32766011  0.50602747  0.83418936  1
  In  In54  1  0.66106911  0.49964259  0.13307568  1
  In  In55  1  -0.01289189  0.48848843  0.49511518  1
  In  In56  1  0.85156690  0.67514432  0.52328488  1
  In  In57  1  0.49617624  0.51641541  0.64468558  1
  In  In58  1  0.63660207  0.17500502  0.49206470  1
  In  In59  1  0.51283396  0.18541141  0.02131242  1
  In  In60  1  0.16155742  0.63818438  0.85498612  1
  In  In61  1  0.65009014  0.01797271  0.33075506  1
  In  In62  1  0.14669766  0.49518046  0.01999668  1
  In  In63  1  0.21231421  0.68411597  0.38762699  1
  In  In64  1  0.83539899  0.35433675  0.16370982  1
  In  In65  1  0.48657783  0.32690325  0.47069672  1
  In  In66  1  0.16762416  -0.05484381  0.17659742  1
  In  In67  1  0.17341014  0.35638883  0.47150768  1
  In  In68  1  0.01310062  0.15033155  0.17984156  1
  In  In69  1  0.68007497  0.69631620  0.66611752  1
  In  In70  1  0.32919640  0.83505629  0.49500919  1
  In  In71  1  0.65395523  0.84896991  0.49650335  1
  Te  Te72  1  0.07241639  0.05087321  0.08284437  1
  Te  Te73  1  0.06604583  0.07455373  0.45229340  1
  Te  Te74  1  0.06941444  0.13182003  0.73243069  1
  Te  Te75  1  0.07210535  0.40420498  0.11491872  1
  Te  Te76  1  0.08498072  0.44278214  0.38598328  1
  Te  Te77  1  0.07173621  0.40756624  0.77790434  1
  Te  Te78  1  0.08841579  0.73815036  0.08022613  1
  Te  Te79  1  0.06889508  0.73940124  0.39530340  1
  Te  Te80  1  0.09465494  0.74172406  0.76316534  1
  Te  Te81  1  0.41426815  0.07658280  0.06083556  1
  Te  Te82  1  0.42582833  0.09878266  0.40131201  1
  Te  Te83  1  0.42959045  0.07940040  0.76243451  1
  Te  Te84  1  0.44335434  0.48788619  0.14495612  1
  Te  Te85  1  0.40810188  0.44242510  0.42164009  1
  Te  Te86  1  0.42236126  0.42770334  0.74424259  1
  Te  Te87  1  0.41601442  0.74734590  0.08709389  1
  Te  Te88  1  0.41066336  0.77317016  0.38568804  1
  Te  Te89  1  0.40300911  0.70288045  0.73391667  1
  Te  Te90  1  0.75029286  0.07547426  0.07834859  1
  Te  Te91  1  0.75376199  0.09926233  0.41547393  1
  Te  Te92  1  0.73450881  0.09588886  0.75334045  1
  Te  Te93  1  0.76167474  0.42286366  0.05264990  1
  Te  Te94  1  0.72850963  0.40434173  0.39163089  1
  Te  Te95  1  0.78451458  0.39568503  0.78641431  1
  Te  Te96  1  0.74622021  0.74870311  0.04570183  1
  Te  Te97  1  0.75486648  0.75050691  0.42101807  1
  Te  Te98  1  0.77153752  0.74514392  0.76920678  1
  Te  Te99  1  0.06992353  0.24535976  0.28676287  1
  Te  Te100  1  0.09956540  0.27679080  0.57430707  1
  Te  Te101  1  0.07407515  0.23734092  0.93170153  1
  Te  Te102  1  0.11444725  0.63345299  0.28158009  1
  Te  Te103  1  0.08819866  0.57494585  0.56728639  1
  Te  Te104  1  0.05499907  0.57025061  0.93050027  1
  Te  Te105  1  0.05870006  0.90779197  0.26315498  1
  Te  Te106  1  0.07802030  0.91290548  0.62427937  1
  Te  Te107  1  0.08859320  0.92794720  0.88318597  1
  Te  Te108  1  0.40867672  0.25533654  0.22498767  1
  Te  Te109  1  0.43008206  0.23078295  0.58316664  1
  Te  Te110  1  0.42486690  0.28590964  0.94985317  1
  Te  Te111  1  0.38991463  0.59430655  0.24910108  1
  Te  Te112  1  0.39916181  0.60720586  0.58297923  1
  Te  Te113  1  0.44210469  0.54091903  0.92904288  1
  Te  Te114  1  0.39522247  0.92702667  0.23270961  1
  Te  Te115  1  0.40863177  0.90856171  0.59412439  1
  Te  Te116  1  0.41160589  0.90841679  0.92456543  1
  Te  Te117  1  0.74899981  0.25302592  0.22372846  1
  Te  Te118  1  0.72902534  0.24792871  0.59014572  1
  Te  Te119  1  0.73724099  0.26810378  0.95977897  1
  Te  Te120  1  0.73226445  0.59774742  0.23867522  1
  Te  Te121  1  0.74079167  0.57638535  0.56292739  1
  Te  Te122  1  0.70800045  0.57509884  0.92465776  1
  Te  Te123  1  0.75388342  0.91611450  0.26343541  1
  Te  Te124  1  0.75257311  0.89428968  0.60186747  1
  Te  Te125  1  0.75564250  0.89669522  0.85457208  1
  Te  Te126  1  0.24746822  0.24280437  0.06702781  1
  Te  Te127  1  0.26991413  0.26023018  0.40278663  1
  Te  Te128  1  0.27065881  0.26124163  0.75521281  1
  Te  Te129  1  0.24949810  0.58388062  0.08790864  1
  Te  Te130  1  0.30505051  0.56465902  0.36935358  1
  Te  Te131  1  0.23547837  0.57693187  0.73783319  1
  Te  Te132  1  0.25090844  0.91531787  0.06279736  1
  Te  Te133  1  0.22839298  0.92266387  0.42028295  1
  Te  Te134  1  0.27621997  0.90275192  0.73739077  1
  Te  Te135  1  0.57877127  0.29336176  0.09996602  1
  Te  Te136  1  0.58263373  0.25842666  0.38552919  1
  Te  Te137  1  0.56192721  0.26502436  0.77009829  1
  Te  Te138  1  0.60606663  0.60818922  0.04691440  1
  Te  Te139  1  0.56069109  0.57521238  0.38243819  1
  Te  Te140  1  0.59495440  0.59161437  0.73250171  1
  Te  Te141  1  0.60431459  0.92004824  0.06725578  1
  Te  Te142  1  0.56249144  0.91573483  0.39756296  1
  Te  Te143  1  0.56253970  0.87543736  0.74971627  1
  Te  Te144  1  0.92461017  0.23829266  0.09579285  1
  Te  Te145  1  0.90852517  0.26384062  0.44127796  1
  Te  Te146  1  0.89658138  0.26727921  0.78331275  1
  Te  Te147  1  0.93163634  0.56431979  0.04724477  1
  Te  Te148  1  0.92061598  0.59829345  0.41294783  1
  Te  Te149  1  0.92052017  0.57889419  0.75987012  1
  Te  Te150  1  0.89716885  0.89741036  0.06492885  1
  Te  Te151  1  0.92032538  0.90546086  0.43676208  1
  Te  Te152  1  0.89258534  0.93798140  0.79408300  1
  Te  Te153  1  0.22257441  0.08364694  0.25167940  1
  Te  Te154  1  0.25629908  0.08609017  0.61267222  1
  Te  Te155  1  0.25741429  0.08342766  0.88814524  1
  Te  Te156  1  0.23511906  0.42628721  0.23228214  1
  Te  Te157  1  0.25799673  0.43509262  0.56997473  1
  Te  Te158  1  0.25041814  0.42273291  0.93436003  1
  Te  Te159  1  0.27919712  0.77080690  0.28282324  1
  Te  Te160  1  0.23367771  0.73033208  0.54277324  1
  Te  Te161  1  0.25520231  0.73613946  0.92201945  1
  Te  Te162  1  0.58277346  0.09847122  0.23117790  1
  Te  Te163  1  0.59400589  0.05666450  0.57646210  1
  Te  Te164  1  0.58989757  0.08944456  0.92305635  1
  Te  Te165  1  0.56406881  0.42536878  0.21647139  1
  Te  Te166  1  0.58082008  0.40009538  0.58065580  1
  Te  Te167  1  0.64331766  0.45357750  0.85499226  1
  Te  Te168  1  0.56852484  0.76250100  0.23141680  1
  Te  Te169  1  0.57737972  0.73906360  0.56307307  1
  Te  Te170  1  0.58392616  0.76572161  0.87665662  1
  Te  Te171  1  0.92114583  0.07523990  0.27249833  1
  Te  Te172  1  0.89822542  0.06515931  0.60534887  1
  Te  Te173  1  0.90409411  0.07586325  0.88896825  1
  Te  Te174  1  0.90953555  0.45925662  0.24443451  1
  Te  Te175  1  0.90062481  0.42800065  0.60149589  1
  Te  Te176  1  0.89345055  0.44788875  0.95703900  1
  Te  Te177  1  0.90163438  0.72327297  0.22196142  1
  Te  Te178  1  0.92556307  0.76790424  0.61327739  1
  Te  Te179  1  0.92833959  0.73138934  0.93486978  1
