# generated using pymatgen
data_In2Te3
_symmetry_space_group_name_H-M   'P 1'
_cell_length_a   18.76157203
_cell_length_b   18.76086836
_cell_length_c   18.76681207
_cell_angle_alpha   90.00605555
_cell_angle_beta   90.06648473
_cell_angle_gamma   89.96340016
_symmetry_Int_Tables_number   1
_chemical_formula_structural   In2Te3
_chemical_formula_sum   'In72 Te108'
_cell_volume   6605.60017013
_cell_formula_units_Z   36
loop_
 _symmetry_equiv_pos_site_id
 _symmetry_equiv_pos_as_xyz
  1  'x, y, z'
loop_
 _atom_site_type_symbol
 _atom_site_label
 _atom_site_symmetry_multiplicity
 _atom_site_fract_x
 _atom_site_fract_y
 _atom_site_fract_z
 _atom_site_occupancy
  In  In0  1  0.14504172  0.33523965  0.47822789  1
  In  In1  1  0.33297650  0.67487326  -0.00647469  1
  In  In2  1  -0.02309193  0.35525959  0.35471963  1
  In  In3  1  0.00323902  0.82162477  0.83109372  1
  In  In4  1  0.34822963  0.16335293  0.17135398  1
  In  In5  1  0.16288324  0.68391197  0.50345515  1
  In  In6  1  -0.02650030  0.18168650  0.49114154  1
  In  In7  1  0.17604579  0.15631482  0.68425583  1
  In  In8  1  -0.01200296  0.50686181  0.48371985  1
  In  In9  1  0.00143136  -0.00012471  -0.01254368  1
  In  In10  1  0.13502729  0.64481845  0.19424259  1
  In  In11  1  0.16657872  0.66751426  0.81693440  1
  In  In12  1  0.83415756  0.83290013  0.00185960  1
  In  In13  1  -0.01562413  0.34895285  0.66786867  1
  In  In14  1  0.48475248  0.52357255  0.01749281  1
  In  In15  1  0.35505088  0.51555747  0.16319919  1
  In  In16  1  0.79362088  -0.01627093  0.18126424  1
  In  In17  1  0.33725450  0.32064862  0.67360611  1
  In  In18  1  -0.00474721  0.51764774  0.81533045  1
  In  In19  1  0.16976830  0.34528191  0.16165322  1
  In  In20  1  0.69250765  -0.01291084  0.35815739  1
  In  In21  1  0.17025812  0.51092265  0.66737198  1
  In  In22  1  0.52805922  -0.00563723  0.49061495  1
  In  In23  1  0.17507659  -0.04722825  0.14983232  1
  In  In24  1  0.65208643  0.83992042  0.81812665  1
  In  In25  1  0.34792658  0.50698307  0.49837870  1
  In  In26  1  -0.01375271  -0.02627312  0.63165095  1
  In  In27  1  0.34054846  0.85200731  0.15566669  1
  In  In28  1  0.55043912  0.65584345  0.49178526  1
  In  In29  1  -0.03187328  0.16287139  0.17868180  1
  In  In30  1  0.67194458  0.67992928  -0.01940692  1
  In  In31  1  0.82258893  0.34253177  0.81552933  1
  In  In32  1  0.15800930  0.14055625  -0.02347854  1
  In  In33  1  0.83742082  0.02756388  0.82058054  1
  In  In34  1  0.16009922  0.48219588  -0.01162661  1
  In  In35  1  0.51492666  0.15395494  0.66543020  1
  In  In36  1  0.34647199  0.00370796  0.31988818  1
  In  In37  1  -0.04794848  -0.02732959  0.37469557  1
  In  In38  1  0.47244358  0.70021131  0.80332248  1
  In  In39  1  0.67168844  0.33993080  0.00861342  1
  In  In40  1  0.52815219  0.17821392  -0.00004367  1
  In  In41  1  0.33705424  0.34815686  0.34305063  1
  In  In42  1  0.80270872  0.83385358  0.63151710  1
  In  In43  1  0.80100025  0.31360119  0.50384857  1
  In  In44  1  0.85345375  0.67737211  0.81087010  1
  In  In45  1  0.69657769  0.17240782  0.19010200  1
  In  In46  1  -0.01295220  0.81678984  0.19652979  1
  In  In47  1  0.82458005  0.49585340  0.33915162  1
  In  In48  1  0.50899627  0.50415665  0.64088510  1
  In  In49  1  0.65358909  0.00078954  0.01469221  1
  In  In50  1  0.53751048  0.69507887  0.19358481  1
  In  In51  1  0.50026159  0.32115393  0.82158261  1
  In  In52  1  0.16218728  0.17958510  0.34633311  1
  In  In53  1  0.34727427  -0.00297738  0.65638283  1
  In  In54  1  0.19167408  0.81030809  0.01913994  1
  In  In55  1  0.16150430  0.82160342  0.33746089  1
  In  In56  1  0.33864075  0.83016442  0.50711562  1
  In  In57  1  0.32897751  0.35411178  -0.00591363  1
  In  In58  1  0.51785490  0.16865084  0.35512180  1
  In  In59  1  0.14452258  -0.01121216  0.53272739  1
  In  In60  1  0.83559350  0.50370241  0.01433429  1
  In  In61  1  0.00683046  0.18957896  0.82447112  1
  In  In62  1  0.66272934  0.17150416  0.81145753  1
  In  In63  1  0.82829953  0.65178542  0.18627059  1
  In  In64  1  0.50621075  -0.01944583  0.16734586  1
  In  In65  1  0.53645254  0.32423597  0.49792185  1
  In  In66  1  0.65667928  0.49286874  0.81117127  1
  In  In67  1  0.18626598  -0.00816697  0.81250031  1
  In  In68  1  0.34869366  0.66650715  0.33550193  1
  In  In69  1  0.47627583  -0.04848458  0.81856918  1
  In  In70  1  -0.00087523  0.32394616  0.02153116  1
  In  In71  1  0.65477662  0.48359006  0.20708350  1
  Te  Te72  1  0.07941028  0.08338419  0.09536167  1
  Te  Te73  1  0.07470159  0.07883962  0.42154220  1
  Te  Te74  1  0.06205888  0.06647501  0.74852345  1
  Te  Te75  1  0.06494228  0.43792676  0.10009604  1
  Te  Te76  1  0.09940467  0.45219828  0.38451688  1
  Te  Te77  1  0.09062668  0.41223387  0.75493344  1
  Te  Te78  1  0.07438204  0.74387506  0.09358454  1
  Te  Te79  1  0.06151640  0.74665922  0.41385863  1
  Te  Te80  1  0.07154124  0.74166249  0.72790250  1
  Te  Te81  1  0.43404818  0.08175951  0.07628817  1
  Te  Te82  1  0.41504979  0.08270932  0.42974546  1
  Te  Te83  1  0.41536719  0.08731180  0.75809094  1
  Te  Te84  1  0.43313275  0.40241321  0.09559143  1
  Te  Te85  1  0.44929161  0.42994568  0.41152337  1
  Te  Te86  1  0.42197632  0.42662318  0.74354836  1
  Te  Te87  1  0.42798485  0.74218048  0.09268386  1
  Te  Te88  1  0.43803141  0.74787777  0.42474338  1
  Te  Te89  1  0.38819421  0.79314871  0.72513867  1
  Te  Te90  1  0.75944574  0.09117644  0.07578051  1
  Te  Te91  1  0.75453355  0.08032817  0.45921465  1
  Te  Te92  1  0.73777008  0.07686693  0.72359890  1
  Te  Te93  1  0.75520917  0.41605796  0.11163458  1
  Te  Te94  1  0.72646862  0.42822071  0.43213221  1
  Te  Te95  1  0.75381528  0.43114997  0.71823742  1
  Te  Te96  1  0.74718797  0.75081671  0.09363400  1
  Te  Te97  1  0.74605674  0.73844912  0.49028809  1
  Te  Te98  1  0.73535178  0.73957288  0.73927349  1
  Te  Te99  1  0.07334932  0.26147933  0.25318630  1
  Te  Te100  1  0.08156666  0.24576210  0.58841344  1
  Te  Te101  1  0.09820198  0.26893663  0.91838047  1
  Te  Te102  1  0.05300336  0.56728551  0.28539618  1
  Te  Te103  1  0.07029143  0.58891669  0.58387244  1
  Te  Te104  1  0.07927945  0.59207630  0.91922041  1
  Te  Te105  1  0.07022272  0.92912151  0.26251166  1
  Te  Te106  1  0.08126022  0.86691920  0.58856826  1
  Te  Te107  1  0.09878581  0.90525555  0.91890982  1
  Te  Te108  1  0.42877735  0.25433373  0.26169799  1
  Te  Te109  1  0.42845285  0.24656467  0.57670813  1
  Te  Te110  1  0.41473234  0.24645517  0.92202579  1
  Te  Te111  1  0.45256761  0.58458242  0.25919869  1
  Te  Te112  1  0.42155712  0.61154573  0.57853230  1
  Te  Te113  1  0.41577779  0.58696322  0.89939423  1
  Te  Te114  1  0.43452754  0.89153042  0.27084456  1
  Te  Te115  1  0.44883912  0.90407631  0.58770996  1
  Te  Te116  1  0.39817736  0.90672179  0.93194034  1
  Te  Te117  1  0.75056292  0.26786748  0.28964501  1
  Te  Te118  1  0.74243940  0.20010298  0.58026131  1
  Te  Te119  1  0.74885611  0.24951054  0.91278225  1
  Te  Te120  1  0.71326036  0.60740572  0.28540082  1
  Te  Te121  1  0.68915497  0.61442935  0.55785422  1
  Te  Te122  1  0.75611016  0.57697919  0.90346534  1
  Te  Te123  1  0.75090662  0.87303614  0.27247261  1
  Te  Te124  1  0.75142824  0.94367926  0.53778952  1
  Te  Te125  1  0.75376066  0.92339749  0.90957328  1
  Te  Te126  1  0.25062155  0.24276185  0.08089418  1
  Te  Te127  1  0.26682747  0.24710868  0.43352502  1
  Te  Te128  1  0.25002251  0.25053426  0.76964757  1
  Te  Te129  1  0.24347233  0.58365389  0.08093188  1
  Te  Te130  1  0.24759115  0.58746146  0.41545473  1
  Te  Te131  1  0.26883271  0.58565829  0.74665827  1
  Te  Te132  1  0.28496233  0.93983926  0.03866314  1
  Te  Te133  1  0.24945606  0.92144774  0.41488557  1
  Te  Te134  1  0.25890191  0.89435158  0.72432736  1
  Te  Te135  1  0.59398476  0.25784784  0.11217466  1
  Te  Te136  1  0.63226600  0.25793135  0.39769718  1
  Te  Te137  1  0.59979314  0.27506607  0.71863612  1
  Te  Te138  1  0.60587059  0.58551760  0.08626552  1
  Te  Te139  1  0.62138817  0.55478354  0.40197014  1
  Te  Te140  1  0.57561604  0.60202119  0.74228324  1
  Te  Te141  1  0.58929654  0.88934202  0.08561899  1
  Te  Te142  1  0.59390900  0.88412068  0.41083197  1
  Te  Te143  1  0.58856748  0.93509124  0.72466285  1
  Te  Te144  1  0.89085532  0.25297705  0.09190120  1
  Te  Te145  1  0.87790585  0.23956448  0.38290654  1
  Te  Te146  1  0.89782967  0.23916747  0.72935102  1
  Te  Te147  1  0.92358213  0.59638695  0.08753668  1
  Te  Te148  1  0.89511935  0.60245550  0.41797411  1
  Te  Te149  1  0.90463561  0.57777774  0.71529320  1
  Te  Te150  1  0.91912420  0.92415418  0.09375501  1
  Te  Te151  1  0.87613907  0.87875109  0.46327275  1
  Te  Te152  1  0.90223361  0.90528016  0.75055883  1
  Te  Te153  1  0.23807579  0.08281252  0.24483946  1
  Te  Te154  1  0.25510972  0.08745014  0.57364688  1
  Te  Te155  1  0.26711097  0.08444278  0.89529760  1
  Te  Te156  1  0.25480894  0.43679680  0.25036538  1
  Te  Te157  1  0.25077573  0.41172530  0.57257808  1
  Te  Te158  1  0.26042189  0.43442572  0.89181110  1
  Te  Te159  1  0.25531408  0.74540829  0.23734155  1
  Te  Te160  1  0.26495453  0.73806980  0.59843979  1
  Te  Te161  1  0.26263391  0.76383296  0.89232219  1
  Te  Te162  1  0.59200054  0.07135402  0.25781137  1
  Te  Te163  1  0.60919021  0.10732588  0.55432114  1
  Te  Te164  1  0.58073671  0.07255370  0.90036478  1
  Te  Te165  1  0.55621305  0.41096192  0.28757016  1
  Te  Te166  1  0.61689472  0.42041257  0.58026313  1
  Te  Te167  1  0.57399634  0.42143446  0.92244822  1
  Te  Te168  1  0.61511682  0.77754986  0.28993505  1
  Te  Te169  1  0.62240489  0.75813240  0.58265273  1
  Te  Te170  1  0.56236948  0.76207262  0.91462433  1
  Te  Te171  1  0.88946962  0.06711077  0.26808430  1
  Te  Te172  1  0.90048206  0.08297332  0.57554761  1
  Te  Te173  1  0.91736277  0.10933540  0.92277326  1
  Te  Te174  1  0.91665747  0.43095715  0.24260020  1
  Te  Te175  1  0.89426559  0.41861645  0.56791824  1
  Te  Te176  1  0.92003383  0.41406311  0.91223323  1
  Te  Te177  1  0.89707945  0.74261246  0.28596019  1
  Te  Te178  1  0.89650135  0.74545052  0.55604423  1
  Te  Te179  1  0.92668694  0.73427664  0.93212697  1
