# generated using pymatgen
data_In2Te3
_symmetry_space_group_name_H-M   'P 1'
_cell_length_a   18.93497907
_cell_length_b   18.94631843
_cell_length_c   18.93216502
_cell_angle_alpha   90.22710350
_cell_angle_beta   89.97689146
_cell_angle_gamma   89.83743086
_symmetry_Int_Tables_number   1
_chemical_formula_structural   In2Te3
_chemical_formula_sum   'In72 Te108'
_cell_volume   6791.79776549
_cell_formula_units_Z   36
loop_
 _symmetry_equiv_pos_site_id
 _symmetry_equiv_pos_as_xyz
  1  'x, y, z'
loop_
 _atom_site_type_symbol
 _atom_site_label
 _atom_site_symmetry_multiplicity
 _atom_site_fract_x
 _atom_site_fract_y
 _atom_site_fract_z
 _atom_site_occupancy
  In  In0  1  0.17761942  0.80483027  0.34320066  1
  In  In1  1  0.83610094  0.64637166  0.18280028  1
  In  In2  1  0.85935861  0.49203091  -0.02234804  1
  In  In3  1  0.32082248  0.34665820  0.00077385  1
  In  In4  1  0.17652874  0.85402420  0.66421544  1
  In  In5  1  0.66513604  0.80814624  0.17655995  1
  In  In6  1  -0.01739674  0.50493455  0.51168361  1
  In  In7  1  0.15849453  0.17925817  -0.03279979  1
  In  In8  1  0.80768152  0.32255469  0.15607339  1
  In  In9  1  0.65772007  0.86144780  0.80537314  1
  In  In10  1  0.84567508  0.32293128  0.82471209  1
  In  In11  1  -0.01779254  0.84894095  0.79716681  1
  In  In12  1  0.48152932  -0.01353190  0.16844024  1
  In  In13  1  0.51787382  0.17512648  0.34360937  1
  In  In14  1  0.85641003  0.83489738  -0.02377650  1
  In  In15  1  0.65680089  0.15668371  0.56514372  1
  In  In16  1  0.01147146  0.31583933  0.34279284  1
  In  In17  1  -0.00911449  -0.03305045  0.34000430  1
  In  In18  1  0.36506444  0.17224460  0.16856587  1
  In  In19  1  0.51025614  0.50066514  0.66727672  1
  In  In20  1  0.66200467  0.34368047  0.01153973  1
  In  In21  1  0.67147867  0.65692283  -0.00762884  1
  In  In22  1  0.84210508  0.67816649  0.82904933  1
  In  In23  1  0.31870383  0.85402327  0.51534526  1
  In  In24  1  0.36053502  0.00132570  0.35031847  1
  In  In25  1  -0.00082392  -0.02113437  -0.02301434  1
  In  In26  1  0.13577485  0.48709960  0.69638830  1
  In  In27  1  0.14735862  0.81640073  -0.01998424  1
  In  In28  1  0.83570762  -0.01078062  0.12575301  1
  In  In29  1  0.85454931  0.47632846  0.67772786  1
  In  In30  1  0.50062728  0.48542527  0.02515219  1
  In  In31  1  0.66699339  0.50220542  0.50702315  1
  In  In32  1  0.00993793  0.67461790  0.33531151  1
  In  In33  1  0.16444936  0.50113319  0.31327657  1
  In  In34  1  0.66874933  0.84015744  0.50838923  1
  In  In35  1  -0.01469915  0.69355568  0.64110258  1
  In  In36  1  -0.02287365  0.18060379  0.15529021  1
  In  In37  1  0.01671572  0.16512644  0.53735935  1
  In  In38  1  0.80056670  0.81551186  0.34400214  1
  In  In39  1  0.17097670  0.01657463  0.53108308  1
  In  In40  1  0.82128039  0.49857487  0.32882648  1
  In  In41  1  0.52081059  0.31663007  0.82467340  1
  In  In42  1  0.14843767  0.51251893  -0.03392087  1
  In  In43  1  0.49178002  0.85363190  -0.00800475  1
  In  In44  1  -0.00557569  0.48165549  0.14462858  1
  In  In45  1  0.82659560  0.17945850  0.31605224  1
  In  In46  1  0.49881912  0.67605802  0.51369352  1
  In  In47  1  0.15624462  0.00893026  0.16977533  1
  In  In48  1  0.67199156  0.02194141  -0.00907356  1
  In  In49  1  0.18361223  0.35388291  0.16219274  1
  In  In50  1  0.33774563  0.03424876  -0.03327729  1
  In  In51  1  0.68242687  0.66522295  0.65911172  1
  In  In52  1  0.82875029  0.17100191  -0.00542015  1
  In  In53  1  0.30723399  0.84783195  0.15883701  1
  In  In54  1  0.34001441  0.01341278  0.65970373  1
  In  In55  1  0.34474298  0.65721705  0.33767425  1
  In  In56  1  0.34027599  0.50063846  0.83783698  1
  In  In57  1  0.82152903  0.33323955  0.52534482  1
  In  In58  1  0.00036209  0.13202393  0.80720081  1
  In  In59  1  0.52477986  0.47006859  0.31780857  1
  In  In60  1  0.31868501  0.68343133  0.68683809  1
  In  In61  1  0.49544963  0.67099046  0.19420813  1
  In  In62  1  0.33217879  0.49450169  0.48109159  1
  In  In63  1  0.17305914  0.32847326  0.52719467  1
  In  In64  1  0.34192284  0.19626274  0.82137825  1
  In  In65  1  0.30195505  0.66464544  0.02266670  1
  In  In66  1  0.48532485  0.67565681  0.82485570  1
  In  In67  1  0.18134837  0.16877400  0.35870110  1
  In  In68  1  0.83361582  0.02300735  0.50703433  1
  In  In69  1  0.48439364  0.30834876  0.54527905  1
  In  In70  1  0.67048440  0.12461270  0.79814005  1
  In  In71  1  0.65155909  -0.02001479  0.34927293  1
  Te  Te72  1  0.06793963  0.08791209  0.06472026  1
  Te  Te73  1  0.06955211  0.08200594  0.41016192  1
  Te  Te74  1  0.10796141  0.03966682  0.76737349  1
  Te  Te75  1  0.08642903  0.39875608  0.05805556  1
  Te  Te76  1  0.08203088  0.42255152  0.42253175  1
  Te  Te77  1  0.06262732  0.38903290  0.77752228  1
  Te  Te78  1  0.10156410  0.78745135  0.11249424  1
  Te  Te79  1  0.06945880  0.76462924  0.43585243  1
  Te  Te80  1  0.08518759  0.75609598  0.73862431  1
  Te  Te81  1  0.44119167  0.08953889  0.06560553  1
  Te  Te82  1  0.42647998  0.10098562  0.43317492  1
  Te  Te83  1  0.42990279  0.09986175  0.74665387  1
  Te  Te84  1  0.41089208  0.40044454  0.10641502  1
  Te  Te85  1  0.44283819  0.40467365  0.43220236  1
  Te  Te86  1  0.42249272  0.40889002  0.74950804  1
  Te  Te87  1  0.42128158  0.76056509  0.08902387  1
  Te  Te88  1  0.40748180  0.75996349  0.42738039  1
  Te  Te89  1  0.42089906  0.77631818  0.73985772  1
  Te  Te90  1  0.74154005  0.10628374  0.10012397  1
  Te  Te91  1  0.74074672  0.09104639  0.40670846  1
  Te  Te92  1  0.75944689  0.02896153  0.72432358  1
  Te  Te93  1  0.75707016  0.44214663  0.08007588  1
  Te  Te94  1  0.74208871  0.40377999  0.41680345  1
  Te  Te95  1  0.75055573  0.41026909  0.75465055  1
  Te  Te96  1  0.76258632  0.75314373  0.07039205  1
  Te  Te97  1  0.71908694  0.72811490  0.42690089  1
  Te  Te98  1  0.76254236  0.76862764  0.73754671  1
  Te  Te99  1  0.09147704  0.23598180  0.24092538  1
  Te  Te100  1  0.11569174  0.23236988  0.62526526  1
  Te  Te101  1  0.07092568  0.24991299  0.87144149  1
  Te  Te102  1  0.07229241  0.58380695  0.22741372  1
  Te  Te103  1  0.08428478  0.58316334  0.58895741  1
  Te  Te104  1  0.05395836  0.61488643  0.92560166  1
  Te  Te105  1  0.09083839  0.89344008  0.24258203  1
  Te  Te106  1  0.07155116  0.92143378  0.58242599  1
  Te  Te107  1  0.10073618  0.92641998  0.87647773  1
  Te  Te108  1  0.42452117  0.26038781  0.26786209  1
  Te  Te109  1  0.36761155  0.24380267  0.61618946  1
  Te  Te110  1  0.42498046  0.26101854  0.93074961  1
  Te  Te111  1  0.41494848  0.55540193  0.25000124  1
  Te  Te112  1  0.40352288  0.58223645  0.59500834  1
  Te  Te113  1  0.42009096  0.59056512  0.93357908  1
  Te  Te114  1  0.41432067  0.88984898  0.26114815  1
  Te  Te115  1  0.42951835  0.93410511  0.56708918  1
  Te  Te116  1  0.40833060  0.92468237  0.89607447  1
  Te  Te117  1  0.71811513  0.26358580  0.25831948  1
  Te  Te118  1  0.78689541  0.21489517  0.60877178  1
  Te  Te119  1  0.73166491  0.25101699  0.91209286  1
  Te  Te120  1  0.72720588  0.57812934  0.24947445  1
  Te  Te121  1  0.77616134  0.57366257  0.58354754  1
  Te  Te122  1  0.75693485  0.57372671  0.89830516  1
  Te  Te123  1  0.75561589  0.92600844  0.23949947  1
  Te  Te124  1  0.73778123  0.94444027  0.59251638  1
  Te  Te125  1  0.75270815  0.92149614  0.90998331  1
  Te  Te126  1  0.24509594  0.22838354  0.08356302  1
  Te  Te127  1  0.25879056  0.27715007  0.41753682  1
  Te  Te128  1  0.25708671  0.26371026  0.72135144  1
  Te  Te129  1  0.23213669  0.55311029  0.08215727  1
  Te  Te130  1  0.23335348  0.59013148  0.41563457  1
  Te  Te131  1  0.23655385  0.58493585  0.76614459  1
  Te  Te132  1  0.24972378  0.95088730  0.06246142  1
  Te  Te133  1  0.23070173  0.93312939  0.40952359  1
  Te  Te134  1  0.28932268  0.90309291  0.74633167  1
  Te  Te135  1  0.55119028  0.30176663  0.10159476  1
  Te  Te136  1  0.59516571  0.24466740  0.45990662  1
  Te  Te137  1  0.59677889  0.23428460  0.72576677  1
  Te  Te138  1  0.58420153  0.59066045  0.09645712  1
  Te  Te139  1  0.56921847  0.57887605  0.42082927  1
  Te  Te140  1  0.59222808  0.59052467  0.75746039  1
  Te  Te141  1  0.59848729  0.91529701  0.08381136  1
  Te  Te142  1  0.56028111  0.92421747  0.44938414  1
  Te  Te143  1  0.58002134  0.97585391  0.75109629  1
  Te  Te144  1  0.91758168  0.27693741  0.05616538  1
  Te  Te145  1  0.91652826  0.23793268  0.43100626  1
  Te  Te146  1  0.89732432  0.21489629  0.73501967  1
  Te  Te147  1  0.92523540  0.59587110  0.07057211  1
  Te  Te148  1  0.90771515  0.59130136  0.41263943  1
  Te  Te149  1  0.93048162  0.59110774  0.74182528  1
  Te  Te150  1  0.94466640  0.88983984  0.08858090  1
  Te  Te151  1  0.89445907  0.89243658  0.43864960  1
  Te  Te152  1  0.89517929  0.95343504  0.74395338  1
  Te  Te153  1  0.26542295  0.08021022  0.25055898  1
  Te  Te154  1  0.28046856  0.11154165  0.56100350  1
  Te  Te155  1  0.23323369  0.09030949  0.86851442  1
  Te  Te156  1  0.26308826  0.39758963  0.27661631  1
  Te  Te157  1  0.24752087  0.44152702  0.59545683  1
  Te  Te158  1  0.23569265  0.40582350  0.89297207  1
  Te  Te159  1  0.25428764  0.72783928  0.23645358  1
  Te  Te160  1  0.23703244  0.74224673  0.57422560  1
  Te  Te161  1  0.25663560  0.74661136  0.91276364  1
  Te  Te162  1  0.57886271  0.06947671  0.24903805  1
  Te  Te163  1  0.55144489  0.08105832  0.63829147  1
  Te  Te164  1  0.57869353  0.09944950  0.91088783  1
  Te  Te165  1  0.59997308  0.38473669  0.22153302  1
  Te  Te166  1  0.60039135  0.40220458  0.59809500  1
  Te  Te167  1  0.58278450  0.42886322  0.91195046  1
  Te  Te168  1  0.58137483  0.75271762  0.28143720  1
  Te  Te169  1  0.57647268  0.76159673  0.60935938  1
  Te  Te170  1  0.59476663  0.76124813  0.91046709  1
  Te  Te171  1  0.92074787  0.06888218  0.24117758  1
  Te  Te172  1  0.95329376  0.04350092  0.59638380  1
  Te  Te173  1  0.89814031  0.06937000  0.90872062  1
  Te  Te174  1  0.91794288  0.40008081  0.25292061  1
  Te  Te175  1  0.94607270  0.38475461  0.59516820  1
  Te  Te176  1  0.94888239  0.42077435  0.88083962  1
  Te  Te177  1  0.90922931  0.75679038  0.25433907  1
  Te  Te178  1  0.91707715  0.78346470  0.55029261  1
  Te  Te179  1  0.95882153  0.73925974  0.91518081  1
