# generated using pymatgen
data_In2Te3
_symmetry_space_group_name_H-M   'P 1'
_cell_length_a   18.80585487
_cell_length_b   18.80264794
_cell_length_c   18.80404267
_cell_angle_alpha   90.04798266
_cell_angle_beta   89.89798290
_cell_angle_gamma   90.03775875
_symmetry_Int_Tables_number   1
_chemical_formula_structural   In2Te3
_chemical_formula_sum   'In72 Te108'
_cell_volume   6649.09270324
_cell_formula_units_Z   36
loop_
 _symmetry_equiv_pos_site_id
 _symmetry_equiv_pos_as_xyz
  1  'x, y, z'
loop_
 _atom_site_type_symbol
 _atom_site_label
 _atom_site_symmetry_multiplicity
 _atom_site_fract_x
 _atom_site_fract_y
 _atom_site_fract_z
 _atom_site_occupancy
  In  In0  1  0.85906928  0.85467526  0.35178108  1
  In  In1  1  0.16418813  0.16660104  0.02177742  1
  In  In2  1  0.66752466  0.32721409  0.65902388  1
  In  In3  1  0.31076885  0.83722407  0.80303222  1
  In  In4  1  0.49397426  0.34699289  0.15630097  1
  In  In5  1  0.33247350  0.01772691  0.00099478  1
  In  In6  1  0.83650246  0.66699706  0.49517360  1
  In  In7  1  0.66251774  0.34226204  0.34204494  1
  In  In8  1  0.68057659  0.00197090  0.35564932  1
  In  In9  1  0.86234382  -0.02843979  0.15132524  1
  In  In10  1  0.02041076  0.35585757  0.68920723  1
  In  In11  1  0.16437122  0.68522691  0.15148969  1
  In  In12  1  0.81937847  0.34140372  0.85189393  1
  In  In13  1  0.02360192  0.50655446  0.82543112  1
  In  In14  1  0.49157662  0.82707530  0.02543541  1
  In  In15  1  -0.00071955  0.52343725  0.48874074  1
  In  In16  1  0.18873844  0.34693364  0.16413484  1
  In  In17  1  -0.02543064  0.67382227  0.67710422  1
  In  In18  1  0.32402832  0.82056354  0.18173712  1
  In  In19  1  0.68794073  0.14403567  0.16533973  1
  In  In20  1  0.50962842  0.68736279  0.49611453  1
  In  In21  1  0.52328239  0.51687223  0.02972245  1
  In  In22  1  0.82940529  0.33129941  0.16320548  1
  In  In23  1  0.80871500  0.85227680  0.64297341  1
  In  In24  1  0.67290483  0.32005741  0.00686202  1
  In  In25  1  0.15999312  0.17015146  0.35019242  1
  In  In26  1  0.14116569  0.86351778  0.63949233  1
  In  In27  1  0.50536744  0.15819289  0.64650245  1
  In  In28  1  0.83707079  0.32628936  0.48107663  1
  In  In29  1  0.16658632  0.48663497  0.67402444  1
  In  In30  1  0.01635774  0.48597452  0.17287564  1
  In  In31  1  0.50692246  0.48760188  0.68326696  1
  In  In32  1  0.49683070  0.15323729  0.33251826  1
  In  In33  1  0.14498331  0.63437256  0.82753761  1
  In  In34  1  0.33753515  0.83346556  0.47412327  1
  In  In35  1  0.50748027  0.65580585  0.85044755  1
  In  In36  1  0.83699243  -0.00854247  0.84181423  1
  In  In37  1  0.83345601  0.50370597  -0.00600220  1
  In  In38  1  0.17514143  0.34266587  0.52035483  1
  In  In39  1  0.32544667  0.17772892  0.83957083  1
  In  In40  1  0.67125721  0.52026691  0.83599044  1
  In  In41  1  0.33111199  -0.01438977  0.33364865  1
  In  In42  1  0.15111840  0.83673790  -0.01151568  1
  In  In43  1  -0.03366756  0.15287961  0.16944041  1
  In  In44  1  0.31348966  0.00187076  0.66506032  1
  In  In45  1  0.84887723  0.15997101  0.65847638  1
  In  In46  1  0.49143495  0.32467031  0.49669400  1
  In  In47  1  0.51085613  0.00139545  0.48723187  1
  In  In48  1  0.68704022  0.66433670  0.33985737  1
  In  In49  1  0.82630257  0.69034193  0.17895079  1
  In  In50  1  0.51057636  -0.00485386  0.84854376  1
  In  In51  1  0.33032510  0.17310718  0.14993458  1
  In  In52  1  0.30391123  0.34408606  0.34012789  1
  In  In53  1  0.13876072  -0.02590568  0.19623273  1
  In  In54  1  -0.01156632  0.83032123  0.84770356  1
  In  In55  1  -0.00894655  0.67951879  -0.01264921  1
  In  In56  1  0.68660340  0.82940074  0.83415879  1
  In  In57  1  0.01011333  0.14870115  0.84342299  1
  In  In58  1  0.50469198  0.82020598  0.30951581  1
  In  In59  1  0.48439120  0.52465070  0.30657860  1
  In  In60  1  0.32627496  0.63555541  -0.01124243  1
  In  In61  1  0.17830805  0.51569694  0.32909911  1
  In  In62  1  0.66877512  0.15948327  0.85001410  1
  In  In63  1  0.66637989  0.82877062  0.14697369  1
  In  In64  1  0.15513225  0.68377349  0.47271526  1
  In  In65  1  0.47463620  0.33329435  0.84564750  1
  In  In66  1  -0.00741327  0.32253654  0.32640200  1
  In  In67  1  0.85367169  0.53180553  0.65933016  1
  In  In68  1  0.52420112  0.82828593  0.65901664  1
  In  In69  1  0.33034709  0.65414690  0.65580821  1
  In  In70  1  0.16905957  0.15472367  0.67695482  1
  In  In71  1  0.00164386  0.14065442  0.49373930  1
  Te  Te72  1  0.07286217  0.06882396  0.09599713  1
  Te  Te73  1  0.07312474  0.05832954  0.39092068  1
  Te  Te74  1  0.05426198  0.07507587  0.72413345  1
  Te  Te75  1  0.07493157  0.38887592  0.07848427  1
  Te  Te76  1  0.08685367  0.41102401  0.40894018  1
  Te  Te77  1  0.12737394  0.38837575  0.79591300  1
  Te  Te78  1  0.04807297  0.78188255  0.09019791  1
  Te  Te79  1  0.06868806  0.77790646  0.40413060  1
  Te  Te80  1  0.08871797  0.75567645  0.74778642  1
  Te  Te81  1  0.42859907  0.07917395  0.09276029  1
  Te  Te82  1  0.39892363  0.08536914  0.42858140  1
  Te  Te83  1  0.41759672  0.07457502  0.75349966  1
  Te  Te84  1  0.41209155  0.42645014  0.06430189  1
  Te  Te85  1  0.41734122  0.42165698  0.40559381  1
  Te  Te86  1  0.39993466  0.40246815  0.74019664  1
  Te  Te87  1  0.40915166  0.71686910  0.09641387  1
  Te  Te88  1  0.40837091  0.73079364  0.38807773  1
  Te  Te89  1  0.42338628  0.74358889  0.75247103  1
  Te  Te90  1  0.77688492  0.06867390  0.07414031  1
  Te  Te91  1  0.76007443  0.07011285  0.45725639  1
  Te  Te92  1  0.75259756  0.08272113  0.74854901  1
  Te  Te93  1  0.73816560  0.42959763  0.08935741  1
  Te  Te94  1  0.75290729  0.42955334  0.42041321  1
  Te  Te95  1  0.75653827  0.42475669  0.73871680  1
  Te  Te96  1  0.78150791  0.77696484  0.06537710  1
  Te  Te97  1  0.75100614  0.77261885  0.42437329  1
  Te  Te98  1  0.75799132  0.74746440  0.73446094  1
  Te  Te99  1  0.09195420  0.24725002  0.23693678  1
  Te  Te100  1  0.06516830  0.25352200  0.57984896  1
  Te  Te101  1  0.09208161  0.24553038  0.91934409  1
  Te  Te102  1  0.07850383  0.59955781  0.25300148  1
  Te  Te103  1  0.08424384  0.59148178  0.59706728  1
  Te  Te104  1  0.09723647  0.56600862  0.95999625  1
  Te  Te105  1  0.06848763  0.86910820  0.27569770  1
  Te  Te106  1  0.05618227  0.92710510  0.53879469  1
  Te  Te107  1  0.05861066  0.93792483  0.92727741  1
  Te  Te108  1  0.41030636  0.25858702  0.25991147  1
  Te  Te109  1  0.40501726  0.24762139  0.58894423  1
  Te  Te110  1  0.42738960  0.22631007  0.93447421  1
  Te  Te111  1  0.41322234  0.61198748  0.21367016  1
  Te  Te112  1  0.43501367  0.58012881  0.57792676  1
  Te  Te113  1  0.42327619  0.54680278  0.91092300  1
  Te  Te114  1  0.42603424  0.92420963  0.23107743  1
  Te  Te115  1  0.41688672  0.91168558  0.58583984  1
  Te  Te116  1  0.39862409  0.90000088  0.91313722  1
  Te  Te117  1  0.75136416  0.24380445  0.26121977  1
  Te  Te118  1  0.74965848  0.23562616  0.56978613  1
  Te  Te119  1  0.77375809  0.22694448  0.94046428  1
  Te  Te120  1  0.75852707  0.57668831  0.24499403  1
  Te  Te121  1  0.74627039  0.57749225  0.57186569  1
  Te  Te122  1  0.74079364  0.60240117  0.93532278  1
  Te  Te123  1  0.74829627  0.90758451  0.25183621  1
  Te  Te124  1  0.73715196  0.95243971  0.55419243  1
  Te  Te125  1  0.74448835  0.92104215  0.93503108  1
  Te  Te126  1  0.26980475  0.27515562  0.05480440  1
  Te  Te127  1  0.25877238  0.24032418  0.44191113  1
  Te  Te128  1  0.25684631  0.25776036  0.73621562  1
  Te  Te129  1  0.23724305  0.57091525  0.08939341  1
  Te  Te130  1  0.25471865  0.58235978  0.43640780  1
  Te  Te131  1  0.27109213  0.56868650  0.76582093  1
  Te  Te132  1  0.24301214  0.91719307  0.08900051  1
  Te  Te133  1  0.23073231  0.91445829  0.41458656  1
  Te  Te134  1  0.20753289  0.93722136  0.75766367  1
  Te  Te135  1  0.58266338  0.23817948  0.09684229  1
  Te  Te136  1  0.58963100  0.23259699  0.42323910  1
  Te  Te137  1  0.58072738  0.24767880  0.75669488  1
  Te  Te138  1  0.59199074  0.62075995  0.10519776  1
  Te  Te139  1  0.58166459  0.58086347  0.41201219  1
  Te  Te140  1  0.59391791  0.60358035  0.73532197  1
  Te  Te141  1  0.58512135  0.92957941  0.07431317  1
  Te  Te142  1  0.58617175  0.89108636  0.41618594  1
  Te  Te143  1  0.60102916  0.92486322  0.74797967  1
  Te  Te144  1  0.92990927  0.26342711  0.07893136  1
  Te  Te145  1  0.90848431  0.21919735  0.39894265  1
  Te  Te146  1  0.91208105  0.26502006  0.75256532  1
  Te  Te147  1  0.92275984  0.58549266  0.09143451  1
  Te  Te148  1  0.91712770  0.59578564  0.39289351  1
  Te  Te149  1  0.90422690  0.59661029  0.78738862  1
  Te  Te150  1  0.96182257  0.91002979  0.05766108  1
  Te  Te151  1  0.92227291  0.94146554  0.45743309  1
  Te  Te152  1  0.91656056  0.90944404  0.73997852  1
  Te  Te153  1  0.24609231  0.08536724  0.24320381  1
  Te  Te154  1  0.23255021  0.07569387  0.56831936  1
  Te  Te155  1  0.23024858  0.08022463  0.90930675  1
  Te  Te156  1  0.27770982  0.44984177  0.23285003  1
  Te  Te157  1  0.26955258  0.43792004  0.58029923  1
  Te  Te158  1  0.20733777  0.47527907  0.89974500  1
  Te  Te159  1  0.23236561  0.74539785  0.26904820  1
  Te  Te160  1  0.24912949  0.76281761  0.58707035  1
  Te  Te161  1  0.24267872  0.74152248  0.91050895  1
  Te  Te162  1  0.58655876  0.06299616  0.25066851  1
  Te  Te163  1  0.60434413  0.06212991  0.58673676  1
  Te  Te164  1  0.58439484  0.08064932  0.94255777  1
  Te  Te165  1  0.58799775  0.43068122  0.24118108  1
  Te  Te166  1  0.58790553  0.41953088  0.57032031  1
  Te  Te167  1  0.59447606  0.41050398  0.91024273  1
  Te  Te168  1  0.58805803  0.72012920  0.22701880  1
  Te  Te169  1  0.61710190  0.74804474  0.57832134  1
  Te  Te170  1  0.58776692  0.75311186  0.93201104  1
  Te  Te171  1  0.90794663  0.05738099  0.26397283  1
  Te  Te172  1  0.91569772  0.04787759  0.58024022  1
  Te  Te173  1  0.91061537  0.08525417  0.93191438  1
  Te  Te174  1  0.90419837  0.42517263  0.25971934  1
  Te  Te175  1  0.92600564  0.41589754  0.58031446  1
  Te  Te176  1  0.93308325  0.41726234  0.91688821  1
  Te  Te177  1  0.93264786  0.76516606  0.25599942  1
  Te  Te178  1  0.92070168  0.76756934  0.57403950  1
  Te  Te179  1  0.88161477  0.76243843  0.92756981  1
