# generated using pymatgen
data_In2Te3
_symmetry_space_group_name_H-M   'P 1'
_cell_length_a   18.95396333
_cell_length_b   18.99958471
_cell_length_c   18.97901844
_cell_angle_alpha   90.23796807
_cell_angle_beta   90.10829450
_cell_angle_gamma   90.04508750
_symmetry_Int_Tables_number   1
_chemical_formula_structural   In2Te3
_chemical_formula_sum   'In72 Te108'
_cell_volume   6834.60206395
_cell_formula_units_Z   36
loop_
 _symmetry_equiv_pos_site_id
 _symmetry_equiv_pos_as_xyz
  1  'x, y, z'
loop_
 _atom_site_type_symbol
 _atom_site_label
 _atom_site_symmetry_multiplicity
 _atom_site_fract_x
 _atom_site_fract_y
 _atom_site_fract_z
 _atom_site_occupancy
  In  In0  1  0.85168102  0.83793862  0.32854972  1
  In  In1  1  0.69061782  0.34049755  0.32009078  1
  In  In2  1  0.50587663  0.83658451  -0.02137740  1
  In  In3  1  0.82352074  0.18156960  -0.00143282  1
  In  In4  1  0.01512573  0.47485041  0.85378956  1
  In  In5  1  -0.01857236  0.17228703  0.81775278  1
  In  In6  1  0.02053628  0.84092969  0.18025433  1
  In  In7  1  0.51044420  0.17318243  0.00794315  1
  In  In8  1  0.16329024  0.01419839  0.17842682  1
  In  In9  1  0.81982492  -0.02167011  0.48570681  1
  In  In10  1  0.65248414  0.01464720  -0.02787910  1
  In  In11  1  0.83995367  0.00939102  0.19293225  1
  In  In12  1  0.32556039  0.14227030  0.50468508  1
  In  In13  1  0.47923146  0.82903295  0.60647096  1
  In  In14  1  0.18962782  0.35035249  0.15184076  1
  In  In15  1  0.83634846  0.47381720  0.66371423  1
  In  In16  1  0.33179682  0.51211927  0.83637247  1
  In  In17  1  0.18932200  0.83033212  -0.03765814  1
  In  In18  1  0.82017350  0.63277360  0.18481317  1
  In  In19  1  0.32238262  0.18867429  0.17447235  1
  In  In20  1  0.63015079  -0.02478561  0.36484162  1
  In  In21  1  0.82972476  0.65917068  0.49658558  1
  In  In22  1  0.00263332  0.15177134  0.18136445  1
  In  In23  1  -0.00867990  0.31619295  0.00302384  1
  In  In24  1  0.35409097  0.84036798  0.16342731  1
  In  In25  1  0.16436686  0.50245718  0.69630571  1
  In  In26  1  0.49293745  0.64031140  0.18647383  1
  In  In27  1  0.50217395  0.49511207  0.35275196  1
  In  In28  1  0.80870892  0.15368921  0.66781137  1
  In  In29  1  0.64956654  0.67004696  0.35006123  1
  In  In30  1  0.80308862  0.31190642  0.82777052  1
  In  In31  1  0.17378226  0.17432588  0.65653416  1
  In  In32  1  0.01492297  -0.00815679  0.64427711  1
  In  In33  1  0.20551587  0.68183352  0.81677531  1
  In  In34  1  0.35815926  0.36819623  0.01503777  1
  In  In35  1  0.50728222  0.32655692  0.49010663  1
  In  In36  1  0.63916179  0.67945948  0.68288776  1
  In  In37  1  0.83866755  0.32075249  0.49468605  1
  In  In38  1  0.19213634  -0.03776584  0.80479664  1
  In  In39  1  0.17314626  0.67454054  0.17316057  1
  In  In40  1  0.17324267  0.53367249  0.01419964  1
  In  In41  1  0.31801907  0.36598009  0.32139438  1
  In  In42  1  0.14738566  0.16356167  0.34004981  1
  In  In43  1  0.25605719  0.72094037  0.49747959  1
  In  In44  1  0.49027809  0.18014299  0.32992422  1
  In  In45  1  0.18257199  0.83017601  0.35801286  1
  In  In46  1  0.31654711  0.33803847  0.65921238  1
  In  In47  1  0.00391433  0.51674184  0.47770088  1
  In  In48  1  -0.01664403  0.34778005  0.33056659  1
  In  In49  1  0.83762459  0.00886495  0.81276700  1
  In  In50  1  -0.02663243  0.66055247  0.67004398  1
  In  In51  1  0.18209937  -0.01028705  0.49842101  1
  In  In52  1  0.50646627  -0.01582570  0.16553336  1
  In  In53  1  0.66916486  0.18950942  0.16270727  1
  In  In54  1  0.63867563  0.31698149  0.66279555  1
  In  In55  1  0.48694400  0.68097683  0.83026443  1
  In  In56  1  0.64722366  0.63130909  0.02634776  1
  In  In57  1  0.61169612  0.01936940  0.65382602  1
  In  In58  1  0.83151881  0.83442911  0.64498033  1
  In  In59  1  -0.00418516  0.51352045  0.17781673  1
  In  In60  1  0.66911165  0.47095150  0.51288653  1
  In  In61  1  0.83365320  0.85996711  0.01731973  1
  In  In62  1  0.18237589  0.31799089  0.82241155  1
  In  In63  1  0.65090598  0.83193050  0.79601009  1
  In  In64  1  0.81925954  0.65203681  0.86996809  1
  In  In65  1  0.02560690  0.82472775  0.84643656  1
  In  In66  1  0.68775225  0.35604190  0.01886050  1
  In  In67  1  0.66556371  0.79517729  0.17669417  1
  In  In68  1  0.51606605  0.33080260  0.83861255  1
  In  In69  1  0.15117196  0.32964291  0.49019803  1
  In  In70  1  -0.00747035  0.64700051  0.03167138  1
  In  In71  1  0.32912901  -0.00143598  -0.00957029  1
  Te  Te72  1  0.10079935  0.10568281  0.08421352  1
  Te  Te73  1  0.08703389  0.09548554  0.45531544  1
  Te  Te74  1  0.08203858  0.08119980  0.74730168  1
  Te  Te75  1  0.07424206  0.42541421  0.07221604  1
  Te  Te76  1  0.09609005  0.43061762  0.39139303  1
  Te  Te77  1  0.07439100  0.39004187  0.74289126  1
  Te  Te78  1  0.08897073  0.76107172  0.06880061  1
  Te  Te79  1  0.12095326  0.72373159  0.43694535  1
  Te  Te80  1  0.08703042  0.73852303  0.74037769  1
  Te  Te81  1  0.41081884  0.08460437  0.09584248  1
  Te  Te82  1  0.42965764  0.07617638  0.41804399  1
  Te  Te83  1  0.48013872  0.09608986  0.65496158  1
  Te  Te84  1  0.41054534  0.46203242  0.11310055  1
  Te  Te85  1  0.39960060  0.42026797  0.43749309  1
  Te  Te86  1  0.40772042  0.40772961  0.75843176  1
  Te  Te87  1  0.44602602  0.74924805  0.08596396  1
  Te  Te88  1  0.45070626  0.77014552  0.46051777  1
  Te  Te89  1  0.41265814  0.75899590  0.72863571  1
  Te  Te90  1  0.74626101  0.07282651  0.07824789  1
  Te  Te91  1  0.73452588  0.06712510  0.40638774  1
  Te  Te92  1  0.71744311  0.07984284  0.75946563  1
  Te  Te93  1  0.78525749  0.42458360  0.10412234  1
  Te  Te94  1  0.77274688  0.43070869  0.41354137  1
  Te  Te95  1  0.72509729  0.41236582  0.74631180  1
  Te  Te96  1  0.76593151  0.73673880  0.07810069  1
  Te  Te97  1  0.75283066  0.76150017  0.41521477  1
  Te  Te98  1  0.77387293  0.74023936  0.75211299  1
  Te  Te99  1  0.09705624  0.27064784  0.24153157  1
  Te  Te100  1  0.07240158  0.23265182  0.56818204  1
  Te  Te101  1  0.08273459  0.24034109  0.90881769  1
  Te  Te102  1  0.08194184  0.59930092  0.25893948  1
  Te  Te103  1  0.07802544  0.57945684  0.59675303  1
  Te  Te104  1  0.08368932  0.59931339  0.90950457  1
  Te  Te105  1  0.09125451  0.92838008  0.27972266  1
  Te  Te106  1  0.10850719  0.89340358  0.58673565  1
  Te  Te107  1  0.08977200  0.93761360  0.92138359  1
  Te  Te108  1  0.42012296  0.28263258  0.24271784  1
  Te  Te109  1  0.40832487  0.24967269  0.57633007  1
  Te  Te110  1  0.41445879  0.25828676  0.92650272  1
  Te  Te111  1  0.40632018  0.59855803  0.30047223  1
  Te  Te112  1  0.38681334  0.64880314  0.52537337  1
  Te  Te113  1  0.41578158  0.59349883  0.92476149  1
  Te  Te114  1  0.41964112  0.92376283  0.26594834  1
  Te  Te115  1  0.35835042  0.90838376  0.55688832  1
  Te  Te116  1  0.40237855  0.90580865  0.90076843  1
  Te  Te117  1  0.77160421  0.23654069  0.25482939  1
  Te  Te118  1  0.73198981  0.24087866  0.57133969  1
  Te  Te119  1  0.71036593  0.23560386  0.91713114  1
  Te  Te120  1  0.70397276  0.57102950  0.25086241  1
  Te  Te121  1  0.74952964  0.58048213  0.59924017  1
  Te  Te122  1  0.71824037  0.55846014  0.91835188  1
  Te  Te123  1  0.73782910  0.91016084  0.25120468  1
  Te  Te124  1  0.73226176  0.93450404  0.60124007  1
  Te  Te125  1  0.74971427  0.91043556  0.89911279  1
  Te  Te126  1  0.25645136  0.25473380  0.05678050  1
  Te  Te127  1  0.26001300  0.25028828  0.40997608  1
  Te  Te128  1  0.27999858  0.22540928  0.75480241  1
  Te  Te129  1  0.27489896  0.61043402  0.08642591  1
  Te  Te130  1  0.28825981  0.60039914  0.41209712  1
  Te  Te131  1  0.28181742  0.59647962  0.71810380  1
  Te  Te132  1  0.23998277  0.91297080  0.09006639  1
  Te  Te133  1  0.28701295  0.92369556  0.41429423  1
  Te  Te134  1  0.29388804  0.85989206  0.76583386  1
  Te  Te135  1  0.57284779  0.28105342  0.09445450  1
  Te  Te136  1  0.60326700  0.24826154  0.40571370  1
  Te  Te137  1  0.55325110  0.22534872  0.74015506  1
  Te  Te138  1  0.54729552  0.53755147  0.08951921  1
  Te  Te139  1  0.58275287  0.57940127  0.45185624  1
  Te  Te140  1  0.55594663  0.58021412  0.74680628  1
  Te  Te141  1  0.60622527  0.90627730  0.07939938  1
  Te  Te142  1  0.56331719  0.88179735  0.45929624  1
  Te  Te143  1  0.54130609  0.90834711  0.73330518  1
  Te  Te144  1  0.90687110  0.24573444  0.10611357  1
  Te  Te145  1  0.91864442  0.23919635  0.40320491  1
  Te  Te146  1  0.90173412  0.25990851  0.72458619  1
  Te  Te147  1  0.88182725  0.54739288  0.06711189  1
  Te  Te148  1  0.90956889  0.59115235  0.39508025  1
  Te  Te149  1  0.91250424  0.56397145  0.77183778  1
  Te  Te150  1  0.93719050  0.93678353  0.09637001  1
  Te  Te151  1  0.93519070  0.91172943  0.42277937  1
  Te  Te152  1  0.93051904  0.90510860  0.74950156  1
  Te  Te153  1  0.26010576  0.08897015  0.26883189  1
  Te  Te154  1  0.26251193  0.05904291  0.61471313  1
  Te  Te155  1  0.25055830  0.06876561  0.88938520  1
  Te  Te156  1  0.26267344  0.45831435  0.22060304  1
  Te  Te157  1  0.22927031  0.42810971  0.57622537  1
  Te  Te158  1  0.23384106  0.42507356  0.91801043  1
  Te  Te159  1  0.26978316  0.75585019  0.25680910  1
  Te  Te160  1  0.25187375  0.81713474  0.61941709  1
  Te  Te161  1  0.28392566  0.72057061  0.93559556  1
  Te  Te162  1  0.58516577  0.08820049  0.24489925  1
  Te  Te163  1  0.54885564  0.07060917  0.52378682  1
  Te  Te164  1  0.53720529  0.07153282  0.90471933  1
  Te  Te165  1  0.60040739  0.43827687  0.25521341  1
  Te  Te166  1  0.55327815  0.42436272  0.59877614  1
  Te  Te167  1  0.58905754  0.42198539  0.92972029  1
  Te  Te168  1  0.55544917  0.75757066  0.26937836  1
  Te  Te169  1  0.61202658  0.76257941  0.56558118  1
  Te  Te170  1  0.61021009  0.74295607  0.91901985  1
  Te  Te171  1  0.93534244  0.07230680  0.28377219  1
  Te  Te172  1  0.90226948  0.07079849  0.58343303  1
  Te  Te173  1  0.91281762  0.08550140  0.92156048  1
  Te  Te174  1  0.89503768  0.41951730  0.23360045  1
  Te  Te175  1  0.93497801  0.41404218  0.56856953  1
  Te  Te176  1  0.89962232  0.39622158  0.91265730  1
  Te  Te177  1  0.91968100  0.74160406  0.23316603  1
  Te  Te178  1  0.92982733  0.75681205  0.56159267  1
  Te  Te179  1  0.91931558  0.75712752  0.93120537  1
