# generated using pymatgen
data_In2Te3
_symmetry_space_group_name_H-M   'P 1'
_cell_length_a   18.86467597
_cell_length_b   18.84335360
_cell_length_c   18.84989169
_cell_angle_alpha   90.04092235
_cell_angle_beta   89.92247255
_cell_angle_gamma   89.89126995
_symmetry_Int_Tables_number   1
_chemical_formula_structural   In2Te3
_chemical_formula_sum   'In72 Te108'
_cell_volume   6700.62195114
_cell_formula_units_Z   36
loop_
 _symmetry_equiv_pos_site_id
 _symmetry_equiv_pos_as_xyz
  1  'x, y, z'
loop_
 _atom_site_type_symbol
 _atom_site_label
 _atom_site_symmetry_multiplicity
 _atom_site_fract_x
 _atom_site_fract_y
 _atom_site_fract_z
 _atom_site_occupancy
  In  In0  1  0.51028636  0.34586475  0.11848538  1
  In  In1  1  0.18045380  0.50346398  0.67106549  1
  In  In2  1  -0.01018340  0.35416361  0.31692736  1
  In  In3  1  0.66488139  0.83601010  0.81654701  1
  In  In4  1  0.84005485  0.65071976  0.85682568  1
  In  In5  1  0.01488511  0.50173876  0.48247475  1
  In  In6  1  -0.00910068  0.50421266  0.84595209  1
  In  In7  1  0.83927330  -0.00136053  0.48944986  1
  In  In8  1  0.29240594  0.82248699  0.47451315  1
  In  In9  1  0.50174768  0.81815842  0.33745453  1
  In  In10  1  0.15658041  0.34930019  0.51633089  1
  In  In11  1  0.50238550  0.17453822  0.67060451  1
  In  In12  1  0.14676374  -0.00441165  0.84318702  1
  In  In13  1  0.66115291  -0.00329502  0.65812748  1
  In  In14  1  0.85494013  0.86401631  0.69390376  1
  In  In15  1  0.33267676  0.83467324  0.17557523  1
  In  In16  1  0.68454355  0.16867777  0.19054421  1
  In  In17  1  0.16980336  0.67968979  0.81207661  1
  In  In18  1  0.00775987  -0.00692367  0.32705932  1
  In  In19  1  0.15502361  0.78132449  0.32856063  1
  In  In20  1  0.68012948  0.50457851  0.15418592  1
  In  In21  1  0.14653814  0.17126783  0.69971477  1
  In  In22  1  0.14995466  0.34573377  0.16725286  1
  In  In23  1  0.69936055  -0.03015191  0.31322914  1
  In  In24  1  0.33006566  0.00015143  0.00271997  1
  In  In25  1  0.86908470  0.16176541  0.34502420  1
  In  In26  1  0.83109966  0.82004570  0.01880546  1
  In  In27  1  0.31831057  0.36360178  0.30102085  1
  In  In28  1  0.00393581  0.66995811  0.67496789  1
  In  In29  1  0.85627106  0.50627634  0.00648741  1
  In  In30  1  0.67410223  0.49036805  0.47974980  1
  In  In31  1  0.49119864  0.15702316  0.34251830  1
  In  In32  1  0.49175451  0.64163893  0.83914187  1
  In  In33  1  0.66099313  0.67192459  0.64906088  1
  In  In34  1  0.49359548  0.67180589  0.17029479  1
  In  In35  1  0.14044033  0.00046404  0.16125410  1
  In  In36  1  0.33250733  0.81142740  0.84669431  1
  In  In37  1  0.71027425  0.36328402  0.68009225  1
  In  In38  1  0.51697662  0.48686001  0.31818169  1
  In  In39  1  0.50720900  0.83817607  0.01496182  1
  In  In40  1  0.47367977  0.15974781  -0.01584621  1
  In  In41  1  0.68926825  0.66356577  0.31378465  1
  In  In42  1  0.01883310  0.70266182  0.03020783  1
  In  In43  1  0.68826027  0.16160650  0.53643441  1
  In  In44  1  0.86228016  0.79337484  0.32031121  1
  In  In45  1  0.14262722  0.85592300  0.65225917  1
  In  In46  1  0.84734558  0.17257444  0.67181980  1
  In  In47  1  0.33681670  0.00079658  0.65909220  1
  In  In48  1  0.13148693  0.30301365  0.86040257  1
  In  In49  1  0.70775736  0.31327353  0.33751937  1
  In  In50  1  0.33562280  0.67802570  0.67343048  1
  In  In51  1  0.87275568  0.16332825  -0.00087316  1
  In  In52  1  -0.01456034  0.33701549  0.66087482  1
  In  In53  1  0.31472725  0.18738424  0.82736521  1
  In  In54  1  0.48632127  0.48462396  0.68191212  1
  In  In55  1  -0.00300006  -0.01740391  -0.00205494  1
  In  In56  1  0.29610745  -0.05945413  0.32812024  1
  In  In57  1  0.47505656  -0.02400446  0.47386355  1
  In  In58  1  0.69963843  0.65690914  -0.01057660  1
  In  In59  1  0.66770122  0.16191889  0.84148119  1
  In  In60  1  0.14402937  0.48944895  0.01392444  1
  In  In61  1  0.69069473  0.01246133  -0.00835616  1
  In  In62  1  0.84807343  0.67144441  0.50336156  1
  In  In63  1  0.30412086  0.20388988  0.19431308  1
  In  In64  1  0.33081856  0.34592812  0.00642882  1
  In  In65  1  0.32165441  0.17789112  0.51545277  1
  In  In66  1  0.48659462  0.34249141  0.47715782  1
  In  In67  1  0.47931480  0.49272799  -0.01672431  1
  In  In68  1  0.65982149  0.34050257  -0.00848469  1
  In  In69  1  0.51370647  -0.00163129  0.12441071  1
  In  In70  1  0.14590553  0.17481118  0.34294597  1
  In  In71  1  0.49853707  0.68312248  0.51718115  1
  Te  Te72  1  0.08030075  0.09311046  0.06120914  1
  Te  Te73  1  0.06660910  0.08495046  0.42965449  1
  Te  Te74  1  0.05181661  0.06515696  0.74851569  1
  Te  Te75  1  0.04108323  0.42258337  0.09860257  1
  Te  Te76  1  0.10876621  0.42196331  0.39257513  1
  Te  Te77  1  0.08479455  0.42011989  0.75666839  1
  Te  Te78  1  0.10578566  0.76249046  0.13204288  1
  Te  Te79  1  0.05954107  0.71842699  0.42721905  1
  Te  Te80  1  0.06661793  0.77942146  0.75996609  1
  Te  Te81  1  0.39570551  0.10133218  0.10363853  1
  Te  Te82  1  0.37649718  0.07449347  0.41239940  1
  Te  Te83  1  0.41144770  0.08977719  0.75828576  1
  Te  Te84  1  0.39597111  0.44377501  0.10400090  1
  Te  Te85  1  0.39504127  0.44187995  0.40851254  1
  Te  Te86  1  0.43922193  0.41037904  0.79832450  1
  Te  Te87  1  0.40220291  0.74378341  0.07130294  1
  Te  Te88  1  0.40073930  0.73287935  0.41091412  1
  Te  Te89  1  0.43951030  0.75560963  0.75150125  1
  Te  Te90  1  0.77194486  0.08843437  0.09385845  1
  Te  Te91  1  0.73754386  0.08788824  0.40758501  1
  Te  Te92  1  0.75239808  0.07692668  0.74759052  1
  Te  Te93  1  0.76616288  0.40395184  0.08052632  1
  Te  Te94  1  0.78308392  0.41374411  0.41449262  1
  Te  Te95  1  0.77757493  0.43624248  0.78450032  1
  Te  Te96  1  0.77200462  0.71174428  0.10490648  1
  Te  Te97  1  0.74781574  0.75301339  0.42062582  1
  Te  Te98  1  0.76517299  0.74049822  0.74991062  1
  Te  Te99  1  0.06439999  0.23934255  0.23498001  1
  Te  Te100  1  0.07548833  0.24120466  0.58121984  1
  Te  Te101  1  0.05225078  0.20203434  0.93846460  1
  Te  Te102  1  0.05105055  0.62864476  0.29693898  1
  Te  Te103  1  0.09422551  0.59032208  0.58256440  1
  Te  Te104  1  0.07879048  0.60416666  0.91917065  1
  Te  Te105  1  0.07688807  0.87914549  0.23369232  1
  Te  Te106  1  0.07890556  0.93864813  0.54948204  1
  Te  Te107  1  0.09737261  0.89212547  0.93500054  1
  Te  Te108  1  0.43297470  0.26687943  0.24796658  1
  Te  Te109  1  0.41274836  0.27112564  0.59388558  1
  Te  Te110  1  0.42265290  0.27217530  0.89735080  1
  Te  Te111  1  0.42036942  0.58333677  0.26237783  1
  Te  Te112  1  0.41179867  0.57850397  0.58587579  1
  Te  Te113  1  0.38544587  0.59118951  0.92746615  1
  Te  Te114  1  0.43279375  0.92856290  0.24623990  1
  Te  Te115  1  0.39574951  0.89164258  0.57073357  1
  Te  Te116  1  0.42191895  0.91655864  0.91540511  1
  Te  Te117  1  0.80138346  0.25391262  0.23262233  1
  Te  Te118  1  0.77716542  0.27697403  0.57362410  1
  Te  Te119  1  0.76001404  0.24527581  0.92597860  1
  Te  Te120  1  0.77259630  0.54595409  0.26655706  1
  Te  Te121  1  0.75494425  0.57504782  0.57920038  1
  Te  Te122  1  0.73833922  0.53798435  0.89967184  1
  Te  Te123  1  0.80152958  0.90154953  0.23155576  1
  Te  Te124  1  0.75923316  0.90792914  0.58375051  1
  Te  Te125  1  0.76221964  0.90738250  0.90793621  1
  Te  Te126  1  0.23145986  0.25078735  0.07178328  1
  Te  Te127  1  0.25644515  0.26304334  0.40515558  1
  Te  Te128  1  0.23801482  0.28404937  0.74287812  1
  Te  Te129  1  0.22416510  0.56308094  0.11116840  1
  Te  Te130  1  0.18947366  0.64166108  0.38781343  1
  Te  Te131  1  0.27351577  0.57507208  0.76754439  1
  Te  Te132  1  0.23886836  0.91053937  0.08225991  1
  Te  Te133  1  0.19041140  0.93360979  0.44234002  1
  Te  Te134  1  0.25353519  0.91314281  0.75418784  1
  Te  Te135  1  0.58898148  0.22061541  0.07439933  1
  Te  Te136  1  0.59216600  0.24625993  0.42250973  1
  Te  Te137  1  0.61010403  0.25657516  0.73709930  1
  Te  Te138  1  0.57758481  0.58083598  0.07216261  1
  Te  Te139  1  0.58465613  0.59769028  0.41358790  1
  Te  Te140  1  0.59241256  0.57532454  0.74523626  1
  Te  Te141  1  0.62601975  0.90444918  0.08401319  1
  Te  Te142  1  0.59788932  0.90910419  0.41408734  1
  Te  Te143  1  0.57008770  0.92444239  0.74755233  1
  Te  Te144  1  0.96230844  0.27950038  0.03666050  1
  Te  Te145  1  0.93511754  0.26671902  0.42225147  1
  Te  Te146  1  0.92051907  0.25779044  0.76655523  1
  Te  Te147  1  0.91622899  0.61028210  0.09885658  1
  Te  Te148  1  0.92268972  0.59024266  0.40116168  1
  Te  Te149  1  0.90629646  0.57298163  0.73930817  1
  Te  Te150  1  0.91209988  0.91307332  0.10154727  1
  Te  Te151  1  0.92540593  0.89810143  0.41334761  1
  Te  Te152  1  0.93815870  0.95795667  0.77130544  1
  Te  Te153  1  0.23865728  0.07262253  0.25559966  1
  Te  Te154  1  0.23028244  0.08857274  0.59679470  1
  Te  Te155  1  0.24129050  0.09110656  0.91895619  1
  Te  Te156  1  0.22539938  0.46326845  0.22956857  1
  Te  Te157  1  0.26519581  0.42444183  0.57937478  1
  Te  Te158  1  0.22776185  0.40956024  0.91395504  1
  Te  Te159  1  0.26690384  0.72083689  0.24700461  1
  Te  Te160  1  0.22797684  0.74349730  0.58901275  1
  Te  Te161  1  0.23269966  0.74434893  0.93008574  1
  Te  Te162  1  0.58551840  0.06764880  0.25095666  1
  Te  Te163  1  0.55401022  0.08025819  0.56097817  1
  Te  Te164  1  0.57152161  0.06685853  0.91132690  1
  Te  Te165  1  0.60644989  0.38989633  0.23990856  1
  Te  Te166  1  0.58238952  0.41396214  0.57577818  1
  Te  Te167  1  0.56770932  0.40892791  0.89416926  1
  Te  Te168  1  0.59888274  0.76058974  0.23494406  1
  Te  Te169  1  0.58500006  0.77966186  0.58509798  1
  Te  Te170  1  0.59047363  0.73988551  0.92211048  1
  Te  Te171  1  0.93012247  0.08100160  0.23829766  1
  Te  Te172  1  0.91973728  0.08316728  0.57808686  1
  Te  Te173  1  0.90098407  0.05125564  0.90257417  1
  Te  Te174  1  0.89299647  0.44643317  0.25490245  1
  Te  Te175  1  0.92224294  0.44515486  0.58374445  1
  Te  Te176  1  0.92153852  0.39803911  0.92411156  1
  Te  Te177  1  0.94163487  0.71466187  0.21842332  1
  Te  Te178  1  0.92397174  0.76980132  0.59280232  1
  Te  Te179  1  0.92662999  0.75819833  0.91679195  1
