# generated using pymatgen
data_In2Te3
_symmetry_space_group_name_H-M   'P 1'
_cell_length_a   18.78398834
_cell_length_b   18.78209661
_cell_length_c   18.78577833
_cell_angle_alpha   89.93678264
_cell_angle_beta   89.93718471
_cell_angle_gamma   90.05249355
_symmetry_Int_Tables_number   1
_chemical_formula_structural   In2Te3
_chemical_formula_sum   'In72 Te108'
_cell_volume   6627.66220674
_cell_formula_units_Z   36
loop_
 _symmetry_equiv_pos_site_id
 _symmetry_equiv_pos_as_xyz
  1  'x, y, z'
loop_
 _atom_site_type_symbol
 _atom_site_label
 _atom_site_symmetry_multiplicity
 _atom_site_fract_x
 _atom_site_fract_y
 _atom_site_fract_z
 _atom_site_occupancy
  In  In0  1  0.65555727  0.17445144  0.16243269  1
  In  In1  1  0.67620385  0.83622694  0.15507441  1
  In  In2  1  0.33120087  0.83532824  0.82080320  1
  In  In3  1  0.17289700  0.00858166  0.15288895  1
  In  In4  1  0.51330003  0.82565198  0.67456991  1
  In  In5  1  0.80650635  0.33373717  0.50550792  1
  In  In6  1  0.50432618  0.51106162  0.00705468  1
  In  In7  1  -0.00730013  0.49846293  0.49244627  1
  In  In8  1  0.49895858  0.65795863  0.16098836  1
  In  In9  1  0.82679920  0.16405658  -0.01804723  1
  In  In10  1  0.80406932  0.67879901  0.81929408  1
  In  In11  1  0.34530760  0.66693449  0.66142230  1
  In  In12  1  0.65029793  0.35528661  0.35523091  1
  In  In13  1  0.18011518  0.80592662  0.33931188  1
  In  In14  1  0.45516181  0.83899416  0.30221509  1
  In  In15  1  0.35551778  0.33005509  -0.00510805  1
  In  In16  1  -0.00274047  0.15966999  0.84113740  1
  In  In17  1  0.49591299  0.33434733  0.16584917  1
  In  In18  1  0.01880676  0.31941066  0.69876508  1
  In  In19  1  0.17463659  0.63636066  0.49013615  1
  In  In20  1  0.34697679  0.81270799  0.47739585  1
  In  In21  1  0.82295064  0.84718183  0.00347268  1
  In  In22  1  0.00394099  0.86272818  0.84256571  1
  In  In23  1  0.00445341  0.66768702  0.00348672  1
  In  In24  1  0.17999498  0.85518238  -0.00453832  1
  In  In25  1  0.84238344  0.34343205  0.17268036  1
  In  In26  1  0.83437007  0.32230094  0.82693287  1
  In  In27  1  0.53056277  0.80941940  -0.02065887  1
  In  In28  1  0.82267914  0.49603430  0.65301686  1
  In  In29  1  0.49887881  0.50734237  0.33577186  1
  In  In30  1  0.82068207  0.67947857  0.17520493  1
  In  In31  1  0.82806235  0.15168758  0.34074174  1
  In  In32  1  -0.01931930  0.16469480  0.51514330  1
  In  In33  1  0.66587077  0.32712548  0.67553514  1
  In  In34  1  0.34168527  0.16335095  0.14861003  1
  In  In35  1  0.16588480  0.15751267  -0.00399998  1
  In  In36  1  0.02359423  0.32772490  0.01830894  1
  In  In37  1  -0.00222433  0.66158051  0.63792668  1
  In  In38  1  0.67788696  0.02344464  0.67875866  1
  In  In39  1  0.51914764  0.00294761  0.51150371  1
  In  In40  1  0.65840639  0.83701714  0.52890272  1
  In  In41  1  0.17792540  -0.00443797  0.51037819  1
  In  In42  1  0.66546471  0.64976860  0.33160177  1
  In  In43  1  -0.01043606  0.84109194  0.14661736  1
  In  In44  1  0.50183356  0.01555394  0.82180493  1
  In  In45  1  0.66029949  -0.01195713  -0.01364646  1
  In  In46  1  0.17387492  0.17531879  0.32659064  1
  In  In47  1  -0.00574877  -0.00153070  0.32443775  1
  In  In48  1  0.67352760  0.33258826  -0.00780169  1
  In  In49  1  0.33839002  0.17683277  0.50199627  1
  In  In50  1  0.49596126  0.31590266  0.83267513  1
  In  In51  1  0.83017793  0.52444118  -0.00170504  1
  In  In52  1  0.16904852  0.84977071  0.67591487  1
  In  In53  1  0.33239929  0.48310983  0.49521217  1
  In  In54  1  0.49858428  0.17376603  0.33362999  1
  In  In55  1  -0.00128360  0.46995785  0.81497711  1
  In  In56  1  0.83306411  0.65564420  0.50729635  1
  In  In57  1  0.33671451  -0.00682089  0.68973936  1
  In  In58  1  0.50569473  0.32977154  0.52041450  1
  In  In59  1  0.66819152  -0.00397767  0.33008297  1
  In  In60  1  0.01784242  0.33591733  0.31686853  1
  In  In61  1  0.83782286  0.83395921  0.32218030  1
  In  In62  1  0.16543136  0.61296048  0.21017841  1
  In  In63  1  0.35347294  0.50225500  0.84122500  1
  In  In64  1  0.32978267  0.01211517  0.00040744  1
  In  In65  1  0.14432437  0.33907135  0.51290342  1
  In  In66  1  -0.03194333  0.81793880  0.49340299  1
  In  In67  1  0.19026920  0.36487487  0.19852549  1
  In  In68  1  0.18383470  0.48690592  0.01328493  1
  In  In69  1  -0.02091675  0.01001585  0.68359617  1
  In  In70  1  0.17451835  0.66686045  0.83919688  1
  In  In71  1  0.51861804  0.51428629  0.68745849  1
  Te  Te72  1  0.06918545  0.08147332  0.07809832  1
  Te  Te73  1  0.08601053  0.08883941  0.41993727  1
  Te  Te74  1  0.08739219  0.08441020  0.74967113  1
  Te  Te75  1  0.08061381  0.43192952  0.11227774  1
  Te  Te76  1  0.10681542  0.43863791  0.39634133  1
  Te  Te77  1  0.12287772  0.41953301  0.74688647  1
  Te  Te78  1  0.09927466  0.75566833  0.08270973  1
  Te  Te79  1  0.07518158  0.73291346  0.42411717  1
  Te  Te80  1  0.07691660  0.74697506  0.74885725  1
  Te  Te81  1  0.43792341  0.08441620  0.07105267  1
  Te  Te82  1  0.41882463  0.07452108  0.41957909  1
  Te  Te83  1  0.40797364  0.10792817  0.75026704  1
  Te  Te84  1  0.40290579  0.43254801  0.09412186  1
  Te  Te85  1  0.42327259  0.39477275  0.40974360  1
  Te  Te86  1  0.41891437  0.41016208  0.73830945  1
  Te  Te87  1  0.43040536  0.75737718  0.07434361  1
  Te  Te88  1  0.42979096  0.72608159  0.39383287  1
  Te  Te89  1  0.43102847  0.73352969  0.76779525  1
  Te  Te90  1  0.74374536  0.08183183  0.08206037  1
  Te  Te91  1  0.72978532  0.08726958  0.42866775  1
  Te  Te92  1  0.77466749  0.12255853  0.73468071  1
  Te  Te93  1  0.74743563  0.42638773  0.08548806  1
  Te  Te94  1  0.75272948  0.43978360  0.42048724  1
  Te  Te95  1  0.74372657  0.42747013  0.76433744  1
  Te  Te96  1  0.73616655  0.73370870  0.05980656  1
  Te  Te97  1  0.74751427  0.75813520  0.41775351  1
  Te  Te98  1  0.69315210  0.74891729  0.74825915  1
  Te  Te99  1  0.08842287  0.24174036  0.22204657  1
  Te  Te100  1  0.09438562  0.22036897  0.60098639  1
  Te  Te101  1  0.09436632  0.26148642  0.90324078  1
  Te  Te102  1  0.06126270  0.55036156  0.29496760  1
  Te  Te103  1  0.09688472  0.55519506  0.59306731  1
  Te  Te104  1  0.08022539  0.56746284  0.91339963  1
  Te  Te105  1  0.09403336  0.90874646  0.25182214  1
  Te  Te106  1  0.06966713  0.90722699  0.57470313  1
  Te  Te107  1  0.08476055  0.94795264  0.93165353  1
  Te  Te108  1  0.39822776  0.25945657  0.25607637  1
  Te  Te109  1  0.41793224  0.24617438  0.60603680  1
  Te  Te110  1  0.39622578  0.22378034  0.89971803  1
  Te  Te111  1  0.40207771  0.56707312  0.23591022  1
  Te  Te112  1  0.42726144  0.57392726  0.57529110  1
  Te  Te113  1  0.41497728  0.60158206  0.93014347  1
  Te  Te114  1  0.37638944  0.93672690  0.22955784  1
  Te  Te115  1  0.40904656  0.90725870  0.58556055  1
  Te  Te116  1  0.42337805  0.91443294  0.91456776  1
  Te  Te117  1  0.73916921  0.26017828  0.25958364  1
  Te  Te118  1  0.75397037  0.23124540  0.59835138  1
  Te  Te119  1  0.72592807  0.23220955  0.88942259  1
  Te  Te120  1  0.75430314  0.56878259  0.24652645  1
  Te  Te121  1  0.73189589  0.59722062  0.59713345  1
  Te  Te122  1  0.73242171  0.57446094  0.89912415  1
  Te  Te123  1  0.76711210  0.93256918  0.23070904  1
  Te  Te124  1  0.75368647  0.93196819  0.58706198  1
  Te  Te125  1  0.75609368  0.92106757  0.89405806  1
  Te  Te126  1  0.24220026  0.26462528  0.08494480  1
  Te  Te127  1  0.24729092  0.26932502  0.41841908  1
  Te  Te128  1  0.20377077  0.29133565  0.70159966  1
  Te  Te129  1  0.24401846  0.60047258  0.08371934  1
  Te  Te130  1  0.27480830  0.58066153  0.39598528  1
  Te  Te131  1  0.25427537  0.57765373  0.74485604  1
  Te  Te132  1  0.27753473  0.90290322  0.10810840  1
  Te  Te133  1  0.26035788  0.91844232  0.40812356  1
  Te  Te134  1  0.22540998  0.93910665  0.78339528  1
  Te  Te135  1  0.56576267  0.24722136  0.06190251  1
  Te  Te136  1  0.59460856  0.23688393  0.43403507  1
  Te  Te137  1  0.57788575  0.22886719  0.74347726  1
  Te  Te138  1  0.60448309  0.58506820  0.08786770  1
  Te  Te139  1  0.58859576  0.57405580  0.43240074  1
  Te  Te140  1  0.59264001  0.61328109  0.77232973  1
  Te  Te141  1  0.56760892  0.91600355  0.08632178  1
  Te  Te142  1  0.57249653  0.90313522  0.40738620  1
  Te  Te143  1  0.60073262  0.91504798  0.76066271  1
  Te  Te144  1  0.91389082  0.24349809  0.08285725  1
  Te  Te145  1  0.92148333  0.26546899  0.41555248  1
  Te  Te146  1  0.89665450  0.22206093  0.72803008  1
  Te  Te147  1  0.92481898  0.58474349  0.10093668  1
  Te  Te148  1  0.92047647  0.59353309  0.40433299  1
  Te  Te149  1  0.91762672  0.58301553  0.75211945  1
  Te  Te150  1  0.91770426  0.94155789  0.06795386  1
  Te  Te151  1  0.89690387  0.93306771  0.42253602  1
  Te  Te152  1  0.89532043  0.90907866  0.75483958  1
  Te  Te153  1  0.26621236  0.07776391  0.25551868  1
  Te  Te154  1  0.25432635  0.08881774  0.59925058  1
  Te  Te155  1  0.26801769  0.10623690  0.90117261  1
  Te  Te156  1  0.27322459  0.47370477  0.25773002  1
  Te  Te157  1  0.26264372  0.39216887  0.59487945  1
  Te  Te158  1  0.25427438  0.40401101  0.90680300  1
  Te  Te159  1  0.25748568  0.72556546  0.24403575  1
  Te  Te160  1  0.24034461  0.75260176  0.58113975  1
  Te  Te161  1  0.26659479  0.74654954  0.92884537  1
  Te  Te162  1  0.56993832  0.07453055  0.24169942  1
  Te  Te163  1  0.56449478  0.09827424  0.61380458  1
  Te  Te164  1  0.59059099  0.09466867  0.91009549  1
  Te  Te165  1  0.58993692  0.42974626  0.23651151  1
  Te  Te166  1  0.59880408  0.43131994  0.58550671  1
  Te  Te167  1  0.57928358  0.41881408  0.90861643  1
  Te  Te168  1  0.58820756  0.75933104  0.25261073  1
  Te  Te169  1  0.56779822  0.73045026  0.57491917  1
  Te  Te170  1  0.60972047  0.72722288  0.88185550  1
  Te  Te171  1  0.91675086  0.09125139  0.24086278  1
  Te  Te172  1  0.89417518  0.05961168  0.57085633  1
  Te  Te173  1  0.90622125  0.06363741  0.90798398  1
  Te  Te174  1  0.91981523  0.43367487  0.26134864  1
  Te  Te175  1  0.93023385  0.40053253  0.59507959  1
  Te  Te176  1  0.91273808  0.40510903  0.93217512  1
  Te  Te177  1  0.93791111  0.74360611  0.25264865  1
  Te  Te178  1  0.88673009  0.76134611  0.60930848  1
  Te  Te179  1  0.91335366  0.74706501  0.91166655  1
