# generated using pymatgen
data_In2Te3
_symmetry_space_group_name_H-M   'P 1'
_cell_length_a   19.01314781
_cell_length_b   19.02954656
_cell_length_c   19.02785208
_cell_angle_alpha   90.25696365
_cell_angle_beta   90.12913187
_cell_angle_gamma   89.94065948
_symmetry_Int_Tables_number   1
_chemical_formula_structural   In2Te3
_chemical_formula_sum   'In72 Te108'
_cell_volume   6884.40691045
_cell_formula_units_Z   36
loop_
 _symmetry_equiv_pos_site_id
 _symmetry_equiv_pos_as_xyz
  1  'x, y, z'
loop_
 _atom_site_type_symbol
 _atom_site_label
 _atom_site_symmetry_multiplicity
 _atom_site_fract_x
 _atom_site_fract_y
 _atom_site_fract_z
 _atom_site_occupancy
  In  In0  1  0.35215046  0.50106166  0.16590845  1
  In  In1  1  0.15368925  0.50865186  0.66311794  1
  In  In2  1  0.47100643  0.33900535  0.60830931  1
  In  In3  1  0.15936661  0.32866947  0.18233546  1
  In  In4  1  0.50104197  0.32649795  0.16616772  1
  In  In5  1  0.52289180  0.63523842  0.84461796  1
  In  In6  1  0.17813027  0.16121859  0.33207952  1
  In  In7  1  0.31171989  0.65232065  0.34313252  1
  In  In8  1  0.00839205  0.65475118  0.64820743  1
  In  In9  1  -0.00554944  0.83981718  0.86203941  1
  In  In10  1  0.50071850  0.86526526  0.68072149  1
  In  In11  1  -0.00064584  0.50478795  0.84142487  1
  In  In12  1  -0.03365077  0.33802993  0.66882698  1
  In  In13  1  0.67933605  0.18020933  0.83328772  1
  In  In14  1  0.80158370  0.34603048  0.52501977  1
  In  In15  1  0.17992199  0.83465035  0.66240331  1
  In  In16  1  0.65745193  0.66695522  0.03145560  1
  In  In17  1  0.49659012  0.13837047  0.33333386  1
  In  In18  1  0.34953899  0.48388470  0.56415781  1
  In  In19  1  0.42585428  0.63701230  0.02260260  1
  In  In20  1  0.82869256  0.32677757  0.13830745  1
  In  In21  1  0.66690751  0.33577241  -0.02129754  1
  In  In22  1  0.47645217  -0.01098517  0.49739783  1
  In  In23  1  0.49967068  0.82099117  0.32247773  1
  In  In24  1  0.84123465  0.01150771  0.48948693  1
  In  In25  1  0.66902233  0.84052236  0.48072446  1
  In  In26  1  0.83164733  0.50618062  0.01816358  1
  In  In27  1  0.66962303  -0.01624764  0.68218925  1
  In  In28  1  0.84668510  0.16246142  0.66018374  1
  In  In29  1  0.51016614  0.84275804  0.00245221  1
  In  In30  1  0.32929056  0.00683965  0.66961739  1
  In  In31  1  0.31720281  0.29703778  -0.02792160  1
  In  In32  1  0.65395601  0.33596541  0.33784230  1
  In  In33  1  0.82982059  0.68126922  0.16706154  1
  In  In34  1  0.17874887  0.28393750  0.80663826  1
  In  In35  1  0.13824317  0.03529983  0.77757692  1
  In  In36  1  0.32089030  0.18667570  0.17699724  1
  In  In37  1  0.30618461  0.01643223  0.00232328  1
  In  In38  1  0.51545146  0.00831606  0.14571404  1
  In  In39  1  0.15533404  0.84531024  0.32161734  1
  In  In40  1  0.82632261  0.17446969  0.32276394  1
  In  In41  1  0.88114844  0.14304412  -0.00379975  1
  In  In42  1  -0.00579292  0.48999737  0.18177368  1
  In  In43  1  0.84814797  0.84002339  0.32047542  1
  In  In44  1  0.18494091  0.67781503  0.14259381  1
  In  In45  1  0.18338056  0.84128911  -0.00913188  1
  In  In46  1  0.49479440  0.18113856  -0.03171989  1
  In  In47  1  0.81290497  0.50573830  0.66970924  1
  In  In48  1  0.65796470  0.67618251  0.29236265  1
  In  In49  1  0.66688825  0.48562302  0.83557757  1
  In  In50  1  0.86099141  0.82574155  0.68179024  1
  In  In51  1  0.83768245  0.69895868  0.85243521  1
  In  In52  1  0.85189225  0.65120983  0.49071470  1
  In  In53  1  0.31879573  0.34378995  0.37893496  1
  In  In54  1  0.12706033  0.33505845  0.49583385  1
  In  In55  1  0.50479933  0.15520656  0.69375249  1
  In  In56  1  -0.00350872  0.15609550  0.48347348  1
  In  In57  1  0.48086384  0.50340835  0.33831193  1
  In  In58  1  0.32885038  0.68050277  0.68058140  1
  In  In59  1  0.00456496  0.69179772  0.32078719  1
  In  In60  1  0.00920915  -0.00377876  0.32166048  1
  In  In61  1  0.00178198  0.34385587  0.01154517  1
  In  In62  1  0.67496719  0.15535911  0.49582499  1
  In  In63  1  0.12595320  0.12819120  -0.01472798  1
  In  In64  1  0.36176021  0.83057042  0.86875627  1
  In  In65  1  0.49143829  0.69768506  0.50323812  1
  In  In66  1  0.31913085  -0.02079315  0.33652336  1
  In  In67  1  0.15182107  0.65900149  0.82768408  1
  In  In68  1  0.71802888  -0.00542040  -0.03380308  1
  In  In69  1  0.64566685  0.50202503  0.50629565  1
  In  In70  1  0.84741852  -0.01952244  0.14746209  1
  In  In71  1  0.16002477  0.50632796  0.35883502  1
  Te  Te72  1  0.08604497  0.02674744  0.08404814  1
  Te  Te73  1  0.10074859  0.06604294  0.42282646  1
  Te  Te74  1  0.01938785  0.12714872  0.78865977  1
  Te  Te75  1  0.10032293  0.42961716  0.08734894  1
  Te  Te76  1  0.06238737  0.39820109  0.37998856  1
  Te  Te77  1  0.07472592  0.40765895  0.75290282  1
  Te  Te78  1  0.08978569  0.76060856  0.06890072  1
  Te  Te79  1  0.09954931  0.74763381  0.41569806  1
  Te  Te80  1  0.06847165  0.75632328  0.74713364  1
  Te  Te81  1  0.41070148  0.11122900  0.08159141  1
  Te  Te82  1  0.38761734  0.08588405  0.42373726  1
  Te  Te83  1  0.43232971  0.05091421  0.76430882  1
  Te  Te84  1  0.39314249  0.38329486  0.07819737  1
  Te  Te85  1  0.43651159  0.41028854  0.44654101  1
  Te  Te86  1  0.39144475  0.42527786  0.69439728  1
  Te  Te87  1  0.40338347  0.77405695  0.07732937  1
  Te  Te88  1  0.39182789  0.76390214  0.41235163  1
  Te  Te89  1  0.44153493  0.75042553  0.76496282  1
  Te  Te90  1  0.76429565  0.08802119  0.07727795  1
  Te  Te91  1  0.74194101  0.06864238  0.39213532  1
  Te  Te92  1  0.76064176  0.07913997  0.75369042  1
  Te  Te93  1  0.72554757  0.42588585  0.08710239  1
  Te  Te94  1  0.74388207  0.43153905  0.41398776  1
  Te  Te95  1  0.76496157  0.40477010  0.76168556  1
  Te  Te96  1  0.76499878  0.76418536  0.06266596  1
  Te  Te97  1  0.75575844  0.74401620  0.40320531  1
  Te  Te98  1  0.74837525  0.76255693  0.75222207  1
  Te  Te99  1  0.07679065  0.25282033  0.27675245  1
  Te  Te100  1  0.05771842  0.24307983  0.59260126  1
  Te  Te101  1  0.07305137  0.25176711  0.91403261  1
  Te  Te102  1  0.10608298  0.58686975  0.24357648  1
  Te  Te103  1  0.07288968  0.56366161  0.55465653  1
  Te  Te104  1  0.07391352  0.59210487  0.93055312  1
  Te  Te105  1  0.08879267  0.92824726  0.21661150  1
  Te  Te106  1  0.10237384  0.95953516  0.64679368  1
  Te  Te107  1  0.11649987  0.92381141  0.88495038  1
  Te  Te108  1  0.40803960  0.26213152  0.27504460  1
  Te  Te109  1  0.39581518  0.21170465  0.60790154  1
  Te  Te110  1  0.42081543  0.26418809  0.87162753  1
  Te  Te111  1  0.42172433  0.60812166  0.24840232  1
  Te  Te112  1  0.43913783  0.60298776  0.60443637  1
  Te  Te113  1  0.42826177  0.54218178  0.90731640  1
  Te  Te114  1  0.42817319  0.92954584  0.24348188  1
  Te  Te115  1  0.39239105  0.89713947  0.57969769  1
  Te  Te116  1  0.42585032  0.95063318  0.93290782  1
  Te  Te117  1  0.73250739  0.25505003  0.23765741  1
  Te  Te118  1  0.72878298  0.24220721  0.60710075  1
  Te  Te119  1  0.77473548  0.23960131  0.93412558  1
  Te  Te120  1  0.74820929  0.57988801  0.23326763  1
  Te  Te121  1  0.73948972  0.60099127  0.57815134  1
  Te  Te122  1  0.75423332  0.59073362  0.91967963  1
  Te  Te123  1  0.75438800  0.91877067  0.24245415  1
  Te  Te124  1  0.76399103  0.91432479  0.57843827  1
  Te  Te125  1  0.73427964  0.89570223  0.85716327  1
  Te  Te126  1  0.21223615  0.22847332  0.07869494  1
  Te  Te127  1  0.23939606  0.23837868  0.44775259  1
  Te  Te128  1  0.26488815  0.21663249  0.70827267  1
  Te  Te129  1  0.27686906  0.58373206  0.06855514  1
  Te  Te130  1  0.26853772  0.55687858  0.44888640  1
  Te  Te131  1  0.25412814  0.57306801  0.75692472  1
  Te  Te132  1  0.28566325  0.89639897  0.08467171  1
  Te  Te133  1  0.22466507  0.92011062  0.42970245  1
  Te  Te134  1  0.27644053  0.89673917  0.76234924  1
  Te  Te135  1  0.58559628  0.24608742  0.07120368  1
  Te  Te136  1  0.57406061  0.23820443  0.42092662  1
  Te  Te137  1  0.56768870  0.26098006  0.77711107  1
  Te  Te138  1  0.54842656  0.58837543  0.08692820  1
  Te  Te139  1  0.57401440  0.60609109  0.41173781  1
  Te  Te140  1  0.60744506  0.57925379  0.74014366  1
  Te  Te141  1  0.61623924  0.93010723  0.06467822  1
  Te  Te142  1  0.57632483  0.92820181  0.40158790  1
  Te  Te143  1  0.59392859  0.91366288  0.78932911  1
  Te  Te144  1  0.94579539  0.23539446  0.09899086  1
  Te  Te145  1  0.88654078  0.24986546  0.43871549  1
  Te  Te146  1  0.90852901  0.24470171  0.76849752  1
  Te  Te147  1  0.93069228  0.59157944  0.09066518  1
  Te  Te148  1  0.91619449  0.58996202  0.37606358  1
  Te  Te149  1  0.91164474  0.59874081  0.75166295  1
  Te  Te150  1  0.94858742  0.98385142  0.03347316  1
  Te  Te151  1  0.93380559  0.91243014  0.42232113  1
  Te  Te152  1  0.91693611  0.92914391  0.77080244  1
  Te  Te153  1  0.24698393  0.06979114  0.23392256  1
  Te  Te154  1  0.20351286  0.09105903  0.64250944  1
  Te  Te155  1  0.23742035  0.09046945  0.89170467  1
  Te  Te156  1  0.25940572  0.42060488  0.26177928  1
  Te  Te157  1  0.22579048  0.39627413  0.59182882  1
  Te  Te158  1  0.23583027  0.38808078  0.89326474  1
  Te  Te159  1  0.25710276  0.75716840  0.24915256  1
  Te  Te160  1  0.23311754  0.72622626  0.58014526  1
  Te  Te161  1  0.25717716  0.73175009  0.91118147  1
  Te  Te162  1  0.59227587  0.09772983  0.23288752  1
  Te  Te163  1  0.58290675  0.06429102  0.57879271  1
  Te  Te164  1  0.60029466  0.08586522  0.91889100  1
  Te  Te165  1  0.57652320  0.43044726  0.24686026  1
  Te  Te166  1  0.60627741  0.39580493  0.59709593  1
  Te  Te167  1  0.56650085  0.43203495  0.92958353  1
  Te  Te168  1  0.59762294  0.78571807  0.21979862  1
  Te  Te169  1  0.58794535  0.77630129  0.58976226  1
  Te  Te170  1  0.59340261  0.74667412  0.92042327  1
  Te  Te171  1  0.91567936  0.08357876  0.24241973  1
  Te  Te172  1  0.93890722  0.06486602  0.59116339  1
  Te  Te173  1  0.93534810  0.05068332  0.88866786  1
  Te  Te174  1  0.90019004  0.39852466  0.24349294  1
  Te  Te175  1  0.91050989  0.44024910  0.57204201  1
  Te  Te176  1  0.90578209  0.41660185  0.92069327  1
  Te  Te177  1  0.93836111  0.77818374  0.21702249  1
  Te  Te178  1  0.93162257  0.75665181  0.56701285  1
  Te  Te179  1  0.90098783  0.77900298  0.95975770  1
