# generated using pymatgen
data_In2Te3
_symmetry_space_group_name_H-M   'P 1'
_cell_length_a   18.89994701
_cell_length_b   18.91819827
_cell_length_c   18.89869473
_cell_angle_alpha   89.87990027
_cell_angle_beta   89.93457372
_cell_angle_gamma   89.98994214
_symmetry_Int_Tables_number   1
_chemical_formula_structural   In2Te3
_chemical_formula_sum   'In72 Te108'
_cell_volume   6757.26460484
_cell_formula_units_Z   36
loop_
 _symmetry_equiv_pos_site_id
 _symmetry_equiv_pos_as_xyz
  1  'x, y, z'
loop_
 _atom_site_type_symbol
 _atom_site_label
 _atom_site_symmetry_multiplicity
 _atom_site_fract_x
 _atom_site_fract_y
 _atom_site_fract_z
 _atom_site_occupancy
  In  In0  1  0.32752962  0.17247617  0.17629606  1
  In  In1  1  0.15047101  0.83350161  0.65704676  1
  In  In2  1  0.64509388  0.50320957  0.17475418  1
  In  In3  1  0.18171377  0.31004116  0.47377006  1
  In  In4  1  0.67580117  0.01290874  0.34856472  1
  In  In5  1  0.33230804  0.48536298  0.14716072  1
  In  In6  1  0.16170816  0.34450547  0.13590693  1
  In  In7  1  0.31635623  0.01264762  0.65471371  1
  In  In8  1  0.65612438  0.68882757  0.67224075  1
  In  In9  1  0.49900659  0.15048876  -0.00321124  1
  In  In10  1  0.32373798  0.67184716  0.69023891  1
  In  In11  1  -0.04409957  0.00457108  0.70271300  1
  In  In12  1  0.83734285  0.48765771  0.32297135  1
  In  In13  1  0.15314519  0.32448256  0.86016105  1
  In  In14  1  0.84784525  0.49666369  0.69660110  1
  In  In15  1  0.32614266  0.17785400  0.84034304  1
  In  In16  1  0.67914200  0.31883033  0.69696438  1
  In  In17  1  0.15579344  0.50086833  0.30945364  1
  In  In18  1  0.17295333  0.82664790  0.31882976  1
  In  In19  1  0.33554638  0.50111582  0.50954680  1
  In  In20  1  0.49230094  0.66430551  0.84729443  1
  In  In21  1  0.82494158  0.83378837  0.69858740  1
  In  In22  1  0.50326141  0.46168527  0.34039713  1
  In  In23  1  0.68503847  0.17697448  0.16206941  1
  In  In24  1  0.26525343  0.80622426  0.08914189  1
  In  In25  1  0.50954653  0.84099928  0.33019723  1
  In  In26  1  0.85875063  0.00222059  0.17812093  1
  In  In27  1  -0.00116044  0.67895596  0.69674724  1
  In  In28  1  0.69919594  0.01934370  0.69546622  1
  In  In29  1  0.65882540  0.64295581  0.34637230  1
  In  In30  1  0.00196925  0.85422819  0.50498001  1
  In  In31  1  0.03827098  0.02760339  0.34571285  1
  In  In32  1  0.67848600  0.49695897  0.52479904  1
  In  In33  1  0.83143239  0.51868975  -0.02278015  1
  In  In34  1  0.83715561  0.33259414  0.51537172  1
  In  In35  1  0.49571978  0.49747834  -0.00224442  1
  In  In36  1  -0.00134854  0.18005036  0.16262010  1
  In  In37  1  0.51024958  0.18236930  0.66776329  1
  In  In38  1  0.87251346  0.82692638  -0.06247569  1
  In  In39  1  0.66992357  0.33525619  -0.01462267  1
  In  In40  1  0.47569137  0.66363915  0.14237681  1
  In  In41  1  0.15631413  0.00392291  0.82979765  1
  In  In42  1  0.16947454  0.49650046  -0.01444378  1
  In  In43  1  0.67651488  0.00128081  0.00765854  1
  In  In44  1  0.65776560  0.82780701  0.83703296  1
  In  In45  1  0.00178060  0.64984976  0.30280705  1
  In  In46  1  0.34942903  0.85275187  0.47338640  1
  In  In47  1  0.49935292  0.18545689  0.32432461  1
  In  In48  1  0.81690678  0.81368281  0.35568666  1
  In  In49  1  0.49673317  -0.02023825  0.83826097  1
  In  In50  1  -0.01824968  0.01367637  -0.02424547  1
  In  In51  1  0.84473185  0.32366514  0.14675940  1
  In  In52  1  0.83951659  0.32888933  0.84873776  1
  In  In53  1  0.15295545  0.15107802  0.65095784  1
  In  In54  1  0.82989785  0.67681393  0.47713806  1
  In  In55  1  0.49307578  0.03203842  0.51166051  1
  In  In56  1  0.03014731  0.82051041  0.13117614  1
  In  In57  1  0.83176803  0.01812062  0.50838101  1
  In  In58  1  0.68907653  0.81191484  0.14769952  1
  In  In59  1  0.47982036  0.49433630  0.69955162  1
  In  In60  1  0.30672279  -0.00075295  0.31570891  1
  In  In61  1  0.85049653  0.67869436  0.13114255  1
  In  In62  1  0.17102871  0.52110208  0.70868224  1
  In  In63  1  0.34575182  0.33744982  0.66776879  1
  In  In64  1  0.50703892  0.32110495  0.50167247  1
  In  In65  1  0.15715395  0.15962041  -0.00132085  1
  In  In66  1  -0.00233751  0.33954257  0.68379424  1
  In  In67  1  0.48931840  -0.01985599  0.17051130  1
  In  In68  1  0.00431220  0.33202729  0.34649538  1
  In  In69  1  0.33192875  0.81954351  0.86126959  1
  In  In70  1  0.33808693  0.68763823  0.30705219  1
  In  In71  1  0.16600359  0.66042813  0.50332669  1
  Te  Te72  1  0.07167256  0.06856413  0.08848767  1
  Te  Te73  1  0.11991661  0.11991681  0.42812719  1
  Te  Te74  1  0.06337846  0.10187056  0.76401464  1
  Te  Te75  1  0.06351875  0.40734731  0.04449407  1
  Te  Te76  1  0.09591606  0.42768794  0.42767340  1
  Te  Te77  1  0.07386551  0.42784971  0.78012162  1
  Te  Te78  1  0.07102595  0.71441488  0.02929141  1
  Te  Te79  1  0.07450184  0.74696158  0.41568974  1
  Te  Te80  1  0.11287517  0.74195112  0.76414558  1
  Te  Te81  1  0.40391277  0.07193350  0.08636730  1
  Te  Te82  1  0.41236468  0.08074084  0.39286697  1
  Te  Te83  1  0.41550548  0.08314443  0.74781594  1
  Te  Te84  1  0.44142243  0.40179208  0.09719935  1
  Te  Te85  1  0.39483633  0.39255898  0.42242620  1
  Te  Te86  1  0.38388308  0.42004010  0.78471671  1
  Te  Te87  1  0.41147176  0.77772377  0.07673603  1
  Te  Te88  1  0.43162466  0.73874775  0.41571731  1
  Te  Te89  1  0.42721783  0.76322673  0.75031585  1
  Te  Te90  1  0.77791283  0.08784173  0.08112459  1
  Te  Te91  1  0.76248557  0.10902581  0.41440974  1
  Te  Te92  1  0.80480366  0.10159968  0.76042241  1
  Te  Te93  1  0.74794308  0.43152761  0.08716976  1
  Te  Te94  1  0.74620732  0.41212667  0.41883108  1
  Te  Te95  1  0.74071232  0.43069470  0.77821113  1
  Te  Te96  1  0.75796674  0.74397750  0.02981905  1
  Te  Te97  1  0.69954152  0.75856096  0.44718167  1
  Te  Te98  1  0.76514903  0.71947512  0.78397708  1
  Te  Te99  1  0.09567929  0.26025161  0.24539862  1
  Te  Te100  1  0.08115099  0.26400146  0.57878261  1
  Te  Te101  1  0.05376870  0.23352616  0.92222012  1
  Te  Te102  1  0.08275111  0.57516789  0.20637521  1
  Te  Te103  1  0.08022905  0.58646792  0.60064374  1
  Te  Te104  1  0.07744187  0.59826840  0.92098776  1
  Te  Te105  1  0.07140574  0.91442219  0.24964918  1
  Te  Te106  1  0.07258606  0.94697297  0.59847411  1
  Te  Te107  1  0.08724842  0.91371787  0.93005933  1
  Te  Te108  1  0.42044799  0.27117937  0.23542176  1
  Te  Te109  1  0.40296252  0.23351823  0.57232358  1
  Te  Te110  1  0.43356639  0.25036316  0.90834601  1
  Te  Te111  1  0.42619189  0.57231671  0.25578140  1
  Te  Te112  1  0.41735683  0.59088636  0.59905847  1
  Te  Te113  1  0.39618392  0.59143721  0.93643352  1
  Te  Te114  1  0.39144250  0.89202349  0.24686958  1
  Te  Te115  1  0.42026354  0.92161482  0.58806570  1
  Te  Te116  1  0.40907028  0.91790947  0.93857976  1
  Te  Te117  1  0.76920021  0.25441020  0.25253464  1
  Te  Te118  1  0.75608212  0.24127685  0.60043092  1
  Te  Te119  1  0.75177506  0.23256335  0.91918012  1
  Te  Te120  1  0.76397507  0.59869419  0.24587249  1
  Te  Te121  1  0.76927420  0.59548708  0.59627880  1
  Te  Te122  1  0.75549987  0.62475780  0.90908704  1
  Te  Te123  1  0.74690072  0.91387749  0.24708619  1
  Te  Te124  1  0.75413815  0.91721862  0.59449876  1
  Te  Te125  1  0.75643046  0.92416809  0.90324534  1
  Te  Te126  1  0.25840562  0.25229410  0.06382006  1
  Te  Te127  1  0.23231066  0.21015492  0.37993671  1
  Te  Te128  1  0.23543551  0.24973360  0.74083060  1
  Te  Te129  1  0.27426311  0.58321589  0.05380270  1
  Te  Te130  1  0.25797794  0.58954178  0.40394630  1
  Te  Te131  1  0.26427660  0.59200497  0.79769068  1
  Te  Te132  1  0.17420276  0.92015198  0.05818349  1
  Te  Te133  1  0.22533438  0.92239291  0.42382322  1
  Te  Te134  1  0.25478621  0.91212775  0.75297763  1
  Te  Te135  1  0.58254239  0.24962501  0.07866414  1
  Te  Te136  1  0.59509300  0.23457925  0.42345751  1
  Te  Te137  1  0.56485625  0.26567761  0.77515544  1
  Te  Te138  1  0.59202624  0.59905906  0.07167106  1
  Te  Te139  1  0.57018155  0.56070213  0.43720786  1
  Te  Te140  1  0.58784616  0.58375096  0.75826249  1
  Te  Te141  1  0.58606668  0.90280487  0.08015823  1
  Te  Te142  1  0.57851909  0.93201633  0.43114340  1
  Te  Te143  1  0.59008861  0.91736359  0.73468201  1
  Te  Te144  1  0.92800569  0.24592801  0.05089278  1
  Te  Te145  1  0.92241539  0.24567947  0.43153484  1
  Te  Te146  1  0.89334989  0.24647456  0.73450446  1
  Te  Te147  1  0.92782151  0.56612371  0.08109542  1
  Te  Te148  1  0.92501749  0.57653787  0.41225766  1
  Te  Te149  1  0.92434176  0.58698512  0.78551635  1
  Te  Te150  1  0.90882029  0.90271438  0.07283705  1
  Te  Te151  1  0.91253965  0.92490307  0.40490867  1
  Te  Te152  1  0.93303293  0.88316284  0.78791794  1
  Te  Te153  1  0.22144121  0.08548144  0.23312844  1
  Te  Te154  1  0.24469728  0.09021070  0.55074116  1
  Te  Te155  1  0.25652439  0.07128461  0.92231834  1
  Te  Te156  1  0.25265202  0.40400528  0.24729825  1
  Te  Te157  1  0.23992824  0.42903893  0.60257335  1
  Te  Te158  1  0.26416002  0.40296645  0.91580169  1
  Te  Te159  1  0.22243339  0.72539312  0.21809724  1
  Te  Te160  1  0.26126233  0.75865113  0.56992658  1
  Te  Te161  1  0.22736969  0.76069357  0.95010770  1
  Te  Te162  1  0.58776256  0.07523111  0.23569015  1
  Te  Te163  1  0.60605673  0.09212562  0.59354081  1
  Te  Te164  1  0.59492123  0.07686311  0.90311910  1
  Te  Te165  1  0.60775836  0.39367932  0.26393064  1
  Te  Te166  1  0.57629868  0.41280041  0.60273426  1
  Te  Te167  1  0.59108358  0.43170999  0.90628546  1
  Te  Te168  1  0.58888141  0.74064663  0.24430951  1
  Te  Te169  1  0.59055844  0.74853960  0.55889321  1
  Te  Te170  1  0.56573855  0.76192919  0.92923090  1
  Te  Te171  1  0.92628052  0.10025472  0.27188032  1
  Te  Te172  1  0.93897989  0.08627307  0.58151649  1
  Te  Te173  1  0.87163750  0.07265658  0.89843471  1
  Te  Te174  1  0.93499873  0.41259577  0.23650006  1
  Te  Te175  1  0.92780211  0.43328452  0.58518183  1
  Te  Te176  1  0.92864712  0.41526195  0.93085907  1
  Te  Te177  1  0.91657695  0.76275829  0.24663547  1
  Te  Te178  1  0.91252063  0.75940707  0.58374331  1
  Te  Te179  1  0.95995295  0.70306200  0.92554674  1
