# generated using pymatgen
data_In2Te3
_symmetry_space_group_name_H-M   'P 1'
_cell_length_a   18.98782800
_cell_length_b   18.99527280
_cell_length_c   19.00251919
_cell_angle_alpha   90.03970087
_cell_angle_beta   89.94175282
_cell_angle_gamma   90.04717872
_symmetry_Int_Tables_number   1
_chemical_formula_structural   In2Te3
_chemical_formula_sum   'In72 Te108'
_cell_volume   6853.80159367
_cell_formula_units_Z   36
loop_
 _symmetry_equiv_pos_site_id
 _symmetry_equiv_pos_as_xyz
  1  'x, y, z'
loop_
 _atom_site_type_symbol
 _atom_site_label
 _atom_site_symmetry_multiplicity
 _atom_site_fract_x
 _atom_site_fract_y
 _atom_site_fract_z
 _atom_site_occupancy
  In  In0  1  0.64597160  0.15276374  0.55110516  1
  In  In1  1  0.18040941  0.67388226  0.50952859  1
  In  In2  1  0.64715881  0.85937172  0.51332443  1
  In  In3  1  0.01814129  0.51044620  0.51027503  1
  In  In4  1  0.50349301  -0.01265607  0.16297067  1
  In  In5  1  0.68898212  0.48598182  0.18236645  1
  In  In6  1  0.48268417  0.50717844  0.36659074  1
  In  In7  1  0.15935677  0.16871143  -0.02475360  1
  In  In8  1  0.83260975  0.64694145  0.83006048  1
  In  In9  1  0.32940535  0.50109538  0.19331243  1
  In  In10  1  0.29954281  0.52545810  0.81168010  1
  In  In11  1  0.83303434  0.84303567  0.33765923  1
  In  In12  1  0.49289361  0.83166548  0.67881520  1
  In  In13  1  0.65153838  0.66798983  -0.00198017  1
  In  In14  1  0.17440103  0.02406611  0.48412396  1
  In  In15  1  0.64691163  0.67494665  0.31914733  1
  In  In16  1  0.65199430  0.48832639  0.84483422  1
  In  In17  1  0.50603869  -0.00699295  0.82009825  1
  In  In18  1  0.33842979  0.32949378  0.67328725  1
  In  In19  1  0.16497645  0.35029839  0.84643266  1
  In  In20  1  0.50420632  0.49838952  0.68319492  1
  In  In21  1  0.16145153  0.67510947  0.17517419  1
  In  In22  1  0.65257764  0.33107297  0.67745267  1
  In  In23  1  0.83673193  0.30161090  0.83747426  1
  In  In24  1  0.12676172  0.19639538  0.32345740  1
  In  In25  1  0.17795328  0.81905592  0.67076314  1
  In  In26  1  0.67258621  -0.00883123  0.35154342  1
  In  In27  1  0.50141278  0.18640442  0.34005064  1
  In  In28  1  0.17013449  0.84998103  0.33298701  1
  In  In29  1  0.68742401  0.14901792  0.15653194  1
  In  In30  1  0.49768557  0.67479831  0.50833477  1
  In  In31  1  0.01828630  0.51480949  0.84863543  1
  In  In32  1  0.01125707  0.32697356  0.01262968  1
  In  In33  1  0.83308304  0.84221100  0.66656035  1
  In  In34  1  0.68404329  0.82964799  0.85886942  1
  In  In35  1  -0.02163726  0.15965693  0.16064600  1
  In  In36  1  0.32729116  0.50338143  0.50411546  1
  In  In37  1  0.85744916  0.47252507  0.31590489  1
  In  In38  1  0.51751609  0.32800923  0.16682887  1
  In  In39  1  0.36083843  0.18159540  0.51558086  1
  In  In40  1  0.33287297  0.02085708  0.32348420  1
  In  In41  1  0.33352113  0.67592049  -0.01636768  1
  In  In42  1  0.33080772  0.82457895  0.82665204  1
  In  In43  1  0.50049073  0.15294899  -0.03365854  1
  In  In44  1  0.01005262  0.67466802  0.00331976  1
  In  In45  1  0.48655196  0.69118624  0.14240154  1
  In  In46  1  0.83966003  0.85199268  -0.00238636  1
  In  In47  1  -0.00845929  -0.01078629  0.66736091  1
  In  In48  1  0.84070778  0.49897791  0.65935955  1
  In  In49  1  0.14150102  -0.08925731  0.12736519  1
  In  In50  1  0.34794789  0.14607742  0.82786790  1
  In  In51  1  -0.00184608  -0.00040619  -0.01203487  1
  In  In52  1  0.82790650  0.16690256  0.33487451  1
  In  In53  1  0.82494344  0.68383752  0.52449748  1
  In  In54  1  -0.01105768  0.66055272  0.32309652  1
  In  In55  1  0.49638129  0.84510552  -0.00585561  1
  In  In56  1  0.17401413  0.35263247  0.47875156  1
  In  In57  1  0.31297716  0.15151822  0.14577472  1
  In  In58  1  0.33910705  0.68205069  0.37016214  1
  In  In59  1  0.48804257  0.50345607  -0.00167596  1
  In  In60  1  0.16327597  -0.02316643  0.82782886  1
  In  In61  1  -0.00995374  0.33324073  0.68027481  1
  In  In62  1  0.33349749  0.34775436  0.33809482  1
  In  In63  1  0.84207624  0.47525127  0.03363202  1
  In  In64  1  0.82944120  0.13398931  -0.02084879  1
  In  In65  1  -0.01728323  0.84359463  0.49643134  1
  In  In66  1  0.14733014  0.30849992  0.14647648  1
  In  In67  1  0.16084273  0.15614499  0.65939586  1
  In  In68  1  -0.01888656  0.16578252  0.50379320  1
  In  In69  1  0.67945099  0.31940406  0.34671541  1
  In  In70  1  0.84558960  0.67908917  0.14460338  1
  In  In71  1  0.67659895  0.13550901  0.78666334  1
  Te  Te72  1  0.08697454  0.08968504  0.08114289  1
  Te  Te73  1  0.06293870  0.08521240  0.40287545  1
  Te  Te74  1  0.07681623  0.08003588  0.75630171  1
  Te  Te75  1  0.11286396  0.42150215  0.05866323  1
  Te  Te76  1  0.07867764  0.43124509  0.40278082  1
  Te  Te77  1  0.08787011  0.42802871  0.74193750  1
  Te  Te78  1  0.08116235  0.77448916  0.09444986  1
  Te  Te79  1  0.07928157  0.74985826  0.41849251  1
  Te  Te80  1  0.13017304  0.73576142  0.78356467  1
  Te  Te81  1  0.41807684  0.07503109  0.07129282  1
  Te  Te82  1  0.42980513  0.08285038  0.42349074  1
  Te  Te83  1  0.43996995  0.08700537  0.72433354  1
  Te  Te84  1  0.41394834  0.41572128  0.09933252  1
  Te  Te85  1  0.42215676  0.39667678  0.45024771  1
  Te  Te86  1  0.40848859  0.42025030  0.77062169  1
  Te  Te87  1  0.38173690  0.78266238  0.08168167  1
  Te  Te88  1  0.44581958  0.77304493  0.41138153  1
  Te  Te89  1  0.39134979  0.73569713  0.72696189  1
  Te  Te90  1  0.77496750  0.04995036  0.08946534  1
  Te  Te91  1  0.73266142  0.10036361  0.43301772  1
  Te  Te92  1  0.75287671  0.06595852  0.67980502  1
  Te  Te93  1  0.72502562  0.39586312  0.07306236  1
  Te  Te94  1  0.75703620  0.42551770  0.41003603  1
  Te  Te95  1  0.76448324  0.41790966  0.76808030  1
  Te  Te96  1  0.74014792  0.76226708  0.07610411  1
  Te  Te97  1  0.73477237  0.75675344  0.42252991  1
  Te  Te98  1  0.74974615  0.74345471  0.75149610  1
  Te  Te99  1  0.02719496  0.28716200  0.24708622  1
  Te  Te100  1  0.09253219  0.25664087  0.57048747  1
  Te  Te101  1  0.06181369  0.24804359  0.89242995  1
  Te  Te102  1  0.08025798  0.57668740  0.24710754  1
  Te  Te103  1  0.10828850  0.58478540  0.60318679  1
  Te  Te104  1  0.10951053  0.60061249  0.92493693  1
  Te  Te105  1  0.07554270  0.92829959  0.25601969  1
  Te  Te106  1  0.09437507  0.92558814  0.57003222  1
  Te  Te107  1  0.08835002  0.89962066  0.92686702  1
  Te  Te108  1  0.40170850  0.24592005  0.24041529  1
  Te  Te109  1  0.44490503  0.24312571  0.61982794  1
  Te  Te110  1  0.40607343  0.24996227  0.91219457  1
  Te  Te111  1  0.42864151  0.59844492  0.25808342  1
  Te  Te112  1  0.40966131  0.58726304  0.59498361  1
  Te  Te113  1  0.41761019  0.58880368  0.89661611  1
  Te  Te114  1  0.39623621  0.91594459  0.23893789  1
  Te  Te115  1  0.46205607  0.93692800  0.58046891  1
  Te  Te116  1  0.40370626  0.92865875  0.91011285  1
  Te  Te117  1  0.75776759  0.25897181  0.23376510  1
  Te  Te118  1  0.74631088  0.24822940  0.59971965  1
  Te  Te119  1  0.73073534  0.22333404  0.90682480  1
  Te  Te120  1  0.76789518  0.59755247  0.24978235  1
  Te  Te121  1  0.74348772  0.58478884  0.59362517  1
  Te  Te122  1  0.76259938  0.57835952  0.94621912  1
  Te  Te123  1  0.74695721  0.92047961  0.24883529  1
  Te  Te124  1  0.75450345  0.93722481  0.58163910  1
  Te  Te125  1  0.78622602  0.93386635  0.88612074  1
  Te  Te126  1  0.25633639  0.25595940  0.05264424  1
  Te  Te127  1  0.25333512  0.23382037  0.41222281  1
  Te  Te128  1  0.24060633  0.24247804  0.75766251  1
  Te  Te129  1  0.26474435  0.59495561  0.09552374  1
  Te  Te130  1  0.24079963  0.57359006  0.40448776  1
  Te  Te131  1  0.21081693  0.61583667  0.73413337  1
  Te  Te132  1  0.28493336  0.91920774  0.11674870  1
  Te  Te133  1  0.26800686  0.92244876  0.42308910  1
  Te  Te134  1  0.26674757  0.92647860  0.73023705  1
  Te  Te135  1  0.58096158  0.22416936  0.07903405  1
  Te  Te136  1  0.58575210  0.25262202  0.44384269  1
  Te  Te137  1  0.57618589  0.23943705  0.76307586  1
  Te  Te138  1  0.58606688  0.57505841  0.10145719  1
  Te  Te139  1  0.59480070  0.58439800  0.42919074  1
  Te  Te140  1  0.59189602  0.58829437  0.76019307  1
  Te  Te141  1  0.59461507  0.92238664  0.06853389  1
  Te  Te142  1  0.56018425  0.91264679  0.40674509  1
  Te  Te143  1  0.60673298  0.90387949  0.75240106  1
  Te  Te144  1  0.89707988  0.24146395  0.06398404  1
  Te  Te145  1  0.91166787  0.25738659  0.41513669  1
  Te  Te146  1  0.90327844  0.22802587  0.72988584  1
  Te  Te147  1  0.94005909  0.57252635  0.09448905  1
  Te  Te148  1  0.90867848  0.59209989  0.43157816  1
  Te  Te149  1  0.93701597  0.58503381  0.74024056  1
  Te  Te150  1  0.90758689  0.94336412  0.09214360  1
  Te  Te151  1  0.89524783  0.93824629  0.43087990  1
  Te  Te152  1  0.93554344  0.89026270  0.75952479  1
  Te  Te153  1  0.22234892  0.09715078  0.25263242  1
  Te  Te154  1  0.26980590  0.08198519  0.58664366  1
  Te  Te155  1  0.25236679  0.06623038  0.91605643  1
  Te  Te156  1  0.22929392  0.39968910  0.24475321  1
  Te  Te157  1  0.24260037  0.41908459  0.59620163  1
  Te  Te158  1  0.25011136  0.44194728  0.92206201  1
  Te  Te159  1  0.26011356  0.75154254  0.26222267  1
  Te  Te160  1  0.27605599  0.76244560  0.57559386  1
  Te  Te161  1  0.23109160  0.76127122  0.91771350  1
  Te  Te162  1  0.58176021  0.09128887  0.25371211  1
  Te  Te163  1  0.55529733  0.04502356  0.61544778  1
  Te  Te164  1  0.60562357  0.06274692  0.90819611  1
  Te  Te165  1  0.57401955  0.42115782  0.27241850  1
  Te  Te166  1  0.58748736  0.42639133  0.58773103  1
  Te  Te167  1  0.58350585  0.40599985  0.94397613  1
  Te  Te168  1  0.58366855  0.76442344  0.22329583  1
  Te  Te169  1  0.59463889  0.74704470  0.59820379  1
  Te  Te170  1  0.56266922  0.74350456  0.90385050  1
  Te  Te171  1  0.90627979  0.07365373  0.25290967  1
  Te  Te172  1  0.90002696  0.08304404  0.59649244  1
  Te  Te173  1  0.91214064  0.05923799  0.88285126  1
  Te  Te174  1  0.92345795  0.39872484  0.21222951  1
  Te  Te175  1  0.92041865  0.40708057  0.56986105  1
  Te  Te176  1  0.92021336  0.41461733  0.91234265  1
  Te  Te177  1  0.92341318  0.76697739  0.23924685  1
  Te  Te178  1  0.93865394  0.74647283  0.60223302  1
  Te  Te179  1  0.91202048  0.74536686  0.91423125  1
