# generated using pymatgen
data_In2Te3
_symmetry_space_group_name_H-M   'P 1'
_cell_length_a   18.93808410
_cell_length_b   19.00986286
_cell_length_c   18.96487325
_cell_angle_alpha   90.02967959
_cell_angle_beta   90.15940556
_cell_angle_gamma   90.00518274
_symmetry_Int_Tables_number   1
_chemical_formula_structural   In2Te3
_chemical_formula_sum   'In72 Te108'
_cell_volume   6827.52388625
_cell_formula_units_Z   36
loop_
 _symmetry_equiv_pos_site_id
 _symmetry_equiv_pos_as_xyz
  1  'x, y, z'
loop_
 _atom_site_type_symbol
 _atom_site_label
 _atom_site_symmetry_multiplicity
 _atom_site_fract_x
 _atom_site_fract_y
 _atom_site_fract_z
 _atom_site_occupancy
  In  In0  1  0.01763572  0.02613936  0.34745608  1
  In  In1  1  0.50712824  0.17023886  0.35468561  1
  In  In2  1  0.81969668  0.51155706  0.34401172  1
  In  In3  1  0.18862844  -0.02115601  0.81826326  1
  In  In4  1  0.32735975  0.67215811  0.63959177  1
  In  In5  1  0.49086769  0.17768037  0.01592813  1
  In  In6  1  0.69714868  0.33661886  0.65167405  1
  In  In7  1  0.85104398  0.85054562  0.63216089  1
  In  In8  1  0.64975595  0.49029444  0.87039724  1
  In  In9  1  0.48616634  0.16065395  0.68724570  1
  In  In10  1  0.47827432  0.51964152  0.68291526  1
  In  In11  1  0.14828628  0.81155550  0.66886828  1
  In  In12  1  0.82831501  0.65932758  0.80476114  1
  In  In13  1  0.19650440  -0.01306278  0.50968957  1
  In  In14  1  -0.02775299  0.80765678  0.47897381  1
  In  In15  1  0.85788381  0.17795482  0.01270443  1
  In  In16  1  0.31792858  0.49371755  0.83929771  1
  In  In17  1  0.02726085  0.60826079  0.34433318  1
  In  In18  1  0.82171026  0.35403363  0.17677655  1
  In  In19  1  0.18183700  0.31830226  0.87331355  1
  In  In20  1  0.47618679  0.83486574  0.03002618  1
  In  In21  1  0.48957507  0.35421289  0.50279832  1
  In  In22  1  0.02797681  -0.01827330  0.67535166  1
  In  In23  1  0.65338740  0.81157508  0.83617940  1
  In  In24  1  0.86725610  0.34563727  0.84478538  1
  In  In25  1  0.82727502  0.48379902  0.00779044  1
  In  In26  1  0.63136420  0.00921474  0.01478548  1
  In  In27  1  0.83351882  0.01134944  0.85973918  1
  In  In28  1  0.64615167  0.65212785  0.65027383  1
  In  In29  1  0.22753434  0.78094451  0.03164894  1
  In  In30  1  0.02138521  0.33751727  0.66477438  1
  In  In31  1  0.85003746  0.47152298  0.65680264  1
  In  In32  1  0.66774163  -0.00510593  0.32986484  1
  In  In33  1  0.65497793  0.51262525  0.48661436  1
  In  In34  1  0.51125529  0.82937465  0.62990690  1
  In  In35  1  0.47147197  -0.01836156  0.47518922  1
  In  In36  1  0.69869357  0.17460627  0.84786235  1
  In  In37  1  0.16997797  0.36319935  0.45125618  1
  In  In38  1  0.45760950  0.80351504  0.33201234  1
  In  In39  1  0.60575091  0.50329330  0.23320477  1
  In  In40  1  0.21798700  0.52942567  0.28428179  1
  In  In41  1  0.33867400  0.14784731  0.82520451  1
  In  In42  1  0.64311739  0.68604173  0.33304698  1
  In  In43  1  0.13049303  0.16099412  0.04366525  1
  In  In44  1  0.66892882  0.17106771  0.16526381  1
  In  In45  1  0.34621266  0.51440194  0.44888641  1
  In  In46  1  0.64609767  0.64797119  0.03620750  1
  In  In47  1  0.02011413  0.83387400  0.83789698  1
  In  In48  1  0.32316007  -0.01133853  0.00663058  1
  In  In49  1  0.66794812  -0.00768427  0.67682309  1
  In  In50  1  0.83168639  0.84667740  0.01914858  1
  In  In51  1  0.54119220  0.34052088  0.85682325  1
  In  In52  1  0.85789691  0.16537488  0.32604377  1
  In  In53  1  0.02130322  0.17864946  0.49908379  1
  In  In54  1  0.01159020  0.69533482  -0.01085048  1
  In  In55  1  -0.01270096  0.86269901  0.17661757  1
  In  In56  1  0.18792434  0.80341396  0.30288353  1
  In  In57  1  0.79456238  0.82758515  0.32096863  1
  In  In58  1  0.16291021  0.52161971  0.64110831  1
  In  In59  1  0.32860307  -0.00709813  0.31290198  1
  In  In60  1  0.84604780  0.00498764  0.51525859  1
  In  In61  1  0.86410841  0.34110495  0.48233577  1
  In  In62  1  0.46026156  0.01116355  0.83465616  1
  In  In63  1  0.32338407  0.33596989  0.66201730  1
  In  In64  1  0.44531840  0.66681528  0.85511007  1
  In  In65  1  0.16551652  0.20717702  0.28983968  1
  In  In66  1  0.02939334  0.48508161  0.15391258  1
  In  In67  1  0.03996673  0.50863090  0.85655095  1
  In  In68  1  0.83515185  0.67500863  0.14941700  1
  In  In69  1  0.34496744  0.16920672  0.18334660  1
  In  In70  1  0.35219350  0.34702193  0.02837792  1
  In  In71  1  0.67205548  0.15793085  0.53723111  1
  Te  Te72  1  0.03529900  0.07108230  0.10906287  1
  Te  Te73  1  0.12750227  0.10114429  0.42219080  1
  Te  Te74  1  0.12009415  0.08198379  0.73254464  1
  Te  Te75  1  0.13459866  0.38324490  0.13029912  1
  Te  Te76  1  0.10440585  0.47649412  0.38161685  1
  Te  Te77  1  0.11256400  0.42217301  0.75431857  1
  Te  Te78  1  0.08168235  0.77440957  0.09450111  1
  Te  Te79  1  0.07909515  0.74268912  0.39450920  1
  Te  Te80  1  0.06531222  0.72101279  0.75462652  1
  Te  Te81  1  0.42038549  0.07073879  0.09167579  1
  Te  Te82  1  0.38994940  0.09283976  0.41353180  1
  Te  Te83  1  0.37688373  0.05132037  0.70664062  1
  Te  Te84  1  0.37264357  0.42723978  0.15067453  1
  Te  Te85  1  0.42387721  0.40718702  0.38002399  1
  Te  Te86  1  0.42287789  0.40072989  0.75886376  1
  Te  Te87  1  0.37309386  0.73068276  0.05890598  1
  Te  Te88  1  0.37014830  0.69292712  0.38360388  1
  Te  Te89  1  0.42606503  0.74673919  0.73214757  1
  Te  Te90  1  0.75074252  0.08278942  0.07250900  1
  Te  Te91  1  0.75370771  0.09125562  0.42128831  1
  Te  Te92  1  0.76511402  0.08741110  0.74161270  1
  Te  Te93  1  0.72633250  0.44518878  0.10828507  1
  Te  Te94  1  0.74110538  0.40625107  0.41996830  1
  Te  Te95  1  0.74576376  0.42612735  0.76802715  1
  Te  Te96  1  0.72704795  0.76530559  0.09355238  1
  Te  Te97  1  0.74446206  0.74014671  0.42504930  1
  Te  Te98  1  0.74118397  0.75780465  0.72474018  1
  Te  Te99  1  0.06293760  0.26040386  0.19601028  1
  Te  Te100  1  0.11832354  0.27439960  0.56545192  1
  Te  Te101  1  0.07322604  0.24671601  0.93840345  1
  Te  Te102  1  0.09880494  0.60477463  0.21075927  1
  Te  Te103  1  0.07415260  0.63554704  0.61349428  1
  Te  Te104  1  0.12292137  0.60179160  0.94539765  1
  Te  Te105  1  0.09363547  0.92111385  0.26882783  1
  Te  Te106  1  0.07168608  0.90664907  0.55159960  1
  Te  Te107  1  0.09659232  0.92480620  0.91993881  1
  Te  Te108  1  0.45490708  0.25494915  0.23922763  1
  Te  Te109  1  0.41393404  0.24615424  0.58107150  1
  Te  Te110  1  0.41607455  0.25517544  0.90830985  1
  Te  Te111  1  0.36195519  0.58331433  0.24493536  1
  Te  Te112  1  0.42680757  0.58799379  0.56050941  1
  Te  Te113  1  0.41911574  0.54748587  0.93456779  1
  Te  Te114  1  0.41218699  0.90378813  0.23312585  1
  Te  Te115  1  0.39793857  0.88380544  0.55450641  1
  Te  Te116  1  0.39881902  0.89738364  0.91129188  1
  Te  Te117  1  0.74996100  0.25302875  0.26522349  1
  Te  Te118  1  0.79180915  0.24581226  0.57725534  1
  Te  Te119  1  0.76413110  0.27786059  0.93372964  1
  Te  Te120  1  0.74439144  0.60041038  0.24590189  1
  Te  Te121  1  0.75736673  0.56992734  0.58536631  1
  Te  Te122  1  0.75048414  0.59796766  0.92770187  1
  Te  Te123  1  0.76095347  0.93747805  0.23253140  1
  Te  Te124  1  0.73228038  0.91487175  0.56245269  1
  Te  Te125  1  0.72543202  0.91821075  0.91880763  1
  Te  Te126  1  0.26340611  0.23359054  0.07369137  1
  Te  Te127  1  0.26206132  0.27320715  0.38110271  1
  Te  Te128  1  0.24440717  0.24746479  0.75486046  1
  Te  Te129  1  0.28114394  0.60765203  0.12117180  1
  Te  Te130  1  0.23989828  0.61548258  0.41738911  1
  Te  Te131  1  0.25196263  0.59160021  0.74648820  1
  Te  Te132  1  0.22845850  0.91541702  0.08957618  1
  Te  Te133  1  0.25788402  0.89500446  0.40553076  1
  Te  Te134  1  0.25627221  0.87239741  0.74542768  1
  Te  Te135  1  0.59715977  0.25957360  0.07208065  1
  Te  Te136  1  0.59371825  0.25258227  0.45000216  1
  Te  Te137  1  0.60190174  0.24932841  0.73977646  1
  Te  Te138  1  0.54560218  0.59690180  0.13210763  1
  Te  Te139  1  0.56786732  0.56102021  0.37510669  1
  Te  Te140  1  0.57803134  0.59090114  0.77377591  1
  Te  Te141  1  0.57133459  0.91518339  0.10771120  1
  Te  Te142  1  0.56738805  0.90105128  0.39147769  1
  Te  Te143  1  0.56785323  0.91449737  0.76058440  1
  Te  Te144  1  0.92557325  0.27204787  0.10740593  1
  Te  Te145  1  0.95575970  0.26283691  0.38983064  1
  Te  Te146  1  0.92780437  0.25893063  0.74476372  1
  Te  Te147  1  0.92830948  0.58818859  0.06853194  1
  Te  Te148  1  0.90952891  0.58906709  0.42923503  1
  Te  Te149  1  0.92533152  0.55351670  0.76178689  1
  Te  Te150  1  0.93695564  0.94256194  0.05963693  1
  Te  Te151  1  0.90872957  0.92806329  0.40088707  1
  Te  Te152  1  0.90727982  0.91713072  0.75637802  1
  Te  Te153  1  0.23163019  0.08225845  0.23403012  1
  Te  Te154  1  0.24284717  0.07140243  0.61854191  1
  Te  Te155  1  0.24245006  0.08729268  0.92486719  1
  Te  Te156  1  0.25191753  0.38629975  0.23419325  1
  Te  Te157  1  0.26901849  0.43927743  0.56544959  1
  Te  Te158  1  0.24231500  0.42913977  0.95476746  1
  Te  Te159  1  0.29080561  0.72798731  0.22131775  1
  Te  Te160  1  0.21316378  0.72913866  0.56253471  1
  Te  Te161  1  0.23266403  0.70123809  0.90972879  1
  Te  Te162  1  0.57613294  0.08440624  0.24963908  1
  Te  Te163  1  0.56281334  0.06256389  0.58268685  1
  Te  Te164  1  0.57674337  0.09578349  0.89578096  1
  Te  Te165  1  0.54889468  0.37531498  0.27701125  1
  Te  Te166  1  0.58380285  0.42935731  0.60500519  1
  Te  Te167  1  0.55559171  0.43543217  0.96941847  1
  Te  Te168  1  0.54359093  0.73166460  0.23203561  1
  Te  Te169  1  0.57620083  0.72790538  0.54667062  1
  Te  Te170  1  0.56598443  0.73909082  0.93576118  1
  Te  Te171  1  0.93743368  0.08198963  0.23149288  1
  Te  Te172  1  0.94642170  0.08659867  0.59306020  1
  Te  Te173  1  0.93196846  0.10815052  0.90561904  1
  Te  Te174  1  0.92188063  0.44110316  0.25115878  1
  Te  Te175  1  0.95936555  0.43016793  0.56017485  1
  Te  Te176  1  0.95333698  0.42027841  0.94512670  1
  Te  Te177  1  0.91173815  0.75431421  0.25178775  1
  Te  Te178  1  0.92226137  0.72874174  0.59369920  1
  Te  Te179  1  0.89043152  0.75859614  0.90968341  1
