# generated using pymatgen
data_In2Te3
_symmetry_space_group_name_H-M   'P 1'
_cell_length_a   18.80837267
_cell_length_b   18.80127762
_cell_length_c   18.80239517
_cell_angle_alpha   89.90389349
_cell_angle_beta   89.95785326
_cell_angle_gamma   89.93640579
_symmetry_Int_Tables_number   1
_chemical_formula_structural   In2Te3
_chemical_formula_sum   'In72 Te108'
_cell_volume   6648.91474516
_cell_formula_units_Z   36
loop_
 _symmetry_equiv_pos_site_id
 _symmetry_equiv_pos_as_xyz
  1  'x, y, z'
loop_
 _atom_site_type_symbol
 _atom_site_label
 _atom_site_symmetry_multiplicity
 _atom_site_fract_x
 _atom_site_fract_y
 _atom_site_fract_z
 _atom_site_occupancy
  In  In0  1  0.13688115  0.14472172  0.67669629  1
  In  In1  1  0.15981912  0.16298592  0.35381099  1
  In  In2  1  0.32560771  -0.00915318  0.66305652  1
  In  In3  1  0.17492661  0.51162149  0.32796637  1
  In  In4  1  -0.01381537  0.50366654  0.51278682  1
  In  In5  1  0.84082418  0.33764761  0.15235949  1
  In  In6  1  0.51695653  0.66901225  0.83444263  1
  In  In7  1  0.49330666  0.50328307  0.31001113  1
  In  In8  1  0.17489436  0.30068447  0.50469421  1
  In  In9  1  -0.00742269  0.48306298  0.15822905  1
  In  In10  1  0.83075007  0.34011257  0.85092681  1
  In  In11  1  0.83672627  0.00837452  0.16214823  1
  In  In12  1  0.80975406  0.68132993  0.16529959  1
  In  In13  1  0.52688577  0.83171699  0.33477156  1
  In  In14  1  0.50568142  0.81624709  -0.01505199  1
  In  In15  1  0.82521548  0.15982322  0.32677130  1
  In  In16  1  0.15961438  0.33136589  0.82202112  1
  In  In17  1  0.82133091  0.51837169  -0.02361691  1
  In  In18  1  0.34997986  0.16515074  0.16922809  1
  In  In19  1  0.16178425  0.67917931  0.15088481  1
  In  In20  1  0.34641202  0.17349338  0.48679391  1
  In  In21  1  -0.01419656  -0.02651731  -0.02123008  1
  In  In22  1  0.34530716  0.33424658  0.67015507  1
  In  In23  1  0.00662016  0.15631898  0.52449908  1
  In  In24  1  0.65996373  0.00775858  0.33983912  1
  In  In25  1  0.15578554  0.34863434  0.16186859  1
  In  In26  1  0.16151304  0.67884118  0.83892052  1
  In  In27  1  0.54642003  0.34525953  0.85944560  1
  In  In28  1  0.67683392  0.51611601  0.52021318  1
  In  In29  1  0.34209223  0.50061923  0.83011993  1
  In  In30  1  0.16017818  0.82414466  0.67555804  1
  In  In31  1  0.51399993  0.18974112  0.02252281  1
  In  In32  1  0.83683631  0.69628973  0.50467477  1
  In  In33  1  0.00201769  0.67627891  -0.01727023  1
  In  In34  1  0.84607330  -0.06368903  0.49622414  1
  In  In35  1  0.01310447  0.33276229  0.32581221  1
  In  In36  1  0.31680224  0.83237388  0.16054514  1
  In  In37  1  0.33422154  0.00908890  0.35319787  1
  In  In38  1  0.49478342  0.17188541  0.32646891  1
  In  In39  1  0.65910345  0.52398901  0.14440915  1
  In  In40  1  0.83124576  0.14592888  0.66626248  1
  In  In41  1  0.69050511  0.33608169  0.69021114  1
  In  In42  1  -0.01275004  0.66495648  0.67055661  1
  In  In43  1  0.35495337  0.50821122  0.14546695  1
  In  In44  1  0.15096066  -0.02487311  0.15839587  1
  In  In45  1  0.33282041  0.14172514  0.84909588  1
  In  In46  1  0.51333548  0.81389936  0.67536820  1
  In  In47  1  0.68817867  0.15315362  0.82425677  1
  In  In48  1  0.14924287  -0.02415652  0.51574503  1
  In  In49  1  0.33123051  0.52842229  0.49224530  1
  In  In50  1  0.33814759  0.34489383  0.00448489  1
  In  In51  1  0.14423171  0.50303745  0.66735425  1
  In  In52  1  0.68266653  0.67675962  0.34194506  1
  In  In53  1  0.49690062  -0.01678456  0.83116299  1
  In  In54  1  0.67576881  0.83041458  0.16532555  1
  In  In55  1  0.32203124  0.67119138  0.00731539  1
  In  In56  1  0.00197355  0.14360691  0.81978247  1
  In  In57  1  0.35535952  0.68480383  0.66134880  1
  In  In58  1  0.67865839  0.33188995  0.32955314  1
  In  In59  1  0.67632370  0.67552494  0.68258091  1
  In  In60  1  0.15570926  0.14516645  -0.00843761  1
  In  In61  1  0.51473929  0.34080593  0.48447202  1
  In  In62  1  0.83015027  0.18510987  0.01212786  1
  In  In63  1  0.00786477  0.68655006  0.35930756  1
  In  In64  1  0.83542619  0.68170178  0.82132505  1
  In  In65  1  0.32832533  0.84134071  0.49904820  1
  In  In66  1  -0.00716742  0.80748332  0.16274179  1
  In  In67  1  0.49115257  0.01080203  0.14997113  1
  In  In68  1  0.48378694  0.67380386  0.50651046  1
  In  In69  1  0.65156189  0.10955565  0.53623457  1
  In  In70  1  0.69112509  -0.01463442  -0.04017813  1
  In  In71  1  0.84304680  0.34248022  0.51513467  1
  Te  Te72  1  0.05742987  0.06680935  0.07817326  1
  Te  Te73  1  0.06614801  0.06364068  0.41757925  1
  Te  Te74  1  0.06952939  0.02882708  0.74685859  1
  Te  Te75  1  0.07374732  0.41261831  0.05712290  1
  Te  Te76  1  0.09245517  0.41457454  0.42780800  1
  Te  Te77  1  0.06156144  0.42316433  0.75878155  1
  Te  Te78  1  0.09563299  0.77579739  0.05347988  1
  Te  Te79  1  0.05995766  0.79800826  0.44018798  1
  Te  Te80  1  0.05534820  0.76314586  0.76917306  1
  Te  Te81  1  0.40116642  0.08394886  0.05154483  1
  Te  Te82  1  0.44702415  0.07158268  0.43412862  1
  Te  Te83  1  0.42007474  0.08558444  0.73850819  1
  Te  Te84  1  0.45040269  0.42129798  0.06732865  1
  Te  Te85  1  0.40934933  0.42298087  0.41093468  1
  Te  Te86  1  0.44149388  0.40962050  0.76042758  1
  Te  Te87  1  0.42420253  0.74539104  0.09418293  1
  Te  Te88  1  0.41041657  0.75533441  0.40171328  1
  Te  Te89  1  0.41006026  0.76489937  0.77699405  1
  Te  Te90  1  0.73515574  0.08015879  0.07218179  1
  Te  Te91  1  0.77005383  0.06766519  0.43563454  1
  Te  Te92  1  0.74644067  0.04033298  0.73783746  1
  Te  Te93  1  0.74438215  0.42079453  0.06872504  1
  Te  Te94  1  0.75460625  0.42611169  0.42249588  1
  Te  Te95  1  0.74772522  0.43884880  0.77689498  1
  Te  Te96  1  0.72517947  0.73941786  0.05753225  1
  Te  Te97  1  0.74790644  0.78276727  0.42145964  1
  Te  Te98  1  0.78237899  0.78040065  0.71315550  1
  Te  Te99  1  0.08669100  0.23328398  0.23835490  1
  Te  Te100  1  0.06971136  0.26654708  0.60925622  1
  Te  Te101  1  0.07087122  0.24433903  0.91191351  1
  Te  Te102  1  0.06634169  0.58503516  0.24778474  1
  Te  Te103  1  0.08721712  0.60299124  0.56838125  1
  Te  Te104  1  0.07752677  0.57662632  0.90455426  1
  Te  Te105  1  0.05684929  0.90829863  0.25297683  1
  Te  Te106  1  0.05354091  0.90795637  0.60800481  1
  Te  Te107  1  0.09208884  0.94542030  0.87981147  1
  Te  Te108  1  0.43108407  0.27142789  0.23475696  1
  Te  Te109  1  0.43720723  0.24842171  0.58303958  1
  Te  Te110  1  0.41876443  0.25545306  0.90642500  1
  Te  Te111  1  0.40480398  0.60205632  0.24734227  1
  Te  Te112  1  0.43146495  0.56618318  0.60174135  1
  Te  Te113  1  0.42264484  0.58679477  0.92576283  1
  Te  Te114  1  0.42130710  0.92547590  0.25693190  1
  Te  Te115  1  0.43081147  0.91066991  0.58553177  1
  Te  Te116  1  0.41057989  0.91462996  0.92889362  1
  Te  Te117  1  0.74572350  0.24133272  0.22653766  1
  Te  Te118  1  0.74542689  0.23970118  0.57700790  1
  Te  Te119  1  0.72553781  0.25871146  0.92891453  1
  Te  Te120  1  0.75203586  0.57176664  0.25570644  1
  Te  Te121  1  0.77819734  0.59109977  0.60147358  1
  Te  Te122  1  0.73266169  0.62137172  0.91405082  1
  Te  Te123  1  0.75544610  0.92010109  0.25878868  1
  Te  Te124  1  0.76282601  0.89635199  0.61195810  1
  Te  Te125  1  0.78471887  0.88737138  0.89489103  1
  Te  Te126  1  0.24584923  0.24381040  0.07582374  1
  Te  Te127  1  0.26969336  0.26276243  0.38980018  1
  Te  Te128  1  0.25208850  0.23420995  0.74298318  1
  Te  Te129  1  0.23050816  0.56808699  0.07438584  1
  Te  Te130  1  0.23961268  0.61246784  0.41352290  1
  Te  Te131  1  0.25447057  0.58775893  0.73854617  1
  Te  Te132  1  0.25353768  0.92516916  0.06541552  1
  Te  Te133  1  0.22987283  0.91036589  0.40348347  1
  Te  Te134  1  0.25994689  0.89835853  0.75647815  1
  Te  Te135  1  0.56524765  0.27106577  0.13117304  1
  Te  Te136  1  0.60450126  0.23200592  0.42090573  1
  Te  Te137  1  0.58612994  0.24210899  0.75140972  1
  Te  Te138  1  0.55911699  0.57385914  0.04805327  1
  Te  Te139  1  0.57894672  0.57947367  0.41817289  1
  Te  Te140  1  0.57947331  0.57784989  0.73658029  1
  Te  Te141  1  0.59135180  0.92314939  0.07281224  1
  Te  Te142  1  0.59170578  0.91753163  0.43496549  1
  Te  Te143  1  0.60128447  0.91472798  0.74631252  1
  Te  Te144  1  0.93844447  0.24561827  0.09103502  1
  Te  Te145  1  0.92450470  0.24759934  0.42114297  1
  Te  Te146  1  0.90631725  0.24343802  0.75341406  1
  Te  Te147  1  0.91224359  0.59566357  0.08683592  1
  Te  Te148  1  0.90558682  0.58883304  0.41665691  1
  Te  Te149  1  0.92662306  0.57539342  0.77120833  1
  Te  Te150  1  0.89826759  0.89634870  0.07897228  1
  Te  Te151  1  0.95279185  0.89947638  0.39664630  1
  Te  Te152  1  0.87098606  0.97110548  0.80201749  1
  Te  Te153  1  0.24786748  0.08075323  0.24688890  1
  Te  Te154  1  0.24291358  0.09400054  0.56765730  1
  Te  Te155  1  0.22021992  0.05282148  0.89203706  1
  Te  Te156  1  0.26164215  0.42309144  0.23972181  1
  Te  Te157  1  0.25139350  0.41739209  0.58068725  1
  Te  Te158  1  0.24166956  0.42273378  0.91415388  1
  Te  Te159  1  0.23364799  0.75469956  0.25414847  1
  Te  Te160  1  0.24278157  0.74120459  0.57591360  1
  Te  Te161  1  0.24772854  0.76573509  0.92147431  1
  Te  Te162  1  0.58836511  0.09214848  0.23520646  1
  Te  Te163  1  0.58345170  0.03827681  0.64349286  1
  Te  Te164  1  0.57695564  0.08902038  0.91707282  1
  Te  Te165  1  0.58828685  0.41049586  0.23435523  1
  Te  Te166  1  0.59359069  0.41200879  0.59324891  1
  Te  Te167  1  0.58442562  0.45209444  0.95372862  1
  Te  Te168  1  0.58434050  0.72964514  0.23720742  1
  Te  Te169  1  0.59948122  0.74768544  0.56806395  1
  Te  Te170  1  0.61583650  0.75954421  0.90096122  1
  Te  Te171  1  0.92638644  0.08995817  0.24682455  1
  Te  Te172  1  0.91661882  0.05127966  0.58423586  1
  Te  Te173  1  0.89144184  0.08501159  0.91250811  1
  Te  Te174  1  0.90360442  0.41940559  0.26582739  1
  Te  Te175  1  0.91199084  0.42604712  0.61373254  1
  Te  Te176  1  0.92054948  0.41192282  0.94541476  1
  Te  Te177  1  0.89766865  0.74933103  0.26800792  1
  Te  Te178  1  0.94161622  0.77614827  0.57797305  1
  Te  Te179  1  0.91010104  0.77380387  0.91548000  1
