# generated using pymatgen
data_In2Te3
_symmetry_space_group_name_H-M   'P 1'
_cell_length_a   18.77967631
_cell_length_b   18.77493643
_cell_length_c   18.76935032
_cell_angle_alpha   90.00259375
_cell_angle_beta   90.03653335
_cell_angle_gamma   89.96830497
_symmetry_Int_Tables_number   1
_chemical_formula_structural   In2Te3
_chemical_formula_sum   'In72 Te108'
_cell_volume   6617.83085326
_cell_formula_units_Z   36
loop_
 _symmetry_equiv_pos_site_id
 _symmetry_equiv_pos_as_xyz
  1  'x, y, z'
loop_
 _atom_site_type_symbol
 _atom_site_label
 _atom_site_symmetry_multiplicity
 _atom_site_fract_x
 _atom_site_fract_y
 _atom_site_fract_z
 _atom_site_occupancy
  In  In0  1  0.82135311  0.51213670  0.64847516  1
  In  In1  1  0.65178339  0.50090921  0.83383082  1
  In  In2  1  -0.00063416  0.30921900  0.00095567  1
  In  In3  1  0.01793644  0.68516707  0.34478128  1
  In  In4  1  0.01528982  0.47983909  0.14198919  1
  In  In5  1  0.66281937  0.00211925  0.68552264  1
  In  In6  1  0.83016321  0.01328783  0.15775414  1
  In  In7  1  0.49644993  0.14977952  -0.02724328  1
  In  In8  1  0.34901449  0.66154113  0.31780021  1
  In  In9  1  0.35052781  0.49592933  0.50762053  1
  In  In10  1  0.82173983  0.49076964  0.00716639  1
  In  In11  1  0.01372951  0.31878948  0.69913190  1
  In  In12  1  0.83029354  0.68288451  0.52837181  1
  In  In13  1  0.82182953  0.68253827  0.82788664  1
  In  In14  1  0.46182179  0.13970053  0.70400971  1
  In  In15  1  0.00800183  0.51966442  0.51462316  1
  In  In16  1  0.66619840  0.83230385  0.83011413  1
  In  In17  1  0.19318514  0.63543041  0.81771085  1
  In  In18  1  0.15530397  0.32013207  0.50214282  1
  In  In19  1  0.18021759  0.02034430  0.53413346  1
  In  In20  1  0.49894130  0.49854341  0.68041864  1
  In  In21  1  0.82125598  -0.00669962  0.82294921  1
  In  In22  1  0.52414994  -0.00883370  0.11583071  1
  In  In23  1  0.48604128  0.32077456  0.83843336  1
  In  In24  1  0.68950674  0.00085229  0.32790438  1
  In  In25  1  0.18606699  0.48063033  0.32255485  1
  In  In26  1  0.48443187  -0.00912329  0.51338881  1
  In  In27  1  0.03747068  0.31023102  0.29738225  1
  In  In28  1  -0.00878715  0.15779777  0.50164287  1
  In  In29  1  0.84811426  0.48066339  0.32744067  1
  In  In30  1  0.49307245  0.49662862  -0.00039863  1
  In  In31  1  -0.02030331  0.84743210  0.83261735  1
  In  In32  1  0.00162382  0.01879431  0.32490873  1
  In  In33  1  0.33876081  0.32155077  0.67562044  1
  In  In34  1  0.03126905  0.50216333  0.83766568  1
  In  In35  1  0.49573845  0.81690849  0.32812101  1
  In  In36  1  0.33703055  0.66355297  0.00758186  1
  In  In37  1  0.67392393  0.34027271  0.31670453  1
  In  In38  1  0.49583504  0.69112386  0.82624054  1
  In  In39  1  0.31379382  0.82559597  0.16000782  1
  In  In40  1  0.31806141  0.19182337  0.14032938  1
  In  In41  1  0.17968736  0.66447146  0.16299369  1
  In  In42  1  0.83200665  0.33273766  0.48994862  1
  In  In43  1  0.48209204  0.34561902  0.51701738  1
  In  In44  1  0.31061809  0.32917887  0.33687879  1
  In  In45  1  0.14954027  0.84343245  -0.00209001  1
  In  In46  1  0.01925750  0.01382539  -0.00074683  1
  In  In47  1  0.68392889  0.15997063  0.50086081  1
  In  In48  1  0.65324951  0.31732289  0.66970845  1
  In  In49  1  0.15974878  0.67623158  0.51097363  1
  In  In50  1  0.80000437  0.69472716  0.13223881  1
  In  In51  1  0.83453876  0.01312798  0.50906915  1
  In  In52  1  0.00330364  0.67679075  0.65977702  1
  In  In53  1  0.00374500  0.65127113  -0.03195068  1
  In  In54  1  0.65507708  0.65340115  0.33836109  1
  In  In55  1  0.32760102  -0.01119754  0.32700704  1
  In  In56  1  -0.01157671  0.85793522  0.17227510  1
  In  In57  1  0.48884653  0.34209185  0.15345246  1
  In  In58  1  0.67198083  0.49474617  0.14794175  1
  In  In59  1  0.84001580  0.30583398  0.83521958  1
  In  In60  1  0.48859884  0.67016187  0.16069615  1
  In  In61  1  0.19344738  0.30062228  0.85118190  1
  In  In62  1  0.83167971  0.16562080  -0.00707492  1
  In  In63  1  0.32481735  0.85575489  0.53411748  1
  In  In64  1  0.65508445  0.81793740  0.50702843  1
  In  In65  1  0.50959118  0.66589130  0.52175070  1
  In  In66  1  0.67266491  0.17426964  0.16314643  1
  In  In67  1  0.16248815  0.85470406  0.68823735  1
  In  In68  1  0.84175012  0.86603074  0.32733906  1
  In  In69  1  0.33783378  0.86405407  0.84808737  1
  In  In70  1  0.49808496  0.15206314  0.35552237  1
  In  In71  1  0.17083032  0.00729782  0.15750436  1
  Te  Te72  1  0.08762935  0.11420878  0.08932751  1
  Te  Te73  1  0.09882036  0.09188221  0.41591873  1
  Te  Te74  1  0.12847499  0.11017671  0.80388880  1
  Te  Te75  1  0.10907228  0.39279714  0.06463159  1
  Te  Te76  1  0.06957183  0.42129694  0.41150589  1
  Te  Te77  1  0.12091795  0.40884171  0.75929253  1
  Te  Te78  1  0.07289063  0.74765337  0.08984780  1
  Te  Te79  1  0.07527207  0.77681563  0.44372806  1
  Te  Te80  1  0.08023073  0.74012720  0.77681087  1
  Te  Te81  1  0.40492021  0.08132270  0.07719540  1
  Te  Te82  1  0.38890028  0.08036580  0.43407514  1
  Te  Te83  1  0.38785966  0.08273086  0.82432366  1
  Te  Te84  1  0.39257833  0.39352131  0.04788897  1
  Te  Te85  1  0.42080551  0.41755973  0.39703580  1
  Te  Te86  1  0.39654371  0.42877606  0.77105118  1
  Te  Te87  1  0.42381655  0.77330653  0.06738530  1
  Te  Te88  1  0.40267744  0.75744247  0.43297680  1
  Te  Te89  1  0.39813488  0.77096465  0.74843900  1
  Te  Te90  1  0.72737322  0.07403772  0.06255967  1
  Te  Te91  1  0.77984524  0.10198462  0.39643582  1
  Te  Te92  1  0.74079648  0.10219376  0.76022807  1
  Te  Te93  1  0.75089763  0.38791094  0.08448613  1
  Te  Te94  1  0.73821048  0.43288644  0.42304486  1
  Te  Te95  1  0.75237331  0.41626430  0.74986461  1
  Te  Te96  1  0.72099705  0.77845648  0.04008727  1
  Te  Te97  1  0.75131952  0.75914106  0.40150547  1
  Te  Te98  1  0.74988546  0.76239770  0.72810149  1
  Te  Te99  1  0.11230665  0.22711151  0.19988213  1
  Te  Te100  1  0.08761347  0.22699478  0.60117341  1
  Te  Te101  1  0.06891457  0.22462754  0.89602346  1
  Te  Te102  1  0.07600796  0.57547049  0.25283551  1
  Te  Te103  1  0.10825328  0.57297545  0.61393242  1
  Te  Te104  1  0.12569006  0.56531460  0.94025985  1
  Te  Te105  1  0.09781585  0.91651650  0.25758301  1
  Te  Te106  1  0.07631535  0.94417006  0.60897065  1
  Te  Te107  1  0.09267375  0.93449077  0.88969919  1
  Te  Te108  1  0.42479121  0.23967463  0.25233185  1
  Te  Te109  1  0.41434315  0.22783286  0.58056849  1
  Te  Te110  1  0.38754813  0.23932820  0.91683555  1
  Te  Te111  1  0.40372091  0.56377988  0.22189620  1
  Te  Te112  1  0.40114082  0.59741761  0.60968556  1
  Te  Te113  1  0.41381660  0.58425228  0.90296391  1
  Te  Te114  1  0.42520972  0.91562378  0.23366532  1
  Te  Te115  1  0.41850142  0.92358684  0.62720680  1
  Te  Te116  1  0.45283879  0.94454639  0.90730082  1
  Te  Te117  1  0.76370553  0.23976886  0.25902358  1
  Te  Te118  1  0.76758473  0.24420001  0.59721603  1
  Te  Te119  1  0.73315392  0.24838034  0.91728422  1
  Te  Te120  1  0.76078708  0.57841054  0.24402176  1
  Te  Te121  1  0.72303260  0.59569287  0.57699310  1
  Te  Te122  1  0.74217313  0.58863670  0.92087510  1
  Te  Te123  1  0.73935106  0.90499758  0.22085328  1
  Te  Te124  1  0.74225382  0.91784399  0.58419799  1
  Te  Te125  1  0.74802687  0.91380530  0.92738292  1
  Te  Te126  1  0.21058715  0.26436494  0.06691511  1
  Te  Te127  1  0.23785116  0.23116868  0.41794238  1
  Te  Te128  1  0.24420467  0.21380636  0.72962945  1
  Te  Te129  1  0.27105001  0.56681331  0.10046632  1
  Te  Te130  1  0.24782284  0.58356663  0.41984538  1
  Te  Te131  1  0.28900118  0.55630218  0.74274722  1
  Te  Te132  1  0.25977554  0.92972599  0.06003967  1
  Te  Te133  1  0.23729874  0.91717432  0.42629459  1
  Te  Te134  1  0.25640905  0.95284767  0.75458621  1
  Te  Te135  1  0.57255032  0.24433342  0.07242652  1
  Te  Te136  1  0.58815778  0.25641478  0.42514272  1
  Te  Te137  1  0.57873710  0.22457645  0.76353606  1
  Te  Te138  1  0.58732658  0.59411877  0.06959451  1
  Te  Te139  1  0.55115760  0.57869615  0.41041589  1
  Te  Te140  1  0.59186599  0.60430424  0.74055027  1
  Te  Te141  1  0.60821779  0.88808048  0.05290664  1
  Te  Te142  1  0.58123602  0.92536615  0.41020001  1
  Te  Te143  1  0.56154079  0.93551213  0.77811848  1
  Te  Te144  1  0.91076947  0.23867122  0.09586664  1
  Te  Te145  1  0.93230212  0.25903567  0.40329168  1
  Te  Te146  1  0.91993844  0.21547516  0.74938406  1
  Te  Te147  1  0.91845370  0.58597000  0.08359752  1
  Te  Te148  1  0.90857956  0.59034010  0.42108398  1
  Te  Te149  1  0.91959338  0.57813948  0.75391742  1
  Te  Te150  1  0.91062810  0.92282731  0.06145259  1
  Te  Te151  1  0.93430692  0.92709574  0.42913882  1
  Te  Te152  1  0.91839446  0.93013227  0.72716528  1
  Te  Te153  1  0.25549850  0.09739984  0.24830079  1
  Te  Te154  1  0.26620505  0.10101720  0.62178957  1
  Te  Te155  1  0.24376634  0.06483460  0.88521199  1
  Te  Te156  1  0.25146808  0.39838700  0.22020692  1
  Te  Te157  1  0.25128200  0.40858201  0.58282821  1
  Te  Te158  1  0.28064575  0.38691934  0.93631373  1
  Te  Te159  1  0.23688505  0.75578660  0.27243314  1
  Te  Te160  1  0.24628429  0.75059906  0.61294232  1
  Te  Te161  1  0.24459016  0.75100175  0.91845452  1
  Te  Te162  1  0.57666297  0.07603722  0.24689155  1
  Te  Te163  1  0.57656749  0.09259012  0.58624488  1
  Te  Te164  1  0.57219724  0.04570749  0.89540366  1
  Te  Te165  1  0.57351312  0.43061609  0.24575584  1
  Te  Te166  1  0.59296077  0.42748937  0.58213600  1
  Te  Te167  1  0.58649140  0.39973697  0.92559258  1
  Te  Te168  1  0.59648520  0.75126795  0.23537771  1
  Te  Te169  1  0.55682794  0.77605739  0.60751149  1
  Te  Te170  1  0.58408518  0.75270297  0.93068715  1
  Te  Te171  1  0.92685067  0.10129053  0.22760712  1
  Te  Te172  1  0.91927284  0.08340141  0.60900855  1
  Te  Te173  1  0.92206926  0.08154595  0.90360064  1
  Te  Te174  1  0.92261571  0.39379056  0.22796146  1
  Te  Te175  1  0.92964921  0.40984645  0.59218454  1
  Te  Te176  1  0.92307932  0.42086587  0.91196255  1
  Te  Te177  1  0.91223987  0.74686024  0.24900199  1
  Te  Te178  1  0.92508466  0.77773699  0.58627787  1
  Te  Te179  1  0.90368755  0.76012872  0.93249842  1
