# generated using pymatgen
data_In2Te3
_symmetry_space_group_name_H-M   'P 1'
_cell_length_a   18.79849283
_cell_length_b   18.81015907
_cell_length_c   18.80444604
_cell_angle_alpha   89.96020965
_cell_angle_beta   90.04070256
_cell_angle_gamma   89.95927976
_symmetry_Int_Tables_number   1
_chemical_formula_structural   In2Te3
_chemical_formula_sum   'In72 Te108'
_cell_volume   6649.29680677
_cell_formula_units_Z   36
loop_
 _symmetry_equiv_pos_site_id
 _symmetry_equiv_pos_as_xyz
  1  'x, y, z'
loop_
 _atom_site_type_symbol
 _atom_site_label
 _atom_site_symmetry_multiplicity
 _atom_site_fract_x
 _atom_site_fract_y
 _atom_site_fract_z
 _atom_site_occupancy
  In  In0  1  0.34250959  0.65536455  0.33007808  1
  In  In1  1  0.15958800  0.17804833  0.34242749  1
  In  In2  1  0.02736167  0.35270757  0.66544888  1
  In  In3  1  0.17435157  0.67207674  0.50766999  1
  In  In4  1  0.16788755  0.00876221  0.50939400  1
  In  In5  1  0.50424401  -0.00512218  0.84186237  1
  In  In6  1  0.00887462  0.50887582  0.83246503  1
  In  In7  1  0.32118828  0.30360784  0.68081254  1
  In  In8  1  0.20003151  0.35235684  0.18220712  1
  In  In9  1  0.52268529  0.66756431  0.47799476  1
  In  In10  1  0.49318346  0.66016832  0.85489036  1
  In  In11  1  0.86292619  0.63803206  0.47452648  1
  In  In12  1  0.17864822  0.64428074  0.17556682  1
  In  In13  1  0.32505109  0.65814180  0.66481582  1
  In  In14  1  0.31828078  0.16203237  0.49113573  1
  In  In15  1  0.82170461  0.01128296  0.17460166  1
  In  In16  1  0.66030414  0.50994273  0.85775193  1
  In  In17  1  0.17934083  0.86004196  -0.00260543  1
  In  In18  1  0.33117407  0.15717405  0.84987387  1
  In  In19  1  0.80105996  0.14399362  0.33842753  1
  In  In20  1  0.51450668  0.15904066  0.30370701  1
  In  In21  1  0.32421132  0.63688038  -0.00181014  1
  In  In22  1  0.49152543  0.83616914  0.66110323  1
  In  In23  1  0.82484689  0.68334986  0.16610578  1
  In  In24  1  -0.02570098  -0.01946324  0.68839069  1
  In  In25  1  0.67257166  0.30782702  0.66310699  1
  In  In26  1  0.16887812  0.83106129  0.32904967  1
  In  In27  1  0.51040011  0.17477834  0.01791895  1
  In  In28  1  0.34278518  0.82150046  0.51422752  1
  In  In29  1  -0.00481444  0.32549036  0.00932029  1
  In  In30  1  0.36629548  -0.01452784  0.31109921  1
  In  In31  1  0.50587460  0.83101323  0.00087485  1
  In  In32  1  0.82550249  0.33466058  0.50823809  1
  In  In33  1  0.69673287  0.69458733  0.68987881  1
  In  In34  1  0.81891932  0.84029152  0.33069423  1
  In  In35  1  0.68262186  -0.00515453  0.65886617  1
  In  In36  1  0.16630988  0.00698865  0.82225165  1
  In  In37  1  0.32984561  -0.01943578  0.65602237  1
  In  In38  1  0.84426778  0.49141439  0.66904945  1
  In  In39  1  0.48163716  0.33219491  0.84100059  1
  In  In40  1  0.67709740  0.66997795  0.00924712  1
  In  In41  1  0.34695432  0.00838547  0.00480485  1
  In  In42  1  0.67851032  -0.01292466  0.00924866  1
  In  In43  1  0.67593498  0.49441540  0.16138265  1
  In  In44  1  -0.00534320  0.17327914  0.84492055  1
  In  In45  1  0.16659912  0.51134487  0.67855821  1
  In  In46  1  0.00300424  0.66720974  -0.00379196  1
  In  In47  1  0.15607716  0.00662254  0.15436480  1
  In  In48  1  -0.00591906  0.82525859  0.17320361  1
  In  In49  1  0.00061823  0.50002211  0.17081461  1
  In  In50  1  -0.01081155  0.16556349  0.51943035  1
  In  In51  1  0.32970107  0.17852254  0.16092925  1
  In  In52  1  -0.01497074  0.85165088  0.49623601  1
  In  In53  1  0.33619117  0.49620682  0.48778380  1
  In  In54  1  0.84052304  0.16875548  0.00452046  1
  In  In55  1  0.82718997  0.81081277  -0.01237415  1
  In  In56  1  -0.00104420  0.01354908  -0.00077800  1
  In  In57  1  0.49882517  0.47494345  0.68181658  1
  In  In58  1  0.15335113  0.34540315  0.47494975  1
  In  In59  1  0.83404976  0.14246796  0.66941951  1
  In  In60  1  0.52473918  0.14462306  0.64384611  1
  In  In61  1  0.84493513  0.32573899  0.84866443  1
  In  In62  1  0.65711363  0.67072994  0.32001857  1
  In  In63  1  0.49041874  0.33855205  0.46797260  1
  In  In64  1  0.49108330  0.65786993  0.16927632  1
  In  In65  1  -0.00745957  0.68501540  0.66873635  1
  In  In66  1  0.14321528  0.67624515  0.83806797  1
  In  In67  1  -0.00504658  0.34610369  0.31474429  1
  In  In68  1  0.67084251  0.32045630  0.02747823  1
  In  In69  1  0.65700537  0.87001515  0.47428179  1
  In  In70  1  0.67054179  0.33528613  0.31417740  1
  In  In71  1  0.66507394  0.51232745  0.47981724  1
  Te  Te72  1  0.07247676  0.10618509  0.08574653  1
  Te  Te73  1  0.07007830  0.08134929  0.41806101  1
  Te  Te74  1  0.06835604  0.09105507  0.73989715  1
  Te  Te75  1  0.09281201  0.41546598  0.08492138  1
  Te  Te76  1  0.07243144  0.44602088  0.39902692  1
  Te  Te77  1  0.11223840  0.40922834  0.77931009  1
  Te  Te78  1  0.09963667  0.75487996  0.08716221  1
  Te  Te79  1  0.07736668  0.75253814  0.42158898  1
  Te  Te80  1  0.08118018  0.77317268  0.74646055  1
  Te  Te81  1  0.43455378  0.07747049  0.10806020  1
  Te  Te82  1  0.42205804  0.08856397  0.41090132  1
  Te  Te83  1  0.41868877  0.08331430  0.74488459  1
  Te  Te84  1  0.37047993  0.43567453  0.06852192  1
  Te  Te85  1  0.40484700  0.42108784  0.37729091  1
  Te  Te86  1  0.38133021  0.42003405  0.76014276  1
  Te  Te87  1  0.40511997  0.74263469  0.07531879  1
  Te  Te88  1  0.42742016  0.76027842  0.40361946  1
  Te  Te89  1  0.41320683  0.74559969  0.75535666  1
  Te  Te90  1  0.73217313  0.10373672  0.09274876  1
  Te  Te91  1  0.72284596  0.07423137  0.44196111  1
  Te  Te92  1  0.73034301  0.09232421  0.75990673  1
  Te  Te93  1  0.76828114  0.42155870  0.07129520  1
  Te  Te94  1  0.76192842  0.42474188  0.40269009  1
  Te  Te95  1  0.73997013  0.41402267  0.75177320  1
  Te  Te96  1  0.72816272  0.78038739  0.10200790  1
  Te  Te97  1  0.74370317  0.73954880  0.42473143  1
  Te  Te98  1  0.77713361  0.77720477  0.78025102  1
  Te  Te99  1  0.08703173  0.25437809  0.23521607  1
  Te  Te100  1  0.10178015  0.24859089  0.58149202  1
  Te  Te101  1  0.08996137  0.25855886  0.91600287  1
  Te  Te102  1  0.06750373  0.59896787  0.26217999  1
  Te  Te103  1  0.07433026  0.58532789  0.58452228  1
  Te  Te104  1  0.10247033  0.56739274  0.93854983  1
  Te  Te105  1  0.07392999  0.92601002  0.25563490  1
  Te  Te106  1  0.08254126  0.91691865  0.59445747  1
  Te  Te107  1  0.07183301  0.91752809  0.90621439  1
  Te  Te108  1  0.42618862  0.26154552  0.23864158  1
  Te  Te109  1  0.42735735  0.25280661  0.58007034  1
  Te  Te110  1  0.40150599  0.25324676  0.94553951  1
  Te  Te111  1  0.39563021  0.55690889  0.22931627  1
  Te  Te112  1  0.42680974  0.58752033  0.57417385  1
  Te  Te113  1  0.42444137  0.54748075  0.92628140  1
  Te  Te114  1  0.46731829  0.90006915  0.24442984  1
  Te  Te115  1  0.43766862  0.93500198  0.55839900  1
  Te  Te116  1  0.40336199  0.90398013  0.90926289  1
  Te  Te117  1  0.75501830  0.24125266  0.23724856  1
  Te  Te118  1  0.74534817  0.21838045  0.56496694  1
  Te  Te119  1  0.73834884  0.24220746  0.91231089  1
  Te  Te120  1  0.76057829  0.57890103  0.25771242  1
  Te  Te121  1  0.75102458  0.58288032  0.58484801  1
  Te  Te122  1  0.76427886  0.59438761  0.91649954  1
  Te  Te123  1  0.72167511  0.93013220  0.25817881  1
  Te  Te124  1  0.75917415  0.89626943  0.57797922  1
  Te  Te125  1  0.75315748  0.91125084  0.90377973  1
  Te  Te126  1  0.24253008  0.25928930  0.07406024  1
  Te  Te127  1  0.26492969  0.27192448  0.40047967  1
  Te  Te128  1  0.23106737  0.24089098  0.77818219  1
  Te  Te129  1  0.25406758  0.54104991  0.09396693  1
  Te  Te130  1  0.23416807  0.57736893  0.40616505  1
  Te  Te131  1  0.25407486  0.58556067  0.77729680  1
  Te  Te132  1  0.27085453  0.91900260  0.10482390  1
  Te  Te133  1  0.25852160  0.91966934  0.42134390  1
  Te  Te134  1  0.25968417  0.90908672  0.76307897  1
  Te  Te135  1  0.56312151  0.27074330  0.12083778  1
  Te  Te136  1  0.59166301  0.24387002  0.40957697  1
  Te  Te137  1  0.57285653  0.23962609  0.75460195  1
  Te  Te138  1  0.57770105  0.57565090  0.07436031  1
  Te  Te139  1  0.56377914  0.56120159  0.37760215  1
  Te  Te140  1  0.58370272  0.58936791  0.74234356  1
  Te  Te141  1  0.56340201  0.93545578  0.08905321  1
  Te  Te142  1  0.57276184  0.92536318  0.36260815  1
  Te  Te143  1  0.58978650  0.90788532  0.75155532  1
  Te  Te144  1  0.90151145  0.25957343  0.10447997  1
  Te  Te145  1  0.91876500  0.25311284  0.41566288  1
  Te  Te146  1  0.91435901  0.26590170  0.72622550  1
  Te  Te147  1  0.90636177  0.58810770  0.08089000  1
  Te  Te148  1  0.95297820  0.55311233  0.39664352  1
  Te  Te149  1  0.90663109  0.59601296  0.76023137  1
  Te  Te150  1  0.90851547  0.91433206  0.08280394  1
  Te  Te151  1  0.91233578  0.93393623  0.39689531  1
  Te  Te152  1  0.87488884  0.89801015  0.75816187  1
  Te  Te153  1  0.25116116  0.07990754  0.26380321  1
  Te  Te154  1  0.24449504  0.09808824  0.60732639  1
  Te  Te155  1  0.23131149  0.08266347  0.93983033  1
  Te  Te156  1  0.27767400  0.44329431  0.26973873  1
  Te  Te157  1  0.25019910  0.41525337  0.58518669  1
  Te  Te158  1  0.30688788  0.42819388  0.93978024  1
  Te  Te159  1  0.26512020  0.75398136  0.23999177  1
  Te  Te160  1  0.23515696  0.76858143  0.60826309  1
  Te  Te161  1  0.25051008  0.74897178  0.92083653  1
  Te  Te162  1  0.62175162  0.05469142  0.28396453  1
  Te  Te163  1  0.60384259  0.06407595  0.54470340  1
  Te  Te164  1  0.59086288  0.08744271  0.92330354  1
  Te  Te165  1  0.57281676  0.40790698  0.22651097  1
  Te  Te166  1  0.59239503  0.41029060  0.57135543  1
  Te  Te167  1  0.57946943  0.40588475  0.93294166  1
  Te  Te168  1  0.57366774  0.76280842  0.23872895  1
  Te  Te169  1  0.59443699  0.75200314  0.58302282  1
  Te  Te170  1  0.59881778  0.75510212  0.90682083  1
  Te  Te171  1  0.91447749  0.08102146  0.26521669  1
  Te  Te172  1  0.90338427  0.05078368  0.57021281  1
  Te  Te173  1  0.89724317  0.07172571  0.90045424  1
  Te  Te174  1  0.89621523  0.40468008  0.22006213  1
  Te  Te175  1  0.93527681  0.42534860  0.56714874  1
  Te  Te176  1  0.91521398  0.43251534  0.92637625  1
  Te  Te177  1  0.91987475  0.73771413  0.27176963  1
  Te  Te178  1  0.89584442  0.75185390  0.57181642  1
  Te  Te179  1  0.93783719  0.76080807  0.90248206  1
