# generated using pymatgen
data_In2Te3
_symmetry_space_group_name_H-M   'P 1'
_cell_length_a   18.94601013
_cell_length_b   18.97338392
_cell_length_c   18.96392869
_cell_angle_alpha   89.94426165
_cell_angle_beta   90.02878985
_cell_angle_gamma   90.03474237
_symmetry_Int_Tables_number   1
_chemical_formula_structural   In2Te3
_chemical_formula_sum   'In72 Te108'
_cell_volume   6816.95666469
_cell_formula_units_Z   36
loop_
 _symmetry_equiv_pos_site_id
 _symmetry_equiv_pos_as_xyz
  1  'x, y, z'
loop_
 _atom_site_type_symbol
 _atom_site_label
 _atom_site_symmetry_multiplicity
 _atom_site_fract_x
 _atom_site_fract_y
 _atom_site_fract_z
 _atom_site_occupancy
  In  In0  1  0.81275057  0.84242966  0.68794504  1
  In  In1  1  0.82666180  0.50781588  0.64731562  1
  In  In2  1  0.53525054  0.34114704  0.50059907  1
  In  In3  1  0.66892208  0.34539740  0.02316327  1
  In  In4  1  0.16135434  0.51860996  0.31944435  1
  In  In5  1  0.33703527  0.34341691  0.68364258  1
  In  In6  1  0.15589484  0.67172779  0.48489968  1
  In  In7  1  0.52645125  0.30430746  0.83802760  1
  In  In8  1  0.83108847  0.50801125  0.35178257  1
  In  In9  1  0.36730763  0.14670810  0.81072612  1
  In  In10  1  -0.02947123  0.83132534  0.51744285  1
  In  In11  1  0.67270283  0.49096208  0.18004511  1
  In  In12  1  0.18308729  0.32700374  0.16536895  1
  In  In13  1  0.81639436  0.00501427  0.17670976  1
  In  In14  1  0.64360064  0.68308071  0.34616904  1
  In  In15  1  -0.00443873  0.15788953  0.53142661  1
  In  In16  1  0.51477639  0.50545412  0.65291693  1
  In  In17  1  -0.02283018  -0.01348811  0.69417186  1
  In  In18  1  0.33888301  0.50250983  0.16454250  1
  In  In19  1  0.15164512  0.00547495  0.83299592  1
  In  In20  1  0.49656531  0.67705999  0.83517458  1
  In  In21  1  0.33409058  0.83443108  0.83516604  1
  In  In22  1  0.32992921  0.51932226  0.82560854  1
  In  In23  1  0.19438938  0.00144589  0.50466272  1
  In  In24  1  0.18808553  0.14061607  0.30810491  1
  In  In25  1  0.16618408  0.83353516  0.66305971  1
  In  In26  1  -0.02227792  0.32469792  0.66873811  1
  In  In27  1  0.69380143  0.13882415  0.81991368  1
  In  In28  1  0.65801086  0.18316865  0.17807031  1
  In  In29  1  -0.00151118  0.16484529  0.15790231  1
  In  In30  1  0.16069237  0.81216224  0.29339796  1
  In  In31  1  0.81615190  0.17856786  0.33765598  1
  In  In32  1  0.48335024  0.67462343  0.15697932  1
  In  In33  1  0.21130063  -0.01302524  0.12899803  1
  In  In34  1  0.16770256  0.49336355  0.00610309  1
  In  In35  1  0.14822450  0.33285061  0.48340838  1
  In  In36  1  0.83224731  0.66348978  0.83039512  1
  In  In37  1  0.66761771  0.82357914  0.15721015  1
  In  In38  1  0.66239177  0.16773439  0.53289539  1
  In  In39  1  0.65845938  0.00011490  0.33573596  1
  In  In40  1  0.35295074  -0.00643215  -0.02522310  1
  In  In41  1  0.49918876  0.49080193  0.00995405  1
  In  In42  1  0.15252596  0.31432154  0.84069913  1
  In  In43  1  0.49266900  0.65886559  0.50445449  1
  In  In44  1  0.49828179  0.33702782  0.16749652  1
  In  In45  1  0.85239814  0.17761714  -0.01121051  1
  In  In46  1  0.68615495  0.82254582  0.50530933  1
  In  In47  1  0.19618024  0.84804892  0.01367777  1
  In  In48  1  0.34027236  0.84914293  0.48834636  1
  In  In49  1  -0.00328187  0.01590451  -0.00245640  1
  In  In50  1  0.14787540  0.67080299  0.82892378  1
  In  In51  1  0.51430902  0.87180070  0.69529756  1
  In  In52  1  0.32607493  0.17794342  0.53700983  1
  In  In53  1  0.00429619  -0.02326181  0.35171568  1
  In  In54  1  0.66192718  0.68164655  -0.02549575  1
  In  In55  1  0.32559687  0.15619753  0.13814784  1
  In  In56  1  0.00079627  0.84662524  0.14390185  1
  In  In57  1  0.83707088  0.68377664  0.15390421  1
  In  In58  1  0.66610234  0.65912912  0.65286032  1
  In  In59  1  0.48787217  0.12681132  0.34362721  1
  In  In60  1  0.52261387  -0.00197479  0.52227608  1
  In  In61  1  -0.00556876  0.66332010  -0.00423527  1
  In  In62  1  -0.01788134  0.65514567  0.31243667  1
  In  In63  1  0.17283705  0.47758135  0.67474530  1
  In  In64  1  0.82883131  0.34891815  0.81991910  1
  In  In65  1  0.65545632  -0.01197140  -0.01614540  1
  In  In66  1  -0.00791354  0.34017392  -0.01177368  1
  In  In67  1  0.00832294  0.66073049  0.65949071  1
  In  In68  1  0.81463977  0.33794308  0.50930710  1
  In  In69  1  -0.02997999  0.34974844  0.31481093  1
  In  In70  1  0.37105640  0.33346426  0.35889891  1
  In  In71  1  0.33813426  0.65247621  0.32378602  1
  Te  Te72  1  0.10221053  0.08655530  0.08157756  1
  Te  Te73  1  0.09203073  0.08717898  0.42107884  1
  Te  Te74  1  0.06880940  0.08769434  0.74569130  1
  Te  Te75  1  0.07918893  0.41174300  0.09721354  1
  Te  Te76  1  0.06763934  0.43085193  0.40070240  1
  Te  Te77  1  0.06768792  0.40989495  0.75838101  1
  Te  Te78  1  0.09466903  0.75220596  0.07629551  1
  Te  Te79  1  0.06633680  0.76777349  0.40962301  1
  Te  Te80  1  0.06174043  0.76917015  0.75173452  1
  Te  Te81  1  0.42712676  0.08005375  0.06723346  1
  Te  Te82  1  0.39405327  0.06806547  0.45261238  1
  Te  Te83  1  0.46573281  0.06068598  0.74358170  1
  Te  Te84  1  0.39696352  0.39701062  0.07219844  1
  Te  Te85  1  0.43781400  0.43336370  0.43929049  1
  Te  Te86  1  0.43355395  0.42405467  0.76784598  1
  Te  Te87  1  0.40343691  0.75667692  0.06741440  1
  Te  Te88  1  0.42022330  0.75116429  0.40679728  1
  Te  Te89  1  0.41645639  0.75620232  0.73409712  1
  Te  Te90  1  0.75208688  0.10490683  0.08451358  1
  Te  Te91  1  0.74263571  0.08410955  0.42872081  1
  Te  Te92  1  0.72749440  0.03770267  0.71363831  1
  Te  Te93  1  0.76299547  0.44622052  0.07313632  1
  Te  Te94  1  0.74517531  0.39619293  0.39532467  1
  Te  Te95  1  0.73718550  0.42169749  0.72821037  1
  Te  Te96  1  0.76151623  0.76748558  0.05242243  1
  Te  Te97  1  0.76206252  0.73995060  0.41285714  1
  Te  Te98  1  0.72185298  0.74651970  0.76269260  1
  Te  Te99  1  0.08399378  0.24791132  0.25981719  1
  Te  Te100  1  0.09374867  0.25160879  0.59863612  1
  Te  Te101  1  0.05924233  0.23188645  0.91731593  1
  Te  Te102  1  0.09510352  0.61262943  0.23021291  1
  Te  Te103  1  0.09391154  0.56780049  0.57729199  1
  Te  Te104  1  0.07525535  0.56645264  0.90871860  1
  Te  Te105  1  0.09060492  0.93969994  0.22642131  1
  Te  Te106  1  0.07994525  0.92325371  0.57543178  1
  Te  Te107  1  0.08475824  0.91099023  0.92993654  1
  Te  Te108  1  0.41190178  0.23430863  0.25067942  1
  Te  Te109  1  0.43160751  0.26852358  0.59258343  1
  Te  Te110  1  0.41094124  0.24880879  0.90648483  1
  Te  Te111  1  0.44121610  0.56368922  0.25654753  1
  Te  Te112  1  0.40610659  0.58342160  0.59530317  1
  Te  Te113  1  0.41429436  0.58912410  0.93002710  1
  Te  Te114  1  0.43816556  0.98818071  0.32016527  1
  Te  Te115  1  0.40916390  0.92783571  0.59755687  1
  Te  Te116  1  0.44678040  0.90301855  0.90293648  1
  Te  Te117  1  0.75466204  0.27216383  0.24389082  1
  Te  Te118  1  0.77723383  0.23128225  0.60251771  1
  Te  Te119  1  0.73913868  0.25334316  0.92128070  1
  Te  Te120  1  0.74047089  0.61071419  0.24782902  1
  Te  Te121  1  0.73187026  0.57398528  0.55192154  1
  Te  Te122  1  0.74516824  0.57819679  0.91339282  1
  Te  Te123  1  0.74843070  0.90201877  0.26252480  1
  Te  Te124  1  0.73488875  0.93251336  0.59451555  1
  Te  Te125  1  0.73924935  0.92057305  0.88242505  1
  Te  Te126  1  0.23458354  0.24071250  0.06058688  1
  Te  Te127  1  0.24954460  0.23890466  0.40921964  1
  Te  Te128  1  0.25413279  0.24126193  0.75568886  1
  Te  Te129  1  0.25228891  0.58549511  0.08226693  1
  Te  Te130  1  0.25579493  0.57453057  0.42404088  1
  Te  Te131  1  0.24213722  0.60086254  0.73261066  1
  Te  Te132  1  0.32564355  0.88711938  0.09707487  1
  Te  Te133  1  0.23395406  0.90361090  0.39572605  1
  Te  Te134  1  0.25051555  0.92574543  0.74762588  1
  Te  Te135  1  0.56722778  0.24259000  0.07202392  1
  Te  Te136  1  0.58215446  0.22330164  0.41607233  1
  Te  Te137  1  0.60485999  0.22958673  0.73916214  1
  Te  Te138  1  0.59005998  0.59088349  0.08318450  1
  Te  Te139  1  0.60125101  0.57834871  0.44318844  1
  Te  Te140  1  0.58938114  0.58393014  0.76067346  1
  Te  Te141  1  0.57944063  0.92012139  0.08985825  1
  Te  Te142  1  0.58278734  0.90143817  0.42319883  1
  Te  Te143  1  0.63232531  0.93076031  0.77188957  1
  Te  Te144  1  0.90664492  0.26588614  0.09967117  1
  Te  Te145  1  0.92879412  0.24392807  0.42195264  1
  Te  Te146  1  0.88945898  0.23621724  0.74608315  1
  Te  Te147  1  0.92347539  0.58061242  0.09547207  1
  Te  Te148  1  0.92551955  0.58938215  0.42881686  1
  Te  Te149  1  0.92241591  0.57196903  0.74640068  1
  Te  Te150  1  0.89539434  0.92830922  0.07232352  1
  Te  Te151  1  0.89561327  0.92655709  0.43418165  1
  Te  Te152  1  0.88920344  0.91620227  0.79358116  1
  Te  Te153  1  0.28769253  0.04537852  0.24893750  1
  Te  Te154  1  0.24565318  0.08326398  0.61452934  1
  Te  Te155  1  0.25643997  0.08579974  0.90655952  1
  Te  Te156  1  0.26212195  0.40723697  0.26920939  1
  Te  Te157  1  0.25313853  0.40329838  0.56995787  1
  Te  Te158  1  0.24821938  0.41762152  0.90276300  1
  Te  Te159  1  0.27314844  0.74488733  0.22889684  1
  Te  Te160  1  0.25259053  0.75299567  0.56961232  1
  Te  Te161  1  0.24913932  0.74009276  0.91744307  1
  Te  Te162  1  0.57749287  0.06488321  0.22596603  1
  Te  Te163  1  0.55220028  0.10705934  0.62342599  1
  Te  Te164  1  0.57913181  0.07715074  0.89244899  1
  Te  Te165  1  0.58511619  0.40661168  0.26172434  1
  Te  Te166  1  0.61554767  0.40531021  0.60841827  1
  Te  Te167  1  0.59210432  0.42074590  0.91507323  1
  Te  Te168  1  0.56008599  0.76689794  0.25013293  1
  Te  Te169  1  0.56891114  0.76596952  0.59418777  1
  Te  Te170  1  0.55416073  0.77569161  0.93069222  1
  Te  Te171  1  0.92007288  0.07963895  0.26342115  1
  Te  Te172  1  0.90362257  0.06101754  0.58982402  1
  Te  Te173  1  0.89823587  0.06904837  0.90125581  1
  Te  Te174  1  0.90920517  0.45692344  0.23654709  1
  Te  Te175  1  0.92547597  0.42303943  0.56678909  1
  Te  Te176  1  0.89538995  0.42866088  0.92298150  1
  Te  Te177  1  0.91588830  0.77614851  0.24705924  1
  Te  Te178  1  0.88936573  0.73951146  0.60424029  1
  Te  Te179  1  0.91643169  0.75337339  0.91110621  1
