# generated using pymatgen
data_In2Te3
_symmetry_space_group_name_H-M   'P 1'
_cell_length_a   18.98390669
_cell_length_b   18.93598160
_cell_length_c   18.95624876
_cell_angle_alpha   90.14855793
_cell_angle_beta   90.02711186
_cell_angle_gamma   90.14210533
_symmetry_Int_Tables_number   1
_chemical_formula_structural   In2Te3
_chemical_formula_sum   'In72 Te108'
_cell_volume   6814.32694847
_cell_formula_units_Z   36
loop_
 _symmetry_equiv_pos_site_id
 _symmetry_equiv_pos_as_xyz
  1  'x, y, z'
loop_
 _atom_site_type_symbol
 _atom_site_label
 _atom_site_symmetry_multiplicity
 _atom_site_fract_x
 _atom_site_fract_y
 _atom_site_fract_z
 _atom_site_occupancy
  In  In0  1  0.66727781  0.85626945  0.83083338  1
  In  In1  1  0.59596876  0.43131280  0.73821785  1
  In  In2  1  0.33023753  0.68747150  0.00320855  1
  In  In3  1  0.02566237  0.30676247  0.59003823  1
  In  In4  1  0.67360597  0.66547012  0.65396116  1
  In  In5  1  0.64186757  0.19138000  0.82120881  1
  In  In6  1  0.17201384  0.02691982  0.81674442  1
  In  In7  1  0.63721420  -0.01285628  0.64659501  1
  In  In8  1  0.64888111  0.34455920  0.33678552  1
  In  In9  1  0.15506556  0.50826716  0.34553187  1
  In  In10  1  0.00605656  0.48142588  0.78755408  1
  In  In11  1  0.32895897  0.01279411  0.17575771  1
  In  In12  1  0.49287257  0.00463709  0.48993196  1
  In  In13  1  0.64091178  0.01434596  0.04415720  1
  In  In14  1  0.67473138  0.68481911  0.34529651  1
  In  In15  1  0.67638515  0.86007344  0.46172945  1
  In  In16  1  -0.01185208  0.52102449  0.19263557  1
  In  In17  1  0.01445848  0.02626849  0.33681969  1
  In  In18  1  0.32867095  0.51906737  0.14278005  1
  In  In19  1  0.01757730  -0.02394718  0.04445661  1
  In  In20  1  0.68115785  0.52614437  0.14219032  1
  In  In21  1  0.50882285  0.51651014  0.00898701  1
  In  In22  1  0.32616347  0.67227862  0.31943060  1
  In  In23  1  0.49791414  0.81507478  0.68096777  1
  In  In24  1  0.01515876  0.83448279  0.84255918  1
  In  In25  1  -0.02341064  0.32400702  -0.01210406  1
  In  In26  1  0.14072858  0.34827897  0.18284355  1
  In  In27  1  0.64920839  0.16627292  0.47596318  1
  In  In28  1  0.83335714  0.50209394  0.35190455  1
  In  In29  1  0.30755053  0.81772849  0.50072410  1
  In  In30  1  0.79242671  0.33184302  0.78978982  1
  In  In31  1  0.65376181  0.34606043  -0.00654432  1
  In  In32  1  0.19490268  0.29983748  0.82667897  1
  In  In33  1  0.65231873  0.50454055  0.52372578  1
  In  In34  1  0.34907432  0.30603673  -0.01719124  1
  In  In35  1  -0.00145766  0.81227976  0.20254654  1
  In  In36  1  0.36344848  0.49536207  0.51565534  1
  In  In37  1  0.32311449  0.31591007  0.33516342  1
  In  In38  1  0.18260605  0.84128240  0.32470360  1
  In  In39  1  0.85255738  -0.01104883  0.48239671  1
  In  In40  1  -0.02608368  0.02786846  0.64985724  1
  In  In41  1  0.85395145  0.85823401  0.03867920  1
  In  In42  1  0.84820943  0.52053591  -0.01853733  1
  In  In43  1  0.01660409  0.67751408  0.01616924  1
  In  In44  1  0.86341185  0.82266397  0.65764879  1
  In  In45  1  0.50614226  0.66585978  0.49559282  1
  In  In46  1  -0.01424359  0.15929464  0.84583947  1
  In  In47  1  0.01018946  0.24689712  0.35618303  1
  In  In48  1  0.50838640  0.67674142  0.85377423  1
  In  In49  1  0.47144964  0.49439656  0.31261636  1
  In  In50  1  0.81604091  0.17342130  0.03835965  1
  In  In51  1  0.79513134  0.17304661  0.63740980  1
  In  In52  1  0.16122733  0.47741851  -0.02610612  1
  In  In53  1  0.63210351  0.13912850  0.21236596  1
  In  In54  1  0.16994623  0.81796735  0.67092711  1
  In  In55  1  0.84530267  0.64729806  0.83558388  1
  In  In56  1  0.34514523  0.86026330  0.87868483  1
  In  In57  1  0.49575191  0.18174613  -0.01081918  1
  In  In58  1  0.20499841  0.14033094  0.02712503  1
  In  In59  1  0.34599431  0.32132029  0.64705759  1
  In  In60  1  0.36609225  0.01361283  0.69032137  1
  In  In61  1  -0.00145426  0.47431641  0.48867602  1
  In  In62  1  0.82524781  0.31322074  0.17837616  1
  In  In63  1  0.16269033  0.48141824  0.65682576  1
  In  In64  1  0.02050923  0.82774890  0.47777049  1
  In  In65  1  0.68817623  0.70934876  0.00556546  1
  In  In66  1  0.17221635  0.65613890  0.82315527  1
  In  In67  1  0.34346695  0.14148956  0.49533742  1
  In  In68  1  0.48800766  0.31109304  0.18796645  1
  In  In69  1  0.17672332  -0.03357557  0.49765656  1
  In  In70  1  0.67501851  0.86171568  0.20494937  1
  In  In71  1  0.82217355  0.01986761  0.84753237  1
  Te  Te72  1  0.09826074  0.08114806  0.10782789  1
  Te  Te73  1  0.08810461  0.08039022  0.45761784  1
  Te  Te74  1  0.07426806  0.10831213  0.73226229  1
  Te  Te75  1  0.05420687  0.42775027  0.07691993  1
  Te  Te76  1  0.08281265  0.38933856  0.39605895  1
  Te  Te77  1  0.08319712  0.36031543  0.73546247  1
  Te  Te78  1  0.08046496  0.79150998  0.08242743  1
  Te  Te79  1  0.14022607  0.75279701  0.43525264  1
  Te  Te80  1  0.06585168  0.73281537  0.74337886  1
  Te  Te81  1  0.42332735  0.08319685  0.07383941  1
  Te  Te82  1  0.44660537  0.10341130  0.38193591  1
  Te  Te83  1  0.40917693  0.13424166  0.76297372  1
  Te  Te84  1  0.42279219  0.40745563  0.08010902  1
  Te  Te85  1  0.42597820  0.39504465  0.41465006  1
  Te  Te86  1  0.44329438  0.41009695  0.71882363  1
  Te  Te87  1  0.40210994  0.79572941  0.07530039  1
  Te  Te88  1  0.41465386  0.75345351  0.41287271  1
  Te  Te89  1  0.40119018  0.75501573  0.77954019  1
  Te  Te90  1  0.75098097  0.07339730  0.13109545  1
  Te  Te91  1  0.73415049  0.05820987  0.41408645  1
  Te  Te92  1  0.72739735  0.07893300  0.74563440  1
  Te  Te93  1  0.77281655  0.41613025  0.07365441  1
  Te  Te94  1  0.74070601  0.41448403  0.43351115  1
  Te  Te95  1  0.74339243  0.45378159  0.73066847  1
  Te  Te96  1  0.76909845  0.76536636  0.12024029  1
  Te  Te97  1  0.77692852  0.77130510  0.40590701  1
  Te  Te98  1  0.75684252  0.76045494  0.75557464  1
  Te  Te99  1  0.12430566  0.22780746  0.26363740  1
  Te  Te100  1  0.12392096  0.20896932  0.53939071  1
  Te  Te101  1  0.08757245  0.24162158  0.92465474  1
  Te  Te102  1  0.10628159  0.59922492  0.23765374  1
  Te  Te103  1  0.07753734  0.56487177  0.57406893  1
  Te  Te104  1  0.05997476  0.57415665  0.90495045  1
  Te  Te105  1  0.12532768  0.96268111  0.25314010  1
  Te  Te106  1  0.06983576  0.91790398  0.60596963  1
  Te  Te107  1  0.09348116  0.94072576  0.91769469  1
  Te  Te108  1  0.37671087  0.22782557  0.22925226  1
  Te  Te109  1  0.43432925  0.22804832  0.57245292  1
  Te  Te110  1  0.43066980  0.24776568  0.87152246  1
  Te  Te111  1  0.42565181  0.60544961  0.22091454  1
  Te  Te112  1  0.42452426  0.60150866  0.59785271  1
  Te  Te113  1  0.40683457  0.58485848  0.92042488  1
  Te  Te114  1  0.36982020  0.86938487  0.21208057  1
  Te  Te115  1  0.41769303  0.90432911  0.58689031  1
  Te  Te116  1  0.39268484  0.98465071  0.94443895  1
  Te  Te117  1  0.73678140  0.23698856  0.27314297  1
  Te  Te118  1  0.70298717  0.26571507  0.57284757  1
  Te  Te119  1  0.75336747  0.24578952  0.92062188  1
  Te  Te120  1  0.75844534  0.59145607  0.25365711  1
  Te  Te121  1  0.75885658  0.60055704  0.55529984  1
  Te  Te122  1  0.73039751  0.59134588  0.91792882  1
  Te  Te123  1  0.72969245  0.97628465  0.28147189  1
  Te  Te124  1  0.76542906  0.92427047  0.59457637  1
  Te  Te125  1  0.75159136  0.92608968  0.94433425  1
  Te  Te126  1  0.23539563  0.27887224  0.07950170  1
  Te  Te127  1  0.24368747  0.23396558  0.43184648  1
  Te  Te128  1  0.27022893  0.21876967  0.72837294  1
  Te  Te129  1  0.22421228  0.58711256  0.05874937  1
  Te  Te130  1  0.27023654  0.57313337  0.41902693  1
  Te  Te131  1  0.24909794  0.55604958  0.75056669  1
  Te  Te132  1  0.28351297  0.90129822  0.08488194  1
  Te  Te133  1  0.29170766  0.93504384  0.40089312  1
  Te  Te134  1  0.25670310  0.91360779  0.75489199  1
  Te  Te135  1  0.59831799  0.24676067  0.09514406  1
  Te  Te136  1  0.55473614  0.24263874  0.38936250  1
  Te  Te137  1  0.58510398  0.27959299  0.72090493  1
  Te  Te138  1  0.58333149  0.62513464  0.08331177  1
  Te  Te139  1  0.57377399  0.56687073  0.39894279  1
  Te  Te140  1  0.58163770  0.59899030  0.74938934  1
  Te  Te141  1  0.57010233  0.90603056  0.10933887  1
  Te  Te142  1  0.55938021  0.91598838  0.38866082  1
  Te  Te143  1  0.55509788  0.93255588  0.76289718  1
  Te  Te144  1  0.93675514  0.23712932  0.10643252  1
  Te  Te145  1  0.92383516  0.28562885  0.47425735  1
  Te  Te146  1  0.89092074  0.22733101  0.74595564  1
  Te  Te147  1  0.90828111  0.60473623  0.09259557  1
  Te  Te148  1  0.94369788  0.58826716  0.40426327  1
  Te  Te149  1  0.91054827  0.57505058  0.72704066  1
  Te  Te150  1  0.91980158  0.93407598  0.15287759  1
  Te  Te151  1  0.93144681  0.90615232  0.38400101  1
  Te  Te152  1  0.91678781  0.93207124  0.76694079  1
  Te  Te153  1  0.24559492  0.04915880  0.29409865  1
  Te  Te154  1  0.26075451  0.05585531  0.59147898  1
  Te  Te155  1  0.27726995  0.08511087  0.90960983  1
  Te  Te156  1  0.25869051  0.43260633  0.24582080  1
  Te  Te157  1  0.25054971  0.40416888  0.56097320  1
  Te  Te158  1  0.27239305  0.41067835  0.89680432  1
  Te  Te159  1  0.24237736  0.74856478  0.22440418  1
  Te  Te160  1  0.25838489  0.72445321  0.60213369  1
  Te  Te161  1  0.23009389  0.76138581  0.91524981  1
  Te  Te162  1  0.54209098  0.04083456  0.27737486  1
  Te  Te163  1  0.55927131  0.10048014  0.58911540  1
  Te  Te164  1  0.59198540  0.08420959  0.92079587  1
  Te  Te165  1  0.59034845  0.43098121  0.22088680  1
  Te  Te166  1  0.54228242  0.43403107  0.59395271  1
  Te  Te167  1  0.57154458  0.42883821  0.90461579  1
  Te  Te168  1  0.58176352  0.76298845  0.26491662  1
  Te  Te169  1  0.59793239  0.77477596  0.57033798  1
  Te  Te170  1  0.57797003  0.78635394  0.93209899  1
  Te  Te171  1  0.92335932  0.13703187  0.30613375  1
  Te  Te172  1  0.90557472  0.11601228  0.54814943  1
  Te  Te173  1  0.91324055  0.07997988  0.95528435  1
  Te  Te174  1  0.91265236  0.40779941  0.26080154  1
  Te  Te175  1  0.90969190  0.39839849  0.58503481  1
  Te  Te176  1  0.90217943  0.41095660  0.88798183  1
  Te  Te177  1  0.97645810  0.69374447  0.28432884  1
  Te  Te178  1  0.92641321  0.74284436  0.55418892  1
  Te  Te179  1  0.90942475  0.76115030  0.92670519  1
