# generated using pymatgen
data_In2Te3
_symmetry_space_group_name_H-M   'P 1'
_cell_length_a   18.90357913
_cell_length_b   18.91683858
_cell_length_c   18.92132167
_cell_angle_alpha   90.07026570
_cell_angle_beta   89.98592942
_cell_angle_gamma   89.98097962
_symmetry_Int_Tables_number   1
_chemical_formula_structural   In2Te3
_chemical_formula_sum   'In72 Te108'
_cell_volume   6766.18242498
_cell_formula_units_Z   36
loop_
 _symmetry_equiv_pos_site_id
 _symmetry_equiv_pos_as_xyz
  1  'x, y, z'
loop_
 _atom_site_type_symbol
 _atom_site_label
 _atom_site_symmetry_multiplicity
 _atom_site_fract_x
 _atom_site_fract_y
 _atom_site_fract_z
 _atom_site_occupancy
  In  In0  1  0.33333953  0.33371304  -0.01107996  1
  In  In1  1  0.66130425  0.18206941  0.16120531  1
  In  In2  1  0.50506272  0.32700869  0.51311082  1
  In  In3  1  0.67233622  0.02288053  0.66626308  1
  In  In4  1  0.68167175  0.67358749  0.30493164  1
  In  In5  1  0.84315128  0.82124941  0.67951950  1
  In  In6  1  0.18484115  0.03745421  0.48753580  1
  In  In7  1  0.31755915  0.18610595  0.81684754  1
  In  In8  1  0.52063516  0.03281305  0.82525218  1
  In  In9  1  0.49704256  0.32275757  0.16322326  1
  In  In10  1  0.34658168  0.18054975  0.49785930  1
  In  In11  1  0.15226700  0.00376392  0.16070435  1
  In  In12  1  -0.01832114  0.01043127  0.00240097  1
  In  In13  1  0.33774951  0.81320978  0.19036533  1
  In  In14  1  0.32223690  0.83545423  0.48379631  1
  In  In15  1  0.18386388  0.67385770  0.49178616  1
  In  In16  1  0.15308338  0.02080051  0.83643286  1
  In  In17  1  0.85834109  0.18416776  0.70633268  1
  In  In18  1  0.82815605  -0.00286147  0.48281210  1
  In  In19  1  -0.00663298  0.00123234  0.66940477  1
  In  In20  1  0.16090522  0.48964278  -0.00736654  1
  In  In21  1  0.67235714  0.50647200  0.13999150  1
  In  In22  1  0.66223494  0.34182451  0.68118079  1
  In  In23  1  0.32582396  0.49491206  0.51711330  1
  In  In24  1  0.68084594  0.33780979  0.34234910  1
  In  In25  1  0.30203393  0.00485156  0.65031991  1
  In  In26  1  0.00621980  0.17329339  0.48951155  1
  In  In27  1  0.14050010  0.34990109  0.16645208  1
  In  In28  1  0.34388113  0.62916171  0.67806063  1
  In  In29  1  0.85592321  0.35987221  0.19030198  1
  In  In30  1  0.14297339  0.83149918  0.31619828  1
  In  In31  1  0.54961573  0.68822888  0.49592673  1
  In  In32  1  -0.01128348  0.49422469  0.50987651  1
  In  In33  1  0.52119274  0.83983703  -0.01617900  1
  In  In34  1  -0.00883688  0.14144688  0.16869535  1
  In  In35  1  0.69602072  0.80178169  0.48417138  1
  In  In36  1  0.69319346  0.84884285  0.82839234  1
  In  In37  1  0.50286811  0.64571795  0.83141498  1
  In  In38  1  0.34617388  0.64789557  -0.00439882  1
  In  In39  1  0.69426940  0.49318379  0.84546666  1
  In  In40  1  0.32114575  0.19092104  0.16002230  1
  In  In41  1  0.47980004  0.84609090  0.63004317  1
  In  In42  1  0.14852872  0.48833484  0.35157757  1
  In  In43  1  0.70319083  -0.00131228  -0.02538930  1
  In  In44  1  0.66345347  0.00073716  0.31883040  1
  In  In45  1  0.84104116  0.31938964  0.48916850  1
  In  In46  1  0.85593128  0.65788017  0.86044503  1
  In  In47  1  0.68147443  0.18182058  0.83172218  1
  In  In48  1  0.33228415  0.01568978  0.02838887  1
  In  In49  1  -0.01406104  0.84192239  0.52820707  1
  In  In50  1  0.01019147  0.32740589  -0.02332908  1
  In  In51  1  0.47734291  0.50078908  0.32131791  1
  In  In52  1  0.66526167  0.17099506  0.50069356  1
  In  In53  1  0.00261748  0.65946559  0.66845126  1
  In  In54  1  0.14371218  0.82105111  0.67629436  1
  In  In55  1  0.83644093  0.17205251  -0.01298513  1
  In  In56  1  -0.00445413  0.65772826  0.01118163  1
  In  In57  1  0.84589389  0.65531316  0.15705048  1
  In  In58  1  0.15909830  0.48506838  0.70058132  1
  In  In59  1  0.49599691  -0.00002519  0.16263388  1
  In  In60  1  0.50713461  0.47822448  0.66120482  1
  In  In61  1  -0.01390624  0.63463028  0.33799857  1
  In  In62  1  0.13863079  0.81396812  0.01817346  1
  In  In63  1  0.14871996  0.35202824  0.51397266  1
  In  In64  1  0.49793031  0.85928039  0.36059786  1
  In  In65  1  0.16728460  0.16856784  0.33879940  1
  In  In66  1  0.69992829  0.81913508  0.15631765  1
  In  In67  1  -0.01498107  0.48536088  0.84340789  1
  In  In68  1  0.34035499  0.83011780  0.85421106  1
  In  In69  1  0.50578703  0.34281806  0.82820902  1
  In  In70  1  0.52930084  0.65717138  0.16355723  1
  In  In71  1  0.31622939  0.48484200  0.16359683  1
  Te  Te72  1  0.09172248  0.10014711  0.06295978  1
  Te  Te73  1  0.06711249  0.06844834  0.39532547  1
  Te  Te74  1  0.09174387  0.09471730  0.72618466  1
  Te  Te75  1  0.04923390  0.43690051  0.08060484  1
  Te  Te76  1  0.04141796  0.39005633  0.39930880  1
  Te  Te77  1  0.04254393  0.39782322  0.73471732  1
  Te  Te78  1  0.06397752  0.73731735  0.11624031  1
  Te  Te79  1  0.06932053  0.74972431  0.43103866  1
  Te  Te80  1  0.05554443  0.75262618  0.77109201  1
  Te  Te81  1  0.43244832  0.11368540  0.08361501  1
  Te  Te82  1  0.40034135  0.06212982  0.43415199  1
  Te  Te83  1  0.40123960  0.07680705  0.74408091  1
  Te  Te84  1  0.42147093  0.42311912  0.07461757  1
  Te  Te85  1  0.41124402  0.41064450  0.42365846  1
  Te  Te86  1  0.40762374  0.42904841  0.75756625  1
  Te  Te87  1  0.42910429  0.75900592  0.07315514  1
  Te  Te88  1  0.42168416  0.74317988  0.41924418  1
  Te  Te89  1  0.41652743  0.75300092  0.74769551  1
  Te  Te90  1  0.75611586  0.08548743  0.08770727  1
  Te  Te91  1  0.75202220  0.09761624  0.39884601  1
  Te  Te92  1  0.77021213  0.07144225  0.77057254  1
  Te  Te93  1  0.74328400  0.38350029  0.09524474  1
  Te  Te94  1  0.76601971  0.42786895  0.42202525  1
  Te  Te95  1  0.76989566  0.42155614  0.73971967  1
  Te  Te96  1  0.73669054  0.70762438  0.06762481  1
  Te  Te97  1  0.78159331  0.76873352  0.36676503  1
  Te  Te98  1  0.75867638  0.72824596  0.76264584  1
  Te  Te99  1  0.07086625  0.24377717  0.24953490  1
  Te  Te100  1  0.06553250  0.25935228  0.59274382  1
  Te  Te101  1  0.07726247  0.23066511  0.88423298  1
  Te  Te102  1  0.08171549  0.56806333  0.24814801  1
  Te  Te103  1  0.10408544  0.57714404  0.57899668  1
  Te  Te104  1  0.08082564  0.58450875  0.90598241  1
  Te  Te105  1  0.05432151  0.91174461  0.22530400  1
  Te  Te106  1  0.10883769  0.92838353  0.57438712  1
  Te  Te107  1  0.08168914  0.92016054  0.92659724  1
  Te  Te108  1  0.40861890  0.25456792  0.25844020  1
  Te  Te109  1  0.41666242  0.25446427  0.60382846  1
  Te  Te110  1  0.42419268  0.24162120  0.91080741  1
  Te  Te111  1  0.40592049  0.59553170  0.22696737  1
  Te  Te112  1  0.44008601  0.58895242  0.56704705  1
  Te  Te113  1  0.40311862  0.55724908  0.89345798  1
  Te  Te114  1  0.40440459  0.93020279  0.26141671  1
  Te  Te115  1  0.40788505  0.95694031  0.54640242  1
  Te  Te116  1  0.42450231  0.94102117  0.92115432  1
  Te  Te117  1  0.76405389  0.24947243  0.25086562  1
  Te  Te118  1  0.75511199  0.23978810  0.60478803  1
  Te  Te119  1  0.77233911  0.27674009  0.90104660  1
  Te  Te120  1  0.76466001  0.56131518  0.24707824  1
  Te  Te121  1  0.69299174  0.66048828  0.54135935  1
  Te  Te122  1  0.75788146  0.58518812  0.94590805  1
  Te  Te123  1  0.76371575  0.91119791  0.25380128  1
  Te  Te124  1  0.75570163  0.91423684  0.59370980  1
  Te  Te125  1  0.78960442  0.88476171  0.93609213  1
  Te  Te126  1  0.22374706  0.26529101  0.07025835  1
  Te  Te127  1  0.24041416  0.26750254  0.42611835  1
  Te  Te128  1  0.20316013  0.27857398  0.80287803  1
  Te  Te129  1  0.23684114  0.58571029  0.08226753  1
  Te  Te130  1  0.26262334  0.57807171  0.40651611  1
  Te  Te131  1  0.23178508  0.59568274  0.76470717  1
  Te  Te132  1  0.25366233  0.90091077  0.08872465  1
  Te  Te133  1  0.23612118  0.92287226  0.39701038  1
  Te  Te134  1  0.24609505  0.90965221  0.76281900  1
  Te  Te135  1  0.60549081  0.28352823  0.06731242  1
  Te  Te136  1  0.57536216  0.24694580  0.40444488  1
  Te  Te137  1  0.57262501  0.23570369  0.74079037  1
  Te  Te138  1  0.57274189  0.57230005  0.05350063  1
  Te  Te139  1  0.58633226  0.58577403  0.38537679  1
  Te  Te140  1  0.59767436  0.56487281  0.74554030  1
  Te  Te141  1  0.60249746  0.92499168  0.08087646  1
  Te  Te142  1  0.60647961  0.92385671  0.43994422  1
  Te  Te143  1  0.57779638  0.91851837  0.74502609  1
  Te  Te144  1  0.92357080  0.25447681  0.08767639  1
  Te  Te145  1  0.90628726  0.22572103  0.39595744  1
  Te  Te146  1  0.95766712  0.25862149  0.78832772  1
  Te  Te147  1  0.91377826  0.55149268  0.07521915  1
  Te  Te148  1  0.89108773  0.57187050  0.43220428  1
  Te  Te149  1  0.90529525  0.57091227  0.74273619  1
  Te  Te150  1  0.92746326  0.93580943  0.11893824  1
  Te  Te151  1  0.93030938  0.91712515  0.41540726  1
  Te  Te152  1  0.94398878  0.89483206  0.75826027  1
  Te  Te153  1  0.25113041  0.08381541  0.24426023  1
  Te  Te154  1  0.23327633  0.12812556  0.59899236  1
  Te  Te155  1  0.25493971  0.09242074  0.92454659  1
  Te  Te156  1  0.24507065  0.39971255  0.26458672  1
  Te  Te157  1  0.25456482  0.40288835  0.61276835  1
  Te  Te158  1  0.23844492  0.40510703  0.89683077  1
  Te  Te159  1  0.23756429  0.73395743  0.26039280  1
  Te  Te160  1  0.26196914  0.75155028  0.59899579  1
  Te  Te161  1  0.24531570  0.74221885  0.92844275  1
  Te  Te162  1  0.56886115  0.09945121  0.25172988  1
  Te  Te163  1  0.57356971  0.09385183  0.58613723  1
  Te  Te164  1  0.59812010  0.10155667  0.93410144  1
  Te  Te165  1  0.58533966  0.42179271  0.24725507  1
  Te  Te166  1  0.61077295  0.42383087  0.56270633  1
  Te  Te167  1  0.60146941  0.40514245  0.92059382  1
  Te  Te168  1  0.57377982  0.77748558  0.24943444  1
  Te  Te169  1  0.59277657  0.74604010  0.63095126  1
  Te  Te170  1  0.59774269  0.74538757  0.89757282  1
  Te  Te171  1  0.89095541  0.04451455  0.21704225  1
  Te  Te172  1  0.90076377  0.08887655  0.58535700  1
  Te  Te173  1  0.90939797  0.08187067  0.89472076  1
  Te  Te174  1  0.95982699  0.42520472  0.27121528  1
  Te  Te175  1  0.92572992  0.38782201  0.59163317  1
  Te  Te176  1  0.89079371  0.39630759  0.91801961  1
  Te  Te177  1  0.90858180  0.73937729  0.26405463  1
  Te  Te178  1  0.90033181  0.72574499  0.57562078  1
  Te  Te179  1  0.91412995  0.76488971  0.94555786  1
