# generated using pymatgen
data_In2Te3
_symmetry_space_group_name_H-M   'P 1'
_cell_length_a   18.75724505
_cell_length_b   18.76115858
_cell_length_c   18.75588684
_cell_angle_alpha   90.00741142
_cell_angle_beta   89.98277430
_cell_angle_gamma   89.99725700
_symmetry_Int_Tables_number   1
_chemical_formula_structural   In2Te3
_chemical_formula_sum   'In72 Te108'
_cell_volume   6600.33968294
_cell_formula_units_Z   36
loop_
 _symmetry_equiv_pos_site_id
 _symmetry_equiv_pos_as_xyz
  1  'x, y, z'
loop_
 _atom_site_type_symbol
 _atom_site_label
 _atom_site_symmetry_multiplicity
 _atom_site_fract_x
 _atom_site_fract_y
 _atom_site_fract_z
 _atom_site_occupancy
  In  In0  1  0.67688800  0.16658192  0.17016733  1
  In  In1  1  0.18306220  0.16815042  0.33659974  1
  In  In2  1  0.49599912  0.17843731  0.64237579  1
  In  In3  1  0.85243918  0.49019961  0.68317696  1
  In  In4  1  0.47365534  -0.02310066  0.19220159  1
  In  In5  1  0.17979351  0.35102105  0.17879827  1
  In  In6  1  0.47050336  0.65683514  0.20661039  1
  In  In7  1  0.32754697  0.83414250  0.48976763  1
  In  In8  1  0.16327615  -0.01585719  0.19276757  1
  In  In9  1  0.64751370  -0.00530333  0.03238255  1
  In  In10  1  0.16658795  0.50146192  0.33182107  1
  In  In11  1  0.50833733  0.50714615  -0.00011635  1
  In  In12  1  0.17096436  0.15890411  -0.00769278  1
  In  In13  1  -0.00655968  0.50219687  0.17922360  1
  In  In14  1  0.00406480  0.83458167  0.83922869  1
  In  In15  1  0.66135624  0.51974220  0.49004873  1
  In  In16  1  0.33254625  0.47574557  0.83719760  1
  In  In17  1  0.84487288  0.16514978  0.64216913  1
  In  In18  1  0.33980755  0.32188976  0.00549520  1
  In  In19  1  0.67277190  0.36459945  0.00337386  1
  In  In20  1  0.86061106  0.85534007  0.04111699  1
  In  In21  1  0.85778355  0.68727421  0.18324608  1
  In  In22  1  0.15059834  0.49778969  0.62856581  1
  In  In23  1  -0.01845274  0.49676344  0.80368465  1
  In  In24  1  0.85030582  0.13832212  -0.00546021  1
  In  In25  1  0.67081217  0.48772747  0.81410183  1
  In  In26  1  0.50869244  -0.00065346  0.47078327  1
  In  In27  1  0.48155337  -0.01870668  0.85157299  1
  In  In28  1  0.85319989  0.64554279  0.81720404  1
  In  In29  1  0.15270779  0.13813791  0.69173671  1
  In  In30  1  0.01232318  0.71767090  0.33510384  1
  In  In31  1  0.33754972  0.67036367  0.02503561  1
  In  In32  1  0.82735276  0.32482515  0.50066415  1
  In  In33  1  0.02967282  0.69121576  0.00451722  1
  In  In34  1  0.31173699  0.00883658  0.66659261  1
  In  In35  1  0.64204118  0.48572908  0.17867022  1
  In  In36  1  0.18339835  0.71798562  0.17321713  1
  In  In37  1  0.48499847  0.16815971  0.34401205  1
  In  In38  1  0.49875061  0.68673246  0.48834194  1
  In  In39  1  0.84203777  0.82618262  0.63988338  1
  In  In40  1  0.18314371  0.84799195  0.64067636  1
  In  In41  1  0.33487124  0.85534769  0.83171339  1
  In  In42  1  0.01077770  0.30079738  0.01070008  1
  In  In43  1  0.19384687  0.51860304  0.00069485  1
  In  In44  1  0.85152108  -0.00781635  0.84706824  1
  In  In45  1  0.50833330  0.81709705  0.66127157  1
  In  In46  1  0.31322878  0.69617563  0.65378195  1
  In  In47  1  0.66353433  0.81967788  0.84824750  1
  In  In48  1  0.68949646  -0.01471027  0.33100767  1
  In  In49  1  0.49366651  0.32982502  0.49098193  1
  In  In50  1  0.67002537  0.70416494  -0.00375913  1
  In  In51  1  -0.00625174  0.33010615  0.66178364  1
  In  In52  1  0.31701080  0.16813185  0.83704173  1
  In  In53  1  0.85076699  0.68391170  0.48288311  1
  In  In54  1  0.00397613  0.15556619  0.19005262  1
  In  In55  1  0.49148906  0.49495204  0.67995694  1
  In  In56  1  -0.00066919  0.14683121  0.49563914  1
  In  In57  1  0.66572868  0.68017650  0.33417448  1
  In  In58  1  0.83920906  0.31627805  0.82820401  1
  In  In59  1  0.17787794  0.33507047  0.47909639  1
  In  In60  1  0.16924032  0.66691400  0.81961778  1
  In  In61  1  0.33049624  0.50591050  0.47977682  1
  In  In62  1  0.84293244  0.49777782  0.33578660  1
  In  In63  1  0.16019785  0.84483225  0.02213569  1
  In  In64  1  0.81258951  0.49125084  0.01886305  1
  In  In65  1  0.49184842  0.32071896  0.18118052  1
  In  In66  1  0.65602868  0.17639385  0.81102630  1
  In  In67  1  0.65119906  0.65727047  0.65302178  1
  In  In68  1  0.16717023  -0.01025895  0.48296048  1
  In  In69  1  0.83606644  0.14550707  0.32695715  1
  In  In70  1  0.47966979  0.14226322  0.02148071  1
  In  In71  1  0.68418999  -0.01167473  0.64265227  1
  Te  Te72  1  0.08558952  0.07492424  0.09031086  1
  Te  Te73  1  0.07552057  0.07030990  0.38790320  1
  Te  Te74  1  0.04956913  0.07945450  0.77698195  1
  Te  Te75  1  0.08282725  0.42624770  0.07735683  1
  Te  Te76  1  0.07583881  0.42152497  0.41649294  1
  Te  Te77  1  0.09367836  0.41128140  0.74479274  1
  Te  Te78  1  0.05535895  0.78596142  0.11970745  1
  Te  Te79  1  0.08124843  0.77783309  0.45269396  1
  Te  Te80  1  0.08922867  0.76128225  0.73470676  1
  Te  Te81  1  0.38583585  0.06400927  0.10381560  1
  Te  Te82  1  0.39520826  0.07602351  0.41909060  1
  Te  Te83  1  0.42504503  0.07701805  0.74582407  1
  Te  Te84  1  0.41744766  0.42368322  0.08877819  1
  Te  Te85  1  0.42729949  0.42796013  0.39742451  1
  Te  Te86  1  0.40918731  0.39047707  0.74468401  1
  Te  Te87  1  0.42045143  0.75783263  0.10873401  1
  Te  Te88  1  0.40795221  0.75370693  0.38942617  1
  Te  Te89  1  0.41348021  0.74625339  0.75848157  1
  Te  Te90  1  0.76574646  0.06391997  0.10022162  1
  Te  Te91  1  0.76173195  0.06932547  0.43178008  1
  Te  Te92  1  0.75791277  0.07559265  0.75431973  1
  Te  Te93  1  0.75829363  0.39703449  0.12543474  1
  Te  Te94  1  0.73894206  0.41515372  0.41037383  1
  Te  Te95  1  0.74749847  0.38693966  0.72832500  1
  Te  Te96  1  0.74867803  0.77438375  0.10858745  1
  Te  Te97  1  0.75725229  0.77235332  0.40809441  1
  Te  Te98  1  0.75069158  0.74791333  0.74277512  1
  Te  Te99  1  0.08566385  0.26412605  0.26222038  1
  Te  Te100  1  0.08783505  0.24316608  0.57779887  1
  Te  Te101  1  0.09432982  0.25037596  0.90197171  1
  Te  Te102  1  0.08324205  0.61023440  0.23900240  1
  Te  Te103  1  0.05324720  0.59494914  0.58228496  1
  Te  Te104  1  0.07574263  0.57795244  0.90478404  1
  Te  Te105  1  0.08165741  0.89565333  0.29317792  1
  Te  Te106  1  0.07567950  0.93401202  0.58571393  1
  Te  Te107  1  0.07487410  0.92571400  0.93146894  1
  Te  Te108  1  0.39147054  0.23435239  0.24668271  1
  Te  Te109  1  0.39262661  0.24410754  0.56012942  1
  Te  Te110  1  0.42983719  0.23972648  0.91406579  1
  Te  Te111  1  0.37921334  0.55312608  0.25795576  1
  Te  Te112  1  0.41891847  0.59926821  0.58606870  1
  Te  Te113  1  0.40587761  0.58410530  0.91626476  1
  Te  Te114  1  0.38581747  0.89250355  0.28115989  1
  Te  Te115  1  0.41307095  0.91408593  0.59098813  1
  Te  Te116  1  0.39949464  0.91232841  0.95229787  1
  Te  Te117  1  0.74154761  0.24827928  0.27345310  1
  Te  Te118  1  0.73599773  0.24741368  0.58750260  1
  Te  Te119  1  0.74841005  0.24438683  0.92966339  1
  Te  Te120  1  0.75534915  0.58539055  0.24083816  1
  Te  Te121  1  0.76781503  0.58553256  0.58240096  1
  Te  Te122  1  0.74197113  0.58302444  0.91387782  1
  Te  Te123  1  0.76257661  0.89260875  0.24016109  1
  Te  Te124  1  0.77228970  0.91916046  0.54453380  1
  Te  Te125  1  0.74956826  0.91567785  0.93281367  1
  Te  Te126  1  0.24931209  0.24185198  0.09765386  1
  Te  Te127  1  0.28072523  0.26121521  0.40144535  1
  Te  Te128  1  0.24696240  0.24405174  0.73261146  1
  Te  Te129  1  0.25313589  0.58627353  0.12195457  1
  Te  Te130  1  0.24381920  0.60339583  0.40874737  1
  Te  Te131  1  0.25421209  0.57339648  0.73482826  1
  Te  Te132  1  0.26289075  0.91621753  0.10125231  1
  Te  Te133  1  0.25490017  0.91608857  0.38183791  1
  Te  Te134  1  0.22276315  0.93253156  0.76487172  1
  Te  Te135  1  0.58412516  0.25154770  0.07226984  1
  Te  Te136  1  0.58969072  0.24582950  0.41364858  1
  Te  Te137  1  0.56834740  0.26814366  0.73762810  1
  Te  Te138  1  0.59335931  0.59901933  0.08722735  1
  Te  Te139  1  0.56161764  0.58248380  0.39508923  1
  Te  Te140  1  0.57226920  0.59647619  0.76683085  1
  Te  Te141  1  0.56310372  0.89669104  0.10184660  1
  Te  Te142  1  0.58106341  0.90010621  0.39056249  1
  Te  Te143  1  0.58809611  0.92059499  0.74533037  1
  Te  Te144  1  0.90695326  0.23699650  0.09946543  1
  Te  Te145  1  0.92232329  0.24666032  0.41025952  1
  Te  Te146  1  0.93425153  0.22318066  0.75559253  1
  Te  Te147  1  0.91873694  0.59278581  0.06920923  1
  Te  Te148  1  0.94196743  0.59275966  0.40183499  1
  Te  Te149  1  0.95287995  0.61629775  0.70017737  1
  Te  Te150  1  0.93030932  0.96467485  0.10971403  1
  Te  Te151  1  0.95886468  0.91551506  0.37387820  1
  Te  Te152  1  0.92311950  0.91582756  0.73592974  1
  Te  Te153  1  0.26451402  0.08637888  0.24128212  1
  Te  Te154  1  0.24181995  0.09552760  0.56560487  1
  Te  Te155  1  0.25836412  0.06261372  0.92092466  1
  Te  Te156  1  0.28089274  0.42888941  0.26099149  1
  Te  Te157  1  0.26652026  0.41126490  0.58121683  1
  Te  Te158  1  0.23355790  0.39406771  0.92018775  1
  Te  Te159  1  0.27079386  0.78375535  0.27424815  1
  Te  Te160  1  0.21746183  0.72958312  0.53841962  1
  Te  Te161  1  0.24322155  0.74781905  0.92490653  1
  Te  Te162  1  0.57970276  0.07739010  0.24703494  1
  Te  Te163  1  0.59287447  0.08436948  0.56651242  1
  Te  Te164  1  0.58981314  0.08074785  0.91667893  1
  Te  Te165  1  0.57279012  0.40112864  0.27722558  1
  Te  Te166  1  0.58478758  0.42552484  0.58149433  1
  Te  Te167  1  0.56975654  0.40926366  0.89949839  1
  Te  Te168  1  0.57190854  0.75809855  0.24979715  1
  Te  Te169  1  0.60904898  0.76865092  0.55693914  1
  Te  Te170  1  0.55266826  0.75936474  0.92453124  1
  Te  Te171  1  0.91820241  0.04198055  0.24827934  1
  Te  Te172  1  0.90907730  0.05358811  0.56861668  1
  Te  Te173  1  0.96074778  0.08021911  0.90806056  1
  Te  Te174  1  0.92254006  0.40008099  0.25672497  1
  Te  Te175  1  0.92561278  0.42508624  0.56451423  1
  Te  Te176  1  0.91151359  0.41525163  0.92011269  1
  Te  Te177  1  0.88657993  0.80442270  0.28169243  1
  Te  Te178  1  0.95290979  0.78112366  0.54404145  1
  Te  Te179  1  0.90123610  0.75068697  0.92417219  1
