# generated using pymatgen
data_In2Te3
_symmetry_space_group_name_H-M   'P 1'
_cell_length_a   18.91796130
_cell_length_b   18.91663851
_cell_length_c   18.93287734
_cell_angle_alpha   89.88725930
_cell_angle_beta   90.05426714
_cell_angle_gamma   89.98268233
_symmetry_Int_Tables_number   1
_chemical_formula_structural   In2Te3
_chemical_formula_sum   'In72 Te108'
_cell_volume   6775.38320327
_cell_formula_units_Z   36
loop_
 _symmetry_equiv_pos_site_id
 _symmetry_equiv_pos_as_xyz
  1  'x, y, z'
loop_
 _atom_site_type_symbol
 _atom_site_label
 _atom_site_symmetry_multiplicity
 _atom_site_fract_x
 _atom_site_fract_y
 _atom_site_fract_z
 _atom_site_occupancy
  In  In0  1  0.32724480  0.67462263  -0.01623909  1
  In  In1  1  0.52204459  0.62775827  0.14793469  1
  In  In2  1  0.83606450  0.82423377  0.34048873  1
  In  In3  1  0.50356819  0.82345948  -0.00746368  1
  In  In4  1  0.47303507  0.32827040  0.84043230  1
  In  In5  1  0.49121757  0.48451802  0.66234837  1
  In  In6  1  0.75589553  0.52980772  0.00322697  1
  In  In7  1  0.82090281  0.84624509  -0.02690249  1
  In  In8  1  0.17490554  0.49104854  -0.00615708  1
  In  In9  1  0.80273716  -0.00983009  0.83025157  1
  In  In10  1  0.66673697  0.49173446  0.81723893  1
  In  In11  1  0.49522461  0.67981015  0.82722443  1
  In  In12  1  0.16747876  0.84651974  0.33486049  1
  In  In13  1  0.52718221  0.68974244  0.54055649  1
  In  In14  1  0.64565779  0.32265320  0.00272857  1
  In  In15  1  0.31915039  0.84607000  0.14496422  1
  In  In16  1  0.83002637  0.83265810  0.67834311  1
  In  In17  1  0.47709753  0.34363926  0.49609177  1
  In  In18  1  0.49510923  0.33021666  0.16670670  1
  In  In19  1  0.17637550  0.01385670  0.15665390  1
  In  In20  1  0.81130959  0.31403100  0.19552936  1
  In  In21  1  0.31946266  0.81858428  0.82920445  1
  In  In22  1  0.00416865  -0.03570593  -0.03624639  1
  In  In23  1  0.63913015  0.30038944  0.33179455  1
  In  In24  1  0.01836251  0.15958520  0.18709125  1
  In  In25  1  0.01097774  0.51793022  0.15165303  1
  In  In26  1  0.14847773  0.64785430  0.14484859  1
  In  In27  1  0.33282357  0.33830600  0.01565136  1
  In  In28  1  -0.01703883  0.69410875  -0.01245286  1
  In  In29  1  0.15700567  0.83376620  0.68602389  1
  In  In30  1  0.68460614  0.67019639  0.32913785  1
  In  In31  1  0.83300905  0.68309548  0.16814217  1
  In  In32  1  0.83171438  0.49669219  0.33337610  1
  In  In33  1  0.65658820  0.16349130  0.84376626  1
  In  In34  1  0.38164890  0.02894077  0.34773454  1
  In  In35  1  0.30776441  0.18338378  0.83712047  1
  In  In36  1  0.31619425  0.32951534  0.67810012  1
  In  In37  1  0.84932554  0.50131448  0.66295681  1
  In  In38  1  0.20331056  0.19119326  0.37160616  1
  In  In39  1  0.82198675  0.69299041  0.51611114  1
  In  In40  1  0.00083452  0.17230000  0.50484950  1
  In  In41  1  0.02446942  0.32920603  0.01073075  1
  In  In42  1  0.67797926  -0.01143807  0.68335252  1
  In  In43  1  0.82203129  -0.00211499  0.15089849  1
  In  In44  1  0.34909751  0.67084782  0.32705873  1
  In  In45  1  0.00421761  0.52575282  0.49295520  1
  In  In46  1  0.51079139  -0.01364612  0.81552223  1
  In  In47  1  -0.00357746  -0.00588190  0.32361752  1
  In  In48  1  0.34183485  0.01608369  0.64357659  1
  In  In49  1  0.82537507  0.16455753  0.01121347  1
  In  In50  1  0.18591893  0.48040990  0.31514631  1
  In  In51  1  0.16971279  0.16767874  -0.00203445  1
  In  In52  1  0.78509514  0.07869793  0.52301734  1
  In  In53  1  0.35413419  0.16762927  0.17322036  1
  In  In54  1  0.50423060  0.02156066  0.19185722  1
  In  In55  1  0.50071661  0.48263057  0.34139919  1
  In  In56  1  0.82099610  0.28958226  0.51767367  1
  In  In57  1  0.02073288  0.84665308  0.52037964  1
  In  In58  1  -0.00028197  0.51078814  0.83115953  1
  In  In59  1  0.53312125  0.87260647  0.34476551  1
  In  In60  1  0.68029401  0.49291130  0.49754954  1
  In  In61  1  0.86196776  0.34706547  0.82149897  1
  In  In62  1  0.52857322  0.16156713  0.66830710  1
  In  In63  1  -0.00315843  0.33134166  0.35938458  1
  In  In64  1  0.33687927  0.65020423  0.65994363  1
  In  In65  1  0.01886982  0.34063191  0.64721553  1
  In  In66  1  0.18667715  0.49829222  0.66477292  1
  In  In67  1  0.16899714  0.65348050  0.49701360  1
  In  In68  1  0.16971946  -0.00487685  0.51907057  1
  In  In69  1  0.01375437  0.13639574  0.80626794  1
  In  In70  1  0.35716500  0.84100330  0.50826065  1
  In  In71  1  0.66604160  0.82459013  0.16101496  1
  Te  Te72  1  0.05907632  0.07461733  0.06807223  1
  Te  Te73  1  0.08805100  0.07710412  0.41118426  1
  Te  Te74  1  0.11155115  0.05154168  0.74017089  1
  Te  Te75  1  0.10997007  0.40443450  0.11507868  1
  Te  Te76  1  0.09427643  0.42330665  0.42887475  1
  Te  Te77  1  0.09190266  0.41786141  0.75511116  1
  Te  Te78  1  0.07119802  0.75689579  0.08640153  1
  Te  Te79  1  0.08232243  0.75171219  0.41776123  1
  Te  Te80  1  0.06259863  0.77945524  0.78442545  1
  Te  Te81  1  0.40651148  0.06065126  0.08945680  1
  Te  Te82  1  0.45293034  0.12433805  0.42904635  1
  Te  Te83  1  0.42090384  0.09849663  0.75783276  1
  Te  Te84  1  0.43034134  0.42792943  0.07801348  1
  Te  Te85  1  0.38975067  0.38493579  0.37652827  1
  Te  Te86  1  0.39185634  0.43156879  0.76341223  1
  Te  Te87  1  0.41838176  0.73826756  0.09646204  1
  Te  Te88  1  0.44150567  0.75154208  0.41984081  1
  Te  Te89  1  0.41453950  0.76162338  0.72546812  1
  Te  Te90  1  0.72566324  0.07660608  0.07186104  1
  Te  Te91  1  0.70616771  0.06601917  0.39479363  1
  Te  Te92  1  0.75657921  0.10704453  0.74615940  1
  Te  Te93  1  0.75073131  0.39769624  0.08625109  1
  Te  Te94  1  0.74988051  0.39058751  0.40671012  1
  Te  Te95  1  0.75526413  0.40171076  0.72791813  1
  Te  Te96  1  0.74574480  0.74514055  0.06079045  1
  Te  Te97  1  0.72347533  0.77370831  0.43248679  1
  Te  Te98  1  0.71181813  0.76588677  0.73871163  1
  Te  Te99  1  0.09686135  0.25153080  0.27776834  1
  Te  Te100  1  0.10632199  0.24316428  0.58003415  1
  Te  Te101  1  0.07871969  0.24285218  0.90135356  1
  Te  Te102  1  0.08280889  0.58415251  0.26753957  1
  Te  Te103  1  0.07933715  0.59332998  0.60421286  1
  Te  Te104  1  0.08427739  0.59172192  0.92721085  1
  Te  Te105  1  0.08305124  0.91476612  0.22872724  1
  Te  Te106  1  0.06648265  0.95540602  0.62582870  1
  Te  Te107  1  0.10285627  0.87864548  0.89441845  1
  Te  Te108  1  0.42487201  0.25062704  0.27241087  1
  Te  Te109  1  0.42158973  0.24963704  0.60250891  1
  Te  Te110  1  0.41243239  0.23187226  0.93842517  1
  Te  Te111  1  0.41783224  0.56473841  0.24277943  1
  Te  Te112  1  0.42411913  0.57708371  0.56063614  1
  Te  Te113  1  0.41153656  0.58657334  0.90431919  1
  Te  Te114  1  0.40806089  0.90237724  0.25616009  1
  Te  Te115  1  0.44742478  0.92616594  0.58795355  1
  Te  Te116  1  0.41348809  0.91043195  0.90726180  1
  Te  Te117  1  0.71184806  0.21153451  0.23531670  1
  Te  Te118  1  0.71832816  0.20308283  0.57523445  1
  Te  Te119  1  0.76476952  0.26467764  0.91021163  1
  Te  Te120  1  0.74681492  0.57205084  0.23303065  1
  Te  Te121  1  0.74316168  0.59023381  0.59538754  1
  Te  Te122  1  0.77195142  0.58458673  0.86786102  1
  Te  Te123  1  0.74688623  0.91250774  0.25376236  1
  Te  Te124  1  0.77359114  0.93257225  0.58003442  1
  Te  Te125  1  0.71186795  0.93870523  0.93385813  1
  Te  Te126  1  0.24167578  0.24498806  0.10609189  1
  Te  Te127  1  0.27188695  0.30173838  0.43960848  1
  Te  Te128  1  0.21841738  0.23063862  0.72890397  1
  Te  Te129  1  0.26416123  0.57518204  0.08315255  1
  Te  Te130  1  0.26528211  0.57547512  0.41087569  1
  Te  Te131  1  0.23778544  0.60244849  0.75507639  1
  Te  Te132  1  0.24032213  0.92956503  0.05461365  1
  Te  Te133  1  0.26828712  0.92576901  0.41645951  1
  Te  Te134  1  0.25981928  0.93127549  0.74125906  1
  Te  Te135  1  0.57210965  0.23113134  0.08854176  1
  Te  Te136  1  0.56601377  0.23112797  0.44309153  1
  Te  Te137  1  0.58687836  0.26903032  0.75937670  1
  Te  Te138  1  0.61844907  0.57950030  0.05062318  1
  Te  Te139  1  0.58942076  0.58575997  0.41751949  1
  Te  Te140  1  0.57779386  0.58366146  0.73489509  1
  Te  Te141  1  0.56737443  0.91658724  0.09483546  1
  Te  Te142  1  0.59422236  0.96639676  0.43889881  1
  Te  Te143  1  0.60034463  0.87832211  0.75752325  1
  Te  Te144  1  0.92358428  0.25286820  0.10013535  1
  Te  Te145  1  0.89522285  0.22782393  0.40134340  1
  Te  Te146  1  0.93221500  0.24790296  0.73112435  1
  Te  Te147  1  0.90055989  0.58201858  0.06934277  1
  Te  Te148  1  0.89995815  0.60407940  0.41534179  1
  Te  Te149  1  0.90545338  0.59906405  0.75813525  1
  Te  Te150  1  0.91638690  0.90606230  0.07528002  1
  Te  Te151  1  0.92002410  0.91633314  0.42873502  1
  Te  Te152  1  0.91453174  0.91327717  0.77063037  1
  Te  Te153  1  0.25067561  0.08396930  0.26882155  1
  Te  Te154  1  0.26507434  0.10173238  0.55206450  1
  Te  Te155  1  0.24092089  0.07468199  0.91140708  1
  Te  Te156  1  0.23656345  0.39842003  0.20612554  1
  Te  Te157  1  0.26040835  0.41403323  0.56749562  1
  Te  Te158  1  0.24453427  0.39324220  0.91141941  1
  Te  Te159  1  0.24398264  0.74694407  0.24614777  1
  Te  Te160  1  0.24405663  0.76403012  0.57452287  1
  Te  Te161  1  0.22136995  0.76378336  0.92803752  1
  Te  Te162  1  0.60290065  0.08698368  0.27875976  1
  Te  Te163  1  0.57097938  0.04130141  0.58795975  1
  Te  Te164  1  0.57849453  0.06675980  0.92033755  1
  Te  Te165  1  0.59857611  0.41957590  0.24700364  1
  Te  Te166  1  0.59088668  0.40286942  0.58046888  1
  Te  Te167  1  0.57116128  0.42043872  0.91327739  1
  Te  Te168  1  0.57426582  0.73900304  0.24967370  1
  Te  Te169  1  0.61213894  0.78077186  0.61763841  1
  Te  Te170  1  0.59333364  0.72870278  0.92671342  1
  Te  Te171  1  0.90076793  0.08579143  0.24937404  1
  Te  Te172  1  0.91766542  0.08585653  0.58837888  1
  Te  Te173  1  0.91246329  0.08461666  0.91561459  1
  Te  Te174  1  0.92747582  0.41692755  0.24536244  1
  Te  Te175  1  0.91080584  0.41369002  0.55275510  1
  Te  Te176  1  0.93000233  0.42157864  0.93495982  1
  Te  Te177  1  0.92837651  0.74915919  0.25585166  1
  Te  Te178  1  0.93535126  0.74936685  0.59971208  1
  Te  Te179  1  0.90927787  0.76882482  0.88053610  1
