# generated using pymatgen
data_In2Te3
_symmetry_space_group_name_H-M   'P 1'
_cell_length_a   18.78167097
_cell_length_b   18.78074972
_cell_length_c   18.78393700
_cell_angle_alpha   90.04742665
_cell_angle_beta   90.05292273
_cell_angle_gamma   89.96076813
_symmetry_Int_Tables_number   1
_chemical_formula_structural   In2Te3
_chemical_formula_sum   'In72 Te108'
_cell_volume   6625.72399417
_cell_formula_units_Z   36
loop_
 _symmetry_equiv_pos_site_id
 _symmetry_equiv_pos_as_xyz
  1  'x, y, z'
loop_
 _atom_site_type_symbol
 _atom_site_label
 _atom_site_symmetry_multiplicity
 _atom_site_fract_x
 _atom_site_fract_y
 _atom_site_fract_z
 _atom_site_occupancy
  In  In0  1  0.53773907  0.32179401  0.16819176  1
  In  In1  1  0.50265924  0.82600659  0.31681846  1
  In  In2  1  0.67234313  0.67674765  0.67143958  1
  In  In3  1  0.02075982  0.80913370  0.46576958  1
  In  In4  1  -0.00057283  0.16764787  0.49065281  1
  In  In5  1  0.50164308  0.51807626  0.66437734  1
  In  In6  1  0.31556348  0.15682591  0.81721716  1
  In  In7  1  0.50084885  0.66238122  0.83904350  1
  In  In8  1  0.50166093  0.34856858  0.48886779  1
  In  In9  1  0.33435050  0.81441074  0.85154828  1
  In  In10  1  -0.01123315  0.31810411  0.68588092  1
  In  In11  1  0.67275373  0.82809769  0.50791049  1
  In  In12  1  0.51730065  0.47250731  0.32008231  1
  In  In13  1  0.84467846  0.67623602  0.49648254  1
  In  In14  1  0.31515340  0.65452240  0.33068076  1
  In  In15  1  0.30496062  -0.00099318  0.63582745  1
  In  In16  1  -0.01728453  0.33225886  0.01573575  1
  In  In17  1  0.18627490  0.33680022  0.49513654  1
  In  In18  1  0.13636386  -0.00880816  0.83698902  1
  In  In19  1  0.64625733  0.50921236  0.49870278  1
  In  In20  1  0.52380994  -0.00827067  0.16703794  1
  In  In21  1  0.19277965  0.14729113  0.66598429  1
  In  In22  1  0.51755659  0.83778300  0.01111684  1
  In  In23  1  0.84602298  0.83118803  0.32234279  1
  In  In24  1  -0.02115257  0.00263537  0.68093377  1
  In  In25  1  0.33479918  0.48899502  0.15766297  1
  In  In26  1  -0.01429336  0.32632920  0.32238819  1
  In  In27  1  -0.01791043  0.49331859  0.85950069  1
  In  In28  1  0.84936050  0.32382267  0.50635081  1
  In  In29  1  0.81418145  0.64643259  0.86025486  1
  In  In30  1  0.68056063  0.00595565  0.66330514  1
  In  In31  1  0.81555078  0.69011729  0.15736325  1
  In  In32  1  0.15726537  0.50236019  0.67513216  1
  In  In33  1  0.79924406  0.47618485  0.71245244  1
  In  In34  1  -0.00524812  0.65106119  0.02178220  1
  In  In35  1  0.14741463  0.65702838  0.17455285  1
  In  In36  1  0.32903267  0.17673709  0.17199239  1
  In  In37  1  0.36515412  0.82365599  0.16200777  1
  In  In38  1  0.16334475  -0.01090141  0.47888145  1
  In  In39  1  0.50447853  0.19219223  0.66545720  1
  In  In40  1  0.52941119  0.18302911  0.00380225  1
  In  In41  1  0.47775245  0.03110477  0.45569556  1
  In  In42  1  0.00431815  0.67955085  0.66868502  1
  In  In43  1  -0.02359591  0.14845959  0.14879461  1
  In  In44  1  0.15154708  0.00827598  0.17819899  1
  In  In45  1  0.52422663  0.67335974  0.15129678  1
  In  In46  1  0.70141804  0.84708778  0.86603935  1
  In  In47  1  0.31202983  0.33531787  0.00462556  1
  In  In48  1  0.82519422  0.50697277  0.31228784  1
  In  In49  1  0.15253110  0.34046015  0.17327117  1
  In  In50  1  0.33350605  0.85227193  0.47494784  1
  In  In51  1  0.16755677  0.82295519  0.66554785  1
  In  In52  1  0.67546630  0.15665021  0.87889718  1
  In  In53  1  -0.02093479  0.83117779  0.84678585  1
  In  In54  1  0.68133186  -0.00609901  0.31947274  1
  In  In55  1  0.15973446  0.82728855  -0.00299844  1
  In  In56  1  0.67611409  0.16256472  0.48679337  1
  In  In57  1  0.83287202  0.16872142  0.68269956  1
  In  In58  1  -0.02026872  0.17509814  0.87898697  1
  In  In59  1  0.68047981  0.34399710  0.02441706  1
  In  In60  1  0.49585047  0.33337602  0.82455780  1
  In  In61  1  0.69613972  0.31638185  0.31284728  1
  In  In62  1  0.16052860  0.48785725  0.00168114  1
  In  In63  1  0.33375729  0.33929467  0.31483964  1
  In  In64  1  -0.01627865  0.51454788  0.48566746  1
  In  In65  1  0.52910473  0.83407070  0.65481854  1
  In  In66  1  0.35148025  0.33624120  0.66286856  1
  In  In67  1  -0.02210904  -0.00131722  0.30542889  1
  In  In68  1  0.32941406  0.00566277  -0.01262898  1
  In  In69  1  0.53030692  0.04640720  0.83940440  1
  In  In70  1  0.51523903  0.51293346  -0.00257821  1
  In  In71  1  0.32828691  0.64762435  0.64904108  1
  Te  Te72  1  0.08092953  0.07864602  0.06950529  1
  Te  Te73  1  0.07763271  0.08226655  0.39326074  1
  Te  Te74  1  0.06932418  0.10583523  0.75167595  1
  Te  Te75  1  0.05931627  0.43799006  0.10296950  1
  Te  Te76  1  0.07213245  0.40887474  0.41862173  1
  Te  Te77  1  0.07561108  0.41161420  0.76926497  1
  Te  Te78  1  0.06328859  0.76440677  0.09911420  1
  Te  Te79  1  0.10278706  0.71277123  0.38915311  1
  Te  Te80  1  0.08982873  0.75059392  0.77377653  1
  Te  Te81  1  0.42076218  0.08898766  0.07875464  1
  Te  Te82  1  0.37842657  0.09060940  0.36856673  1
  Te  Te83  1  0.41792927  0.07851159  0.73548812  1
  Te  Te84  1  0.43607421  0.39500884  0.07985836  1
  Te  Te85  1  0.40119788  0.43569034  0.41353602  1
  Te  Te86  1  0.40892200  0.44037588  0.75902869  1
  Te  Te87  1  0.41734000  0.72906963  0.05615873  1
  Te  Te88  1  0.41636779  0.74115548  0.40928247  1
  Te  Te89  1  0.42375313  0.75599253  0.73568574  1
  Te  Te90  1  0.79804421  0.06441895  0.07285862  1
  Te  Te91  1  0.76360969  0.06452443  0.42202990  1
  Te  Te92  1  0.75865315  0.07321754  0.77575936  1
  Te  Te93  1  0.78143687  0.45301899  0.06114878  1
  Te  Te94  1  0.75455851  0.41529836  0.42623260  1
  Te  Te95  1  0.71229129  0.38519150  0.78283889  1
  Te  Te96  1  0.73536224  0.78593918  0.07496651  1
  Te  Te97  1  0.74579124  0.74541166  0.40366273  1
  Te  Te98  1  0.76655689  0.75740978  0.75803422  1
  Te  Te99  1  0.07437609  0.23101344  0.24339215  1
  Te  Te100  1  0.08468851  0.25175246  0.58632924  1
  Te  Te101  1  0.08209348  0.26989688  0.92475896  1
  Te  Te102  1  0.08304906  0.59029227  0.29097090  1
  Te  Te103  1  0.08408146  0.59208341  0.57300390  1
  Te  Te104  1  0.08432942  0.59135915  0.91508260  1
  Te  Te105  1  0.07031723  0.90223881  0.24172886  1
  Te  Te106  1  0.07978188  0.92442462  0.59211197  1
  Te  Te107  1  0.05270604  0.92487575  0.94408624  1
  Te  Te108  1  0.43888762  0.24514110  0.25452679  1
  Te  Te109  1  0.41060032  0.24397726  0.55597113  1
  Te  Te110  1  0.41275934  0.23540891  0.91292261  1
  Te  Te111  1  0.42718326  0.58078402  0.23788308  1
  Te  Te112  1  0.41908897  0.57729374  0.55701272  1
  Te  Te113  1  0.40917464  0.57815291  0.91855921  1
  Te  Te114  1  0.41379170  0.93441415  0.25540605  1
  Te  Te115  1  0.42780105  0.92124493  0.57805733  1
  Te  Te116  1  0.43075787  0.92252656  0.90760907  1
  Te  Te117  1  0.78732173  0.23349999  0.23010171  1
  Te  Te118  1  0.74345089  0.25337857  0.59063810  1
  Te  Te119  1  0.76749080  0.24976685  0.94834085  1
  Te  Te120  1  0.73250945  0.60577508  0.25206911  1
  Te  Te121  1  0.76182886  0.58233167  0.58467981  1
  Te  Te122  1  0.73986608  0.56662157  0.96090497  1
  Te  Te123  1  0.76324400  0.91148775  0.22588076  1
  Te  Te124  1  0.76401598  0.91033460  0.58873355  1
  Te  Te125  1  0.79355164  0.91272475  0.96576870  1
  Te  Te126  1  0.22337898  0.23953335  0.08063647  1
  Te  Te127  1  0.24085460  0.25129934  0.38915975  1
  Te  Te128  1  0.24131566  0.26916294  0.74673549  1
  Te  Te129  1  0.24729113  0.58727566  0.08165577  1
  Te  Te130  1  0.20620676  0.58865272  0.40567353  1
  Te  Te131  1  0.23896095  0.59796451  0.75369047  1
  Te  Te132  1  0.25728659  0.91210931  0.08395424  1
  Te  Te133  1  0.22964785  0.89978889  0.38221323  1
  Te  Te134  1  0.25248214  0.92132549  0.76304870  1
  Te  Te135  1  0.63195667  0.21760270  0.10994092  1
  Te  Te136  1  0.58666728  0.25338211  0.40285148  1
  Te  Te137  1  0.60951241  0.24539340  0.76345643  1
  Te  Te138  1  0.62034346  0.58463346  0.07583285  1
  Te  Te139  1  0.58527888  0.58489489  0.38885327  1
  Te  Te140  1  0.60332792  0.57741227  0.76366794  1
  Te  Te141  1  0.62268909  0.89059131  0.10816518  1
  Te  Te142  1  0.57827227  0.91847444  0.42192185  1
  Te  Te143  1  0.59544476  0.91527345  0.76619888  1
  Te  Te144  1  0.88034014  0.26056844  0.10443036  1
  Te  Te145  1  0.89400680  0.22803201  0.39782582  1
  Te  Te146  1  0.89109818  0.26298996  0.78747615  1
  Te  Te147  1  0.89850996  0.57326687  0.10391001  1
  Te  Te148  1  0.91903304  0.60715993  0.38223376  1
  Te  Te149  1  0.91479352  0.58535426  0.74957936  1
  Te  Te150  1  0.89312693  0.95354989  0.08182030  1
  Te  Te151  1  0.92288589  0.91634437  0.42487443  1
  Te  Te152  1  0.89207118  0.92097705  0.76670095  1
  Te  Te153  1  0.25681096  0.07994526  0.26221050  1
  Te  Te154  1  0.25577268  0.10086755  0.53577784  1
  Te  Te155  1  0.22278494  0.09082701  0.91825308  1
  Te  Te156  1  0.23181220  0.43980343  0.25774916  1
  Te  Te157  1  0.26170330  0.43374162  0.58428327  1
  Te  Te158  1  0.25474671  0.42562163  0.90540518  1
  Te  Te159  1  0.25129155  0.75640354  0.23625480  1
  Te  Te160  1  0.25273252  0.75257920  0.56448584  1
  Te  Te161  1  0.24144702  0.72766092  0.92440214  1
  Te  Te162  1  0.59465455  0.09212076  0.24869461  1
  Te  Te163  1  0.57450476  0.08164433  0.58146476  1
  Te  Te164  1  0.60840817  0.05215701  0.96909631  1
  Te  Te165  1  0.63062646  0.42616972  0.22684876  1
  Te  Te166  1  0.58834049  0.40878235  0.59891864  1
  Te  Te167  1  0.59591955  0.41167335  0.91123834  1
  Te  Te168  1  0.60828041  0.75381493  0.24365671  1
  Te  Te169  1  0.57486275  0.72163637  0.56270995  1
  Te  Te170  1  0.60006257  0.74511928  0.92141595  1
  Te  Te171  1  0.87211060  0.08499372  0.24013472  1
  Te  Te172  1  0.90270930  0.08457876  0.57597845  1
  Te  Te173  1  0.89930621  0.07508660  0.95412086  1
  Te  Te174  1  0.90792515  0.41416807  0.23210522  1
  Te  Te175  1  0.91776714  0.42468275  0.59993156  1
  Te  Te176  1  0.88149168  0.41448496  0.93488803  1
  Te  Te177  1  0.93191507  0.75835069  0.22565186  1
  Te  Te178  1  0.92177086  0.77448977  0.58313442  1
  Te  Te179  1  0.90020151  0.74184710  0.94220174  1
