# generated using pymatgen
data_In2Te3
_symmetry_space_group_name_H-M   'P 1'
_cell_length_a   18.75472329
_cell_length_b   18.75104466
_cell_length_c   18.75389359
_cell_angle_alpha   90.00276599
_cell_angle_beta   90.04279081
_cell_angle_gamma   90.11040372
_symmetry_Int_Tables_number   1
_chemical_formula_structural   In2Te3
_chemical_formula_sum   'In72 Te108'
_cell_volume   6595.17992975
_cell_formula_units_Z   36
loop_
 _symmetry_equiv_pos_site_id
 _symmetry_equiv_pos_as_xyz
  1  'x, y, z'
loop_
 _atom_site_type_symbol
 _atom_site_label
 _atom_site_symmetry_multiplicity
 _atom_site_fract_x
 _atom_site_fract_y
 _atom_site_fract_z
 _atom_site_occupancy
  In  In0  1  0.15943411  0.17720415  0.68001247  1
  In  In1  1  0.66534771  0.16762506  0.84356248  1
  In  In2  1  0.82837120  0.49590274  0.02164290  1
  In  In3  1  0.17460567  0.32629973  0.85101544  1
  In  In4  1  -0.00759256  0.85017849  0.17952010  1
  In  In5  1  0.83304037  0.82869155  0.65319526  1
  In  In6  1  0.33395517  0.19572247  0.49124340  1
  In  In7  1  0.68086140  0.49868945  0.18106072  1
  In  In8  1  0.47278340  -0.00802353  0.84544862  1
  In  In9  1  0.51887384  0.80837365  0.65994710  1
  In  In10  1  0.32575976  0.81411368  0.50141891  1
  In  In11  1  0.18456123  0.16404775  0.00271800  1
  In  In12  1  0.00698885  0.33956397  0.32439758  1
  In  In13  1  -0.00426021  0.17858404  0.17434544  1
  In  In14  1  0.66337997  0.49124275  0.84261449  1
  In  In15  1  0.31431711  0.34111025  0.32310254  1
  In  In16  1  0.83869263  0.34098682  0.83955687  1
  In  In17  1  0.66443341  0.63892982  0.34438385  1
  In  In18  1  -0.00830320  0.15926012  0.48424193  1
  In  In19  1  0.67591902  0.81085846  0.80932598  1
  In  In20  1  0.84370718  0.81831475  0.00269345  1
  In  In21  1  0.16746136  0.66203339  0.17019129  1
  In  In22  1  0.14410776  0.66645399  0.81628129  1
  In  In23  1  0.15108439  0.01292479  0.48381322  1
  In  In24  1  0.51221343  -0.01876066  0.49183652  1
  In  In25  1  0.68104508  0.66778062  0.63048222  1
  In  In26  1  0.84322088  0.65973951  0.48108917  1
  In  In27  1  0.33728239  0.49944207  0.50600810  1
  In  In28  1  0.51024985  0.01231538  0.17312348  1
  In  In29  1  0.84815768  -0.01361845  0.81362250  1
  In  In30  1  0.47650246  0.16025039  0.65763884  1
  In  In31  1  -0.00261687  0.00097706  0.65535697  1
  In  In32  1  -0.00160978  0.51739998  0.49003641  1
  In  In33  1  0.18415155  0.84496742  -0.00218841  1
  In  In34  1  0.51363130  0.16718872  0.33278339  1
  In  In35  1  0.00810087  0.47896394  0.16800600  1
  In  In36  1  0.50147434  0.48155367  0.66048199  1
  In  In37  1  0.15798139  0.49398907  0.64716519  1
  In  In38  1  -0.00429529  -0.01484068  0.00115477  1
  In  In39  1  0.52371332  0.34649142  0.18311183  1
  In  In40  1  0.84646329  0.17736093  0.03298766  1
  In  In41  1  0.35431678  0.62899423  0.31789637  1
  In  In42  1  0.50733684  0.83592724  0.33985852  1
  In  In43  1  0.30044004  0.03930768  0.30700676  1
  In  In44  1  0.66963589  0.82588106  0.18160958  1
  In  In45  1  0.32816585  0.64123128  0.03179602  1
  In  In46  1  0.67210062  0.65258420  0.00763395  1
  In  In47  1  0.14511870  0.83488784  0.33943262  1
  In  In48  1  0.52345453  0.32277773  0.47606787  1
  In  In49  1  0.30652206  -0.01567595  0.68058767  1
  In  In50  1  0.50566399  0.66001307  0.85222029  1
  In  In51  1  0.49889040  0.49639794  0.00167419  1
  In  In52  1  0.32538100  0.00789100  0.00243828  1
  In  In53  1  0.50427996  0.19807604  0.02588016  1
  In  In54  1  -0.00979165  0.52344577  0.82321538  1
  In  In55  1  0.68325178  0.00621392  0.01987688  1
  In  In56  1  -0.01184069  0.34641800  0.64150475  1
  In  In57  1  0.66212360  0.18371473  0.48238719  1
  In  In58  1  0.84291287  0.83427113  0.32809479  1
  In  In59  1  0.31904808  0.84954195  0.83755868  1
  In  In60  1  0.32093453  0.65824675  0.65895208  1
  In  In61  1  0.16872621  0.50305598  0.33428673  1
  In  In62  1  -0.00220946  0.65388404  -0.00170878  1
  In  In63  1  -0.01441033  0.82152384  0.48439923  1
  In  In64  1  0.48582439  0.35287225  0.84239913  1
  In  In65  1  0.33506673  0.33361675  0.01260063  1
  In  In66  1  0.82805248  0.18759111  0.31893629  1
  In  In67  1  0.83700486  0.17130562  0.64077774  1
  In  In68  1  0.33635641  0.83014262  0.15362383  1
  In  In69  1  0.65136415  0.35012419  0.65362344  1
  In  In70  1  0.68583506  -0.03163709  0.64533718  1
  In  In71  1  0.02584518  0.17856808  0.85436535  1
  Te  Te72  1  0.07898104  0.08305477  0.08103351  1
  Te  Te73  1  0.07299449  0.08687167  0.38205733  1
  Te  Te74  1  0.08487291  0.07111800  0.76086109  1
  Te  Te75  1  0.07217793  0.39393078  0.06626929  1
  Te  Te76  1  0.09213615  0.41263779  0.42976911  1
  Te  Te77  1  0.07352013  0.40423936  0.75525965  1
  Te  Te78  1  0.08455364  0.75961849  0.08265151  1
  Te  Te79  1  0.07942740  0.72810558  0.41549721  1
  Te  Te80  1  0.07870186  0.78396668  0.75999119  1
  Te  Te81  1  0.41080003  0.09767664  0.09467978  1
  Te  Te82  1  0.41869451  0.08542978  0.42283513  1
  Te  Te83  1  0.38962410  0.08799243  0.76039253  1
  Te  Te84  1  0.41330028  0.43167747  0.11343268  1
  Te  Te85  1  0.41898840  0.41605275  0.40647383  1
  Te  Te86  1  0.39812951  0.42500237  0.74849399  1
  Te  Te87  1  0.42743229  0.73723777  0.08467534  1
  Te  Te88  1  0.42198938  0.73370574  0.41571580  1
  Te  Te89  1  0.41547396  0.75162390  0.75783697  1
  Te  Te90  1  0.75516346  0.09286065  0.11435779  1
  Te  Te91  1  0.75477014  0.09368738  0.41232593  1
  Te  Te92  1  0.74889314  0.08711200  0.74216900  1
  Te  Te93  1  0.74496365  0.39685475  0.09345776  1
  Te  Te94  1  0.71719059  0.39203771  0.44030288  1
  Te  Te95  1  0.75704117  0.42474401  0.74087457  1
  Te  Te96  1  0.76266816  0.73333936  0.10041775  1
  Te  Te97  1  0.74188854  0.75059433  0.41342574  1
  Te  Te98  1  0.77720738  0.71413910  0.75218173  1
  Te  Te99  1  0.10559116  0.25672281  0.24530695  1
  Te  Te100  1  0.08295353  0.25003899  0.57039283  1
  Te  Te101  1  0.07089187  0.27288323  0.96590040  1
  Te  Te102  1  0.06845156  0.59115421  0.26096840  1
  Te  Te103  1  0.07422439  0.60025519  0.58931760  1
  Te  Te104  1  0.09929422  0.56803769  0.92507250  1
  Te  Te105  1  0.08792362  0.93877887  0.25199048  1
  Te  Te106  1  0.08487205  0.90893010  0.57167440  1
  Te  Te107  1  0.08542165  0.91236154  0.91000681  1
  Te  Te108  1  0.42140779  0.25225760  0.25032660  1
  Te  Te109  1  0.42003426  0.28126644  0.58565910  1
  Te  Te110  1  0.40877360  0.24126136  0.91446023  1
  Te  Te111  1  0.42319405  0.56111897  0.20791237  1
  Te  Te112  1  0.43473260  0.59408098  0.58011232  1
  Te  Te113  1  0.40100757  0.56780147  0.91023786  1
  Te  Te114  1  0.41090185  0.92587178  0.25853466  1
  Te  Te115  1  0.41692678  0.91531866  0.59565327  1
  Te  Te116  1  0.41600616  0.89521177  0.94814273  1
  Te  Te117  1  0.72783239  0.26190107  0.23347609  1
  Te  Te118  1  0.75871107  0.27817352  0.56630728  1
  Te  Te119  1  0.75133865  0.25520101  0.93165558  1
  Te  Te120  1  0.77728744  0.57332820  0.26998418  1
  Te  Te121  1  0.76956022  0.56352275  0.57189467  1
  Te  Te122  1  0.76573388  0.58258712  0.91090451  1
  Te  Te123  1  0.75317055  0.92544821  0.25037065  1
  Te  Te124  1  0.76205153  0.89793361  0.54297514  1
  Te  Te125  1  0.74717423  0.91607124  0.90698466  1
  Te  Te126  1  0.25729420  0.24510585  0.10733287  1
  Te  Te127  1  0.22867506  0.24676257  0.40219801  1
  Te  Te128  1  0.25949172  0.25960774  0.74971423  1
  Te  Te129  1  0.23401023  0.54770144  0.10075485  1
  Te  Te130  1  0.24945987  0.59610364  0.42533240  1
  Te  Te131  1  0.24286071  0.56815084  0.75315586  1
  Te  Te132  1  0.23745441  0.93714664  0.10813363  1
  Te  Te133  1  0.26228632  0.92422133  0.41401058  1
  Te  Te134  1  0.21030595  0.88464432  0.74004050  1
  Te  Te135  1  0.61275009  0.23783452  0.12263599  1
  Te  Te136  1  0.63612751  0.29030219  0.36189598  1
  Te  Te137  1  0.57607020  0.25106569  0.75083935  1
  Te  Te138  1  0.57544907  0.58402611  0.10169794  1
  Te  Te139  1  0.56688511  0.54688209  0.40827865  1
  Te  Te140  1  0.58795614  0.58845923  0.74356664  1
  Te  Te141  1  0.58299388  0.91044584  0.08505977  1
  Te  Te142  1  0.60956197  0.93158768  0.39305802  1
  Te  Te143  1  0.57809741  0.92556495  0.75564635  1
  Te  Te144  1  0.91461161  0.28681227  0.10864465  1
  Te  Te145  1  0.90938761  0.27107074  0.42215554  1
  Te  Te146  1  0.92261517  0.23949216  0.74899213  1
  Te  Te147  1  0.91344887  0.58985395  0.10582312  1
  Te  Te148  1  0.89772402  0.55743721  0.38403979  1
  Te  Te149  1  0.89846115  0.61124867  0.75230694  1
  Te  Te150  1  0.88974974  0.93039314  0.09583106  1
  Te  Te151  1  0.93613063  0.92943256  0.39699286  1
  Te  Te152  1  0.94121006  0.88546961  0.75077358  1
  Te  Te153  1  0.22682062  0.14484704  0.23478426  1
  Te  Te154  1  0.25134200  0.08746426  0.58032488  1
  Te  Te155  1  0.23928827  0.07163785  0.90054918  1
  Te  Te156  1  0.23815462  0.42734382  0.22637023  1
  Te  Te157  1  0.24681379  0.40297921  0.57246866  1
  Te  Te158  1  0.25212376  0.42431938  0.93078500  1
  Te  Te159  1  0.25930810  0.74934340  0.26053989  1
  Te  Te160  1  0.22765685  0.74832962  0.58902635  1
  Te  Te161  1  0.25399539  0.73139587  0.92025547  1
  Te  Te162  1  0.60711782  0.07140500  0.26938862  1
  Te  Te163  1  0.58968109  0.08711442  0.58653167  1
  Te  Te164  1  0.57043755  0.08273779  0.93045022  1
  Te  Te165  1  0.57160937  0.45688995  0.28070308  1
  Te  Te166  1  0.60431913  0.44865911  0.53516730  1
  Te  Te167  1  0.59570311  0.39512490  0.94113032  1
  Te  Te168  1  0.57558726  0.72975054  0.25422274  1
  Te  Te169  1  0.59449182  0.75414642  0.54704659  1
  Te  Te170  1  0.59350365  0.75903455  0.92815877  1
  Te  Te171  1  0.92276488  0.08538662  0.26502719  1
  Te  Te172  1  0.89658997  0.05952806  0.55688846  1
  Te  Te173  1  0.90684894  0.08930383  0.91186708  1
  Te  Te174  1  0.90060680  0.41404527  0.25080288  1
  Te  Te175  1  0.89877179  0.44607378  0.58031722  1
  Te  Te176  1  0.92829337  0.42568665  0.92718131  1
  Te  Te177  1  0.92685107  0.73950022  0.25039159  1
  Te  Te178  1  0.92851680  0.72559265  0.59129524  1
  Te  Te179  1  0.92941765  0.74789210  0.90632367  1
