# generated using pymatgen
data_In2Te3
_symmetry_space_group_name_H-M   'P 1'
_cell_length_a   19.02583683
_cell_length_b   19.00300025
_cell_length_c   19.03084754
_cell_angle_alpha   89.90049539
_cell_angle_beta   89.97175183
_cell_angle_gamma   90.00212958
_symmetry_Int_Tables_number   1
_chemical_formula_structural   In2Te3
_chemical_formula_sum   'In72 Te108'
_cell_volume   6880.55330860
_cell_formula_units_Z   36
loop_
 _symmetry_equiv_pos_site_id
 _symmetry_equiv_pos_as_xyz
  1  'x, y, z'
loop_
 _atom_site_type_symbol
 _atom_site_label
 _atom_site_symmetry_multiplicity
 _atom_site_fract_x
 _atom_site_fract_y
 _atom_site_fract_z
 _atom_site_occupancy
  In  In0  1  0.50647517  0.47912986  0.30322334  1
  In  In1  1  -0.00098916  0.31946981  0.67378998  1
  In  In2  1  0.53093100  0.52207797  0.66187293  1
  In  In3  1  0.48878881  0.67457161  0.51755793  1
  In  In4  1  0.01824293  0.82353405  0.18861621  1
  In  In5  1  0.48494958  0.17559831  0.68421643  1
  In  In6  1  0.50723313  0.15629424  0.33376010  1
  In  In7  1  0.19633772  0.71098241  0.81140459  1
  In  In8  1  0.34069888  0.32956418  0.68594487  1
  In  In9  1  0.80538253  -0.02745571  0.81897918  1
  In  In10  1  0.33316270  -0.00489979  -0.01589753  1
  In  In11  1  0.81157601  0.51903293  0.65720273  1
  In  In12  1  0.83797482  0.50356345  0.34378746  1
  In  In13  1  0.15949469  -0.01827577  0.78811978  1
  In  In14  1  0.14895467  0.12482355  0.57446202  1
  In  In15  1  0.16979995  0.65977565  0.16815015  1
  In  In16  1  0.65876700  0.66793442  -0.02747801  1
  In  In17  1  0.51742044  0.33470901  0.83796751  1
  In  In18  1  0.19819535  0.18751643  -0.01122233  1
  In  In19  1  0.34959780  -0.01307655  0.35158184  1
  In  In20  1  0.64599227  -0.02490406  0.33661522  1
  In  In21  1  0.01002774  0.68385917  0.34835926  1
  In  In22  1  0.17223737  -0.02122667  0.15327294  1
  In  In23  1  0.49530923  0.68551666  0.14512777  1
  In  In24  1  0.00028461  0.83301043  0.50812632  1
  In  In25  1  0.50843957  0.66034665  0.82192898  1
  In  In26  1  0.32037332  0.17592687  0.16460088  1
  In  In27  1  0.66751899  0.35154847  -0.01291679  1
  In  In28  1  -0.00364814  0.67080758  -0.01759853  1
  In  In29  1  0.33581998  0.51877505  0.84199523  1
  In  In30  1  0.85328996  0.85049035  0.00909502  1
  In  In31  1  0.64894759  0.84310986  0.14789946  1
  In  In32  1  0.81122844  0.64359594  0.17572298  1
  In  In33  1  0.65405261  0.15982096  0.51894480  1
  In  In34  1  0.66164207  -0.05246219  0.66251489  1
  In  In35  1  0.83691996  0.18467620  0.35382234  1
  In  In36  1  0.15066962  0.48488037  0.67498617  1
  In  In37  1  0.15976301  0.52819413  0.00050721  1
  In  In38  1  0.17120189  0.34116975  0.82875507  1
  In  In39  1  -0.02297815  0.65054870  0.65136519  1
  In  In40  1  -0.00555400  -0.00280813  0.64959487  1
  In  In41  1  0.35152140  0.66295253  0.31900479  1
  In  In42  1  0.81169510  0.35993630  0.82608644  1
  In  In43  1  0.48149422  -0.01419834  0.79831674  1
  In  In44  1  0.80789232  0.50670442  -0.00342922  1
  In  In45  1  0.51923228  0.80722205  0.36052296  1
  In  In46  1  0.14767201  0.36250635  0.17378033  1
  In  In47  1  0.51024442  0.49372906  -0.00262938  1
  In  In48  1  0.35365990  0.16142498  0.82790058  1
  In  In49  1  0.64752177  0.50359208  0.48617740  1
  In  In50  1  0.19044050  0.85184921  -0.01214446  1
  In  In51  1  0.67761134  0.34324487  0.32246496  1
  In  In52  1  0.47699731  0.01642091  0.16585304  1
  In  In53  1  0.47368554  -0.04015230  0.53729045  1
  In  In54  1  0.18729394  0.85112131  0.36322780  1
  In  In55  1  -0.00275475  0.18156492  0.19009666  1
  In  In56  1  0.79965439  0.80708630  0.37365773  1
  In  In57  1  0.82778891  0.03600918  0.19522291  1
  In  In58  1  0.32395154  0.30856449  0.33238289  1
  In  In59  1  0.66864668  0.19536932  0.13937199  1
  In  In60  1  0.17646749  0.13991727  0.36915790  1
  In  In61  1  -0.00557317  0.18244613  0.84842146  1
  In  In62  1  0.17358605  0.51034654  0.32570529  1
  In  In63  1  0.83738687  -0.01478927  0.49020296  1
  In  In64  1  0.34322010  0.47709489  0.49557104  1
  In  In65  1  0.63865615  0.01958026  -0.02938303  1
  In  In66  1  0.81277616  0.12909507  0.66305589  1
  In  In67  1  0.00145745  0.48758112  0.49194678  1
  In  In68  1  0.02537334  0.82105923  0.82660574  1
  In  In69  1  0.83351233  0.19479566  -0.00008788  1
  In  In70  1  0.00129125  0.34796584  0.33566860  1
  In  In71  1  -0.00374895  0.03141063  0.01186592  1
  Te  Te72  1  0.10734654  0.10040493  0.08867343  1
  Te  Te73  1  0.09243842  0.05972536  0.45556759  1
  Te  Te74  1  0.06531901  0.09490169  0.74778014  1
  Te  Te75  1  0.07046039  0.44753505  0.08491992  1
  Te  Te76  1  0.11065053  0.41049019  0.41957727  1
  Te  Te77  1  0.05531090  0.42090719  0.77304791  1
  Te  Te78  1  0.08774658  0.76484323  0.06896992  1
  Te  Te79  1  0.11150924  0.74520980  0.43999841  1
  Te  Te80  1  0.08294272  0.74345075  0.71340220  1
  Te  Te81  1  0.40638074  0.10305316  0.06299286  1
  Te  Te82  1  0.43697480  0.07447580  0.43795796  1
  Te  Te83  1  0.37771146  0.06328366  0.71621423  1
  Te  Te84  1  0.45126031  0.36566406  0.03929695  1
  Te  Te85  1  0.42801919  0.39421379  0.40335680  1
  Te  Te86  1  0.42744606  0.43617799  0.75419371  1
  Te  Te87  1  0.40110227  0.78640220  0.10472295  1
  Te  Te88  1  0.39481969  0.75785803  0.43060847  1
  Te  Te89  1  0.41354290  0.72566851  0.72585054  1
  Te  Te90  1  0.74899081  0.07812286  0.07067974  1
  Te  Te91  1  0.73728863  0.07134643  0.41235739  1
  Te  Te92  1  0.71065501  0.06717953  0.75383204  1
  Te  Te93  1  0.73405006  0.42448159  0.09543565  1
  Te  Te94  1  0.75708411  0.40964795  0.43080410  1
  Te  Te95  1  0.72546634  0.42072843  0.72560653  1
  Te  Te96  1  0.75630051  0.75584642  0.08102380  1
  Te  Te97  1  0.70511051  0.72919254  0.45677721  1
  Te  Te98  1  0.72563575  0.82666628  0.73373728  1
  Te  Te99  1  0.11263315  0.24082618  0.26673200  1
  Te  Te100  1  0.09855454  0.26195514  0.58297860  1
  Te  Te101  1  0.08228183  0.26772664  0.93461317  1
  Te  Te102  1  0.06673371  0.58500076  0.24923782  1
  Te  Te103  1  0.08965639  0.57841379  0.57360237  1
  Te  Te104  1  0.09828782  0.61211950  0.89158348  1
  Te  Te105  1  0.09193742  0.92633705  0.27084870  1
  Te  Te106  1  0.09563783  0.90782427  0.59215276  1
  Te  Te107  1  0.07289180  0.93345863  0.92445506  1
  Te  Te108  1  0.43074646  0.24631170  0.24016106  1
  Te  Te109  1  0.41406712  0.25434232  0.58425951  1
  Te  Te110  1  0.40078453  0.27447304  0.91112836  1
  Te  Te111  1  0.41948319  0.57175775  0.22067066  1
  Te  Te112  1  0.40387834  0.57483891  0.59372823  1
  Te  Te113  1  0.42098992  0.59874305  0.93604505  1
  Te  Te114  1  0.44597048  0.90854517  0.26738824  1
  Te  Te115  1  0.44241816  0.84905235  0.63146185  1
  Te  Te116  1  0.39005356  0.90341586  0.88352810  1
  Te  Te117  1  0.76850182  0.25340063  0.23791891  1
  Te  Te118  1  0.75937778  0.23756115  0.58115580  1
  Te  Te119  1  0.73443826  0.24465640  0.90251111  1
  Te  Te120  1  0.73233836  0.58407538  0.28125318  1
  Te  Te121  1  0.74191714  0.60137576  0.55125986  1
  Te  Te122  1  0.75747784  0.59794728  0.89180834  1
  Te  Te123  1  0.75016378  0.90849369  0.24896351  1
  Te  Te124  1  0.78495676  0.88959560  0.59138277  1
  Te  Te125  1  0.73339224  0.90477207  0.93273956  1
  Te  Te126  1  0.25212182  0.28599668  0.08753163  1
  Te  Te127  1  0.27851738  0.21861630  0.43913313  1
  Te  Te128  1  0.24158545  0.23450221  0.75126175  1
  Te  Te129  1  0.26336932  0.58427510  0.08781581  1
  Te  Te130  1  0.26668706  0.58388220  0.41820716  1
  Te  Te131  1  0.24581479  0.58287519  0.74008700  1
  Te  Te132  1  0.29167278  0.89795198  0.10455545  1
  Te  Te133  1  0.26545837  0.93221972  0.46326615  1
  Te  Te134  1  0.25647621  0.86872710  0.77724765  1
  Te  Te135  1  0.56676764  0.25834010  0.05299969  1
  Te  Te136  1  0.59406587  0.24993039  0.41287529  1
  Te  Te137  1  0.59039136  0.26184292  0.73493882  1
  Te  Te138  1  0.59374843  0.58826323  0.08199794  1
  Te  Te139  1  0.54478896  0.58126517  0.40724022  1
  Te  Te140  1  0.61369655  0.63180332  0.71878919  1
  Te  Te141  1  0.55686102  0.93275396  0.06749804  1
  Te  Te142  1  0.59083635  0.90174067  0.45428880  1
  Te  Te143  1  0.58884987  0.87713983  0.77860628  1
  Te  Te144  1  0.92836808  0.25960299  0.08864121  1
  Te  Te145  1  0.92867750  0.26532284  0.43102863  1
  Te  Te146  1  0.89222180  0.23703192  0.75067084  1
  Te  Te147  1  0.91390989  0.59108766  0.07808881  1
  Te  Te148  1  0.91798026  0.59908216  0.43177444  1
  Te  Te149  1  0.88917645  0.59637569  0.75591117  1
  Te  Te150  1  0.93167870  0.93443253  0.11077389  1
  Te  Te151  1  0.91913380  0.89921049  0.39777736  1
  Te  Te152  1  0.92581888  0.91139835  0.75319082  1
  Te  Te153  1  0.26231795  0.06565722  0.25231766  1
  Te  Te154  1  0.25486563  0.02450520  0.58863514  1
  Te  Te155  1  0.23332152  0.07297346  0.89712279  1
  Te  Te156  1  0.26668936  0.42143587  0.24717019  1
  Te  Te157  1  0.24840770  0.40531051  0.59114878  1
  Te  Te158  1  0.25004685  0.42584488  0.92365797  1
  Te  Te159  1  0.24447586  0.75330992  0.25985861  1
  Te  Te160  1  0.29617392  0.79421966  0.64979125  1
  Te  Te161  1  0.27498934  0.74780155  0.93047321  1
  Te  Te162  1  0.60150758  0.08668412  0.23319344  1
  Te  Te163  1  0.57095051  0.06277517  0.59989037  1
  Te  Te164  1  0.54342544  0.08857865  0.88511769  1
  Te  Te165  1  0.59984867  0.40682305  0.21498501  1
  Te  Te166  1  0.58407137  0.41243297  0.58244934  1
  Te  Te167  1  0.60387096  0.44825395  0.88838861  1
  Te  Te168  1  0.59589724  0.74232175  0.24803393  1
  Te  Te169  1  0.61340347  0.72362951  0.58204614  1
  Te  Te170  1  0.55723174  0.75901313  0.92078410  1
  Te  Te171  1  0.93594107  0.08627882  0.28783342  1
  Te  Te172  1  0.91873001  0.09127499  0.55911715  1
  Te  Te173  1  0.89613741  0.07634976  0.90782910  1
  Te  Te174  1  0.91993830  0.42922451  0.24832962  1
  Te  Te175  1  0.91691999  0.42162841  0.59682067  1
  Te  Te176  1  0.89995596  0.41753687  0.92439402  1
  Te  Te177  1  0.90651476  0.74507710  0.25217091  1
  Te  Te178  1  0.89913068  0.76036396  0.58702413  1
  Te  Te179  1  0.90557590  0.75932972  0.90028946  1
