# generated using pymatgen
data_In2Te3
_symmetry_space_group_name_H-M   'P 1'
_cell_length_a   18.73136792
_cell_length_b   18.73528136
_cell_length_c   18.72746995
_cell_angle_alpha   90.04793800
_cell_angle_beta   90.01317027
_cell_angle_gamma   90.07403086
_symmetry_Int_Tables_number   1
_chemical_formula_structural   In2Te3
_chemical_formula_sum   'In72 Te108'
_cell_volume   6572.16255185
_cell_formula_units_Z   36
loop_
 _symmetry_equiv_pos_site_id
 _symmetry_equiv_pos_as_xyz
  1  'x, y, z'
loop_
 _atom_site_type_symbol
 _atom_site_label
 _atom_site_symmetry_multiplicity
 _atom_site_fract_x
 _atom_site_fract_y
 _atom_site_fract_z
 _atom_site_occupancy
  In  In0  1  0.33639216  0.68959266  0.65155306  1
  In  In1  1  0.51504412  0.16190717  0.68224066  1
  In  In2  1  0.64938087  0.67145414  0.00428871  1
  In  In3  1  0.81664997  0.32484639  0.50636583  1
  In  In4  1  0.84136959  -0.00129990  0.50374864  1
  In  In5  1  0.14274963  0.84343409  0.34832261  1
  In  In6  1  0.67075579  0.83187403  0.50413940  1
  In  In7  1  0.35045728  0.67385962  0.31676642  1
  In  In8  1  0.16422934  0.69821948  0.82375312  1
  In  In9  1  0.65367112  0.00703309  0.68534500  1
  In  In10  1  0.68360056  0.32096087  -0.01418687  1
  In  In11  1  0.00652983  0.69546052  0.67450237  1
  In  In12  1  0.67265925  0.83843124  0.17065659  1
  In  In13  1  0.02248930  0.17405523  0.15212980  1
  In  In14  1  0.65840786  0.00022561  0.33893447  1
  In  In15  1  0.19076998  0.69857184  0.50473962  1
  In  In16  1  -0.02230716  0.47711430  0.85689853  1
  In  In17  1  0.66657938  0.48202093  0.83645245  1
  In  In18  1  0.83513564  0.67356214  0.50345043  1
  In  In19  1  0.67635573  0.03169044  -0.01759221  1
  In  In20  1  -0.00190445  0.66516469  0.34110676  1
  In  In21  1  -0.00817722  0.00926798  0.67919564  1
  In  In22  1  0.52228531  0.64965096  0.48772781  1
  In  In23  1  0.32009464  0.66084446  -0.03960088  1
  In  In24  1  0.32700042  0.32128612  -0.00257342  1
  In  In25  1  0.83794291  0.33001754  0.16769819  1
  In  In26  1  0.49047917  0.67096481  0.82394590  1
  In  In27  1  -0.00953393  -0.00144311  0.34907731  1
  In  In28  1  0.83819169  0.85095938  -0.00999140  1
  In  In29  1  0.83322434  0.68748839  0.83045534  1
  In  In30  1  -0.02184132  0.29297441  0.70859077  1
  In  In31  1  0.16327764  0.15956634  0.67445273  1
  In  In32  1  0.49079366  0.83164479  -0.02732978  1
  In  In33  1  0.14465393  0.30438363  0.85697929  1
  In  In34  1  -0.02397927  0.66616035  -0.01584902  1
  In  In35  1  0.50153490  0.16780120  -0.01968700  1
  In  In36  1  0.35726433  0.86754323  0.54432847  1
  In  In37  1  0.34600965  0.49622148  0.50410562  1
  In  In38  1  0.32520314  0.84602093  0.12736810  1
  In  In39  1  0.50355319  0.32565051  0.16987371  1
  In  In40  1  0.52045982  0.32588901  0.51200507  1
  In  In41  1  0.34407549  0.15991095  0.51713196  1
  In  In42  1  0.37307793  0.47606493  0.81488955  1
  In  In43  1  0.15722612  0.48214329  0.01560935  1
  In  In44  1  0.66207175  0.32339625  0.67105011  1
  In  In45  1  0.81832397  -0.00466613  0.14962036  1
  In  In46  1  0.82166027  0.49612636  0.66098619  1
  In  In47  1  0.33090048  0.02567864  0.33742078  1
  In  In48  1  0.52046270  0.65179898  0.16642899  1
  In  In49  1  0.34151045  0.16075688  0.82846408  1
  In  In50  1  -0.01663033  0.84400230  0.16678289  1
  In  In51  1  0.84326748  0.47416039  -0.00696866  1
  In  In52  1  0.80478330  0.63293704  0.19169408  1
  In  In53  1  0.17204795  0.50532208  0.67216725  1
  In  In54  1  -0.00685330  0.15692511  0.49468323  1
  In  In55  1  0.17254626  0.35202759  0.49641838  1
  In  In56  1  0.18688867  0.47234538  0.32233748  1
  In  In57  1  0.33481208  0.33425793  0.34212871  1
  In  In58  1  0.50618813  0.00631215  0.17274820  1
  In  In59  1  0.82534874  0.15871789  0.33606540  1
  In  In60  1  0.66031809  0.33231751  0.34397373  1
  In  In61  1  -0.00095782  0.45547417  0.16894843  1
  In  In62  1  0.15516647  0.01228244  0.50178194  1
  In  In63  1  0.33699242  0.47412941  0.18964695  1
  In  In64  1  0.50356927  0.82836592  0.34750914  1
  In  In65  1  0.14996372  0.87019583  -0.02469477  1
  In  In66  1  0.32596311  -0.00899034  -0.02580320  1
  In  In67  1  0.16474148  0.66682409  0.15772129  1
  In  In68  1  0.67082275  0.67419785  0.66993782  1
  In  In69  1  0.32174092  0.17915289  0.16689635  1
  In  In70  1  0.00286160  0.49322735  0.48989429  1
  In  In71  1  0.84144507  0.01727528  0.83969286  1
  Te  Te72  1  0.06812415  0.09057984  0.03486369  1
  Te  Te73  1  0.09452461  0.10291162  0.39391908  1
  Te  Te74  1  0.10331333  0.06055709  0.77144404  1
  Te  Te75  1  0.07583988  0.37147112  0.07293832  1
  Te  Te76  1  0.07043827  0.39659148  0.39227964  1
  Te  Te77  1  0.08130082  0.41248740  0.75382272  1
  Te  Te78  1  0.08220381  0.75864559  0.07006160  1
  Te  Te79  1  0.06053929  0.75922518  0.44479605  1
  Te  Te80  1  0.07762401  0.79736311  0.75754317  1
  Te  Te81  1  0.41155929  0.08123714  0.07652588  1
  Te  Te82  1  0.43296966  0.08339314  0.42583255  1
  Te  Te83  1  0.40831752  0.06493996  0.73284261  1
  Te  Te84  1  0.41991899  0.41467952  0.07611062  1
  Te  Te85  1  0.43851943  0.42030278  0.41193974  1
  Te  Te86  1  0.42905508  0.40312147  0.70216586  1
  Te  Te87  1  0.41978264  0.73541965  0.07763412  1
  Te  Te88  1  0.40271574  0.75030687  0.43936712  1
  Te  Te89  1  0.41219866  0.77960660  0.75160074  1
  Te  Te90  1  0.75619111  0.10919145  0.07862642  1
  Te  Te91  1  0.73677439  0.08955975  0.43809150  1
  Te  Te92  1  0.74670049  0.10356541  0.75907848  1
  Te  Te93  1  0.73957317  0.42161032  0.09011327  1
  Te  Te94  1  0.74031185  0.42544746  0.43037594  1
  Te  Te95  1  0.77179301  0.39819339  0.76508182  1
  Te  Te96  1  0.76679013  0.74793054  0.08086827  1
  Te  Te97  1  0.74962448  0.75128940  0.40848958  1
  Te  Te98  1  0.75488720  0.77430119  0.74046973  1
  Te  Te99  1  0.09189102  0.28205782  0.22711970  1
  Te  Te100  1  0.08226332  0.25396502  0.58171733  1
  Te  Te101  1  0.05613733  0.20467383  0.92411603  1
  Te  Te102  1  0.08539222  0.57470493  0.24984897  1
  Te  Te103  1  0.08586084  0.59015120  0.57796015  1
  Te  Te104  1  0.08996680  0.58816963  0.91636824  1
  Te  Te105  1  0.08312588  0.93340333  0.24141554  1
  Te  Te106  1  0.06593187  0.92459778  0.57885577  1
  Te  Te107  1  0.07398209  0.97139784  0.89951297  1
  Te  Te108  1  0.42440732  0.23593871  0.26606997  1
  Te  Te109  1  0.41494773  0.26325449  0.60684234  1
  Te  Te110  1  0.42726257  0.27004967  0.89326093  1
  Te  Te111  1  0.43780602  0.56302838  0.26437023  1
  Te  Te112  1  0.43158136  0.58355540  0.59570410  1
  Te  Te113  1  0.43552149  0.56695291  0.92191412  1
  Te  Te114  1  0.41572916  0.90327519  0.24551536  1
  Te  Te115  1  0.45648224  0.95244743  0.62169226  1
  Te  Te116  1  0.44727069  0.95064439  0.89570658  1
  Te  Te117  1  0.73795183  0.24104029  0.24407195  1
  Te  Te118  1  0.75259069  0.22910688  0.59854188  1
  Te  Te119  1  0.78165820  0.25841166  0.89313481  1
  Te  Te120  1  0.70412125  0.55872748  0.26974091  1
  Te  Te121  1  0.73295957  0.57677071  0.56906552  1
  Te  Te122  1  0.75863930  0.58592988  0.91830963  1
  Te  Te123  1  0.76377027  0.91396952  0.26765645  1
  Te  Te124  1  0.75098150  0.92106815  0.59908746  1
  Te  Te125  1  0.73387680  0.91597913  0.90205067  1
  Te  Te126  1  0.23348712  0.22459609  0.05641445  1
  Te  Te127  1  0.24784526  0.23995599  0.42409741  1
  Te  Te128  1  0.24720050  0.25942539  0.75421886  1
  Te  Te129  1  0.26687745  0.57580170  0.09029593  1
  Te  Te130  1  0.24707967  0.58197675  0.41640373  1
  Te  Te131  1  0.26424308  0.59562273  0.75539244  1
  Te  Te132  1  0.22261742  0.94790753  0.08812410  1
  Te  Te133  1  0.25753730  0.91355197  0.42243620  1
  Te  Te134  1  0.28172057  0.86833789  0.74839114  1
  Te  Te135  1  0.59172882  0.23743728  0.08086425  1
  Te  Te136  1  0.58556959  0.22884994  0.42186947  1
  Te  Te137  1  0.58163317  0.25604455  0.77714388  1
  Te  Te138  1  0.59589179  0.55760271  0.08015303  1
  Te  Te139  1  0.61484450  0.58013287  0.39835249  1
  Te  Te140  1  0.58289860  0.57499222  0.74784247  1
  Te  Te141  1  0.58456411  0.91555262  0.07385088  1
  Te  Te142  1  0.56698313  0.92963701  0.44033360  1
  Te  Te143  1  0.55513153  0.90116346  0.72584566  1
  Te  Te144  1  0.90663228  0.23528285  0.07599095  1
  Te  Te145  1  0.91679861  0.25734141  0.40826637  1
  Te  Te146  1  0.88305388  0.20444008  0.78392778  1
  Te  Te147  1  0.92119709  0.57656711  0.09413127  1
  Te  Te148  1  0.89902514  0.56865933  0.40717847  1
  Te  Te149  1  0.92150270  0.58180346  0.75085470  1
  Te  Te150  1  0.93417533  0.94454864  0.06286823  1
  Te  Te151  1  0.90953405  0.89787131  0.41922764  1
  Te  Te152  1  0.90148243  0.91415207  0.75017787  1
  Te  Te153  1  0.23485470  0.08721956  0.24552124  1
  Te  Te154  1  0.25915624  0.06308814  0.60218950  1
  Te  Te155  1  0.23658090  0.08581747  0.90335704  1
  Te  Te156  1  0.23091582  0.36495119  0.21768467  1
  Te  Te157  1  0.26752886  0.40744827  0.60312316  1
  Te  Te158  1  0.24917994  0.42526870  0.90497095  1
  Te  Te159  1  0.24183154  0.76145453  0.25065697  1
  Te  Te160  1  0.22777485  0.80416484  0.61739029  1
  Te  Te161  1  0.26632570  0.79286698  0.90436951  1
  Te  Te162  1  0.59387858  0.09738696  0.24761042  1
  Te  Te163  1  0.59404163  0.09252562  0.57714759  1
  Te  Te164  1  0.57702778  0.08205051  0.88451235  1
  Te  Te165  1  0.58872205  0.42250352  0.24576612  1
  Te  Te166  1  0.58682262  0.42896879  0.59686633  1
  Te  Te167  1  0.57537973  0.39943195  0.91814105  1
  Te  Te168  1  0.59810070  0.74240481  0.26346095  1
  Te  Te169  1  0.56768527  0.75483932  0.58957297  1
  Te  Te170  1  0.59873233  0.75886964  0.89094278  1
  Te  Te171  1  0.91994060  0.08494150  0.24079098  1
  Te  Te172  1  0.89901240  0.10460348  0.60067721  1
  Te  Te173  1  0.92779185  0.11176084  0.92003040  1
  Te  Te174  1  0.89559692  0.42394332  0.26816664  1
  Te  Te175  1  0.92919548  0.40796377  0.59447536  1
  Te  Te176  1  0.91831476  0.36002217  0.93099822  1
  Te  Te177  1  0.90433546  0.74370628  0.24848688  1
  Te  Te178  1  0.89952439  0.76602820  0.60096626  1
  Te  Te179  1  0.93833873  0.78223970  0.89472078  1
