# generated using pymatgen
data_In2Te3
_symmetry_space_group_name_H-M   'P 1'
_cell_length_a   18.92456902
_cell_length_b   18.92110032
_cell_length_c   18.90778624
_cell_angle_alpha   90.12138235
_cell_angle_beta   89.95473457
_cell_angle_gamma   89.95134026
_symmetry_Int_Tables_number   1
_chemical_formula_structural   In2Te3
_chemical_formula_sum   'In72 Te108'
_cell_volume   6770.36063384
_cell_formula_units_Z   36
loop_
 _symmetry_equiv_pos_site_id
 _symmetry_equiv_pos_as_xyz
  1  'x, y, z'
loop_
 _atom_site_type_symbol
 _atom_site_label
 _atom_site_symmetry_multiplicity
 _atom_site_fract_x
 _atom_site_fract_y
 _atom_site_fract_z
 _atom_site_occupancy
  In  In0  1  0.67090167  -0.00493447  0.31785541  1
  In  In1  1  0.67121960  0.35605744  0.02485722  1
  In  In2  1  0.16305856  0.32551272  0.49494652  1
  In  In3  1  0.84000049  0.01186291  0.82501576  1
  In  In4  1  0.02072476  0.64283853  0.33668452  1
  In  In5  1  0.34855355  0.16088470  0.49583882  1
  In  In6  1  0.33872091  0.33301607  0.63889473  1
  In  In7  1  0.49421166  0.52548401  0.63012357  1
  In  In8  1  0.38266543  0.23622422  0.16326797  1
  In  In9  1  0.66834588  0.84018317  0.82270622  1
  In  In10  1  0.18704764  0.63785209  0.83110381  1
  In  In11  1  0.81472037  0.35326078  0.48265608  1
  In  In12  1  0.50012196  0.67400582  0.16101124  1
  In  In13  1  0.18009934  0.48953285  0.67921041  1
  In  In14  1  0.18046592  0.16117264  0.31011514  1
  In  In15  1  0.65478472  0.49824787  0.46580728  1
  In  In16  1  -0.00807581  0.82620384  0.83296877  1
  In  In17  1  0.34795971  0.82202278  0.47570945  1
  In  In18  1  0.17947573  0.82115494  0.34732383  1
  In  In19  1  0.50253016  0.35172943  0.80735406  1
  In  In20  1  -0.01554457  0.47438003  0.19667259  1
  In  In21  1  0.48320370  0.80156994  0.34941323  1
  In  In22  1  0.18981359  0.34652990  0.16769630  1
  In  In23  1  0.64596699  0.51381805  0.83360180  1
  In  In24  1  0.14122109  -0.00504895  0.52537565  1
  In  In25  1  0.66541871  0.65371281  0.00699253  1
  In  In26  1  0.84306820  0.01266079  0.51096122  1
  In  In27  1  0.30808810  0.33741641  0.00290947  1
  In  In28  1  0.51409738  -0.00058927  0.80585434  1
  In  In29  1  0.49900144  0.35323761  0.47223686  1
  In  In30  1  0.80425245  0.81989376  0.01657067  1
  In  In31  1  0.66636038  0.32316316  0.32519984  1
  In  In32  1  0.00578831  0.63299582  0.04298982  1
  In  In33  1  0.67928486  0.30761030  0.66086402  1
  In  In34  1  0.33799030  0.82429527  0.81993826  1
  In  In35  1  0.15609638  -0.01484232  0.14856605  1
  In  In36  1  -0.00121374  0.19107998  0.15250357  1
  In  In37  1  0.51919748  0.02939453  0.49821751  1
  In  In38  1  0.46612474  0.65343162  0.83885968  1
  In  In39  1  0.84389912  0.17817717  0.68821499  1
  In  In40  1  0.19240870  0.66810982  0.51528410  1
  In  In41  1  -0.00369413  0.81680273  0.19904768  1
  In  In42  1  0.50924718  -0.01130947  0.17119581  1
  In  In43  1  0.83277987  0.17784095  0.00114610  1
  In  In44  1  0.00942610  0.86449913  0.52768947  1
  In  In45  1  0.50625165  0.83233577  0.01637064  1
  In  In46  1  0.68511558  0.15611953  0.83448879  1
  In  In47  1  0.18157132  0.51035566  0.00954691  1
  In  In48  1  0.35934409  -0.00440124  0.33430212  1
  In  In49  1  0.33436276  0.01029588  -0.00272286  1
  In  In50  1  0.35284795  0.48854153  0.16706748  1
  In  In51  1  0.83530224  0.19486000  0.32455528  1
  In  In52  1  0.78201263  0.83621592  0.64783870  1
  In  In53  1  0.33091568  0.14886348  0.82866386  1
  In  In54  1  0.14998532  0.82007913  -0.00707475  1
  In  In55  1  0.16360851  0.35040416  0.84463197  1
  In  In56  1  0.33048865  -0.01238178  0.66934933  1
  In  In57  1  0.51120728  0.18747608  -0.01160493  1
  In  In58  1  -0.00767981  0.00927155  0.37201196  1
  In  In59  1  0.84365771  0.66359327  0.86414992  1
  In  In60  1  0.00600349  0.47884218  0.49917808  1
  In  In61  1  0.82724804  0.01257334  0.16492151  1
  In  In62  1  0.64158542  0.51581163  0.18514841  1
  In  In63  1  -0.03295116  0.00413288  -0.01440424  1
  In  In64  1  0.80559074  0.78926903  0.34320857  1
  In  In65  1  -0.02645134  0.18542212  0.51775766  1
  In  In66  1  0.14196739  0.15639568  0.69787055  1
  In  In67  1  -0.00621917  0.67893593  0.67526017  1
  In  In68  1  0.80990831  0.65927673  0.49693662  1
  In  In69  1  0.33539513  0.66867807  0.33467228  1
  In  In70  1  -0.00595345  0.32842478  -0.02201804  1
  In  In71  1  0.82711589  0.50047958  0.67886682  1
  Te  Te72  1  0.06823585  0.08243683  0.07153260  1
  Te  Te73  1  0.08713050  0.11284352  0.43020254  1
  Te  Te74  1  0.03607035  0.09182617  0.77389840  1
  Te  Te75  1  0.08740314  0.41146917  0.07558501  1
  Te  Te76  1  0.09876851  0.41994682  0.40249608  1
  Te  Te77  1  0.07446970  0.41762634  0.74991190  1
  Te  Te78  1  0.09272331  0.73908754  0.10985618  1
  Te  Te79  1  0.06996452  0.75970540  0.43265663  1
  Te  Te80  1  0.09844732  0.74556232  0.76108342  1
  Te  Te81  1  0.42229674  0.09970995  0.08562967  1
  Te  Te82  1  0.44151575  0.10972149  0.38664845  1
  Te  Te83  1  0.42644965  0.09291481  0.72460432  1
  Te  Te84  1  0.42167761  0.37128602  0.09661184  1
  Te  Te85  1  0.38698904  0.39692624  0.38650526  1
  Te  Te86  1  0.41127930  0.43783580  0.72339036  1
  Te  Te87  1  0.40739363  0.73724152  0.06529661  1
  Te  Te88  1  0.46694191  0.72765637  0.48451977  1
  Te  Te89  1  0.41712285  0.73898747  0.72928014  1
  Te  Te90  1  0.74458273  0.08152964  0.06717957  1
  Te  Te91  1  0.76512825  0.08514248  0.40173612  1
  Te  Te92  1  0.73687542  0.06389766  0.72315916  1
  Te  Te93  1  0.75057837  0.44354535  0.11432523  1
  Te  Te94  1  0.76519136  0.44398992  0.36683452  1
  Te  Te95  1  0.73304982  0.41168128  0.75822311  1
  Te  Te96  1  0.75799349  0.71407517  0.10561391  1
  Te  Te97  1  0.69804770  0.73620874  0.43294208  1
  Te  Te98  1  0.75811858  0.73113092  0.76153787  1
  Te  Te99  1  0.08727200  0.26464913  0.25068892  1
  Te  Te100  1  0.07717221  0.25782831  0.60114747  1
  Te  Te101  1  0.10817215  0.24698779  0.93149695  1
  Te  Te102  1  0.09262296  0.56698282  0.23435052  1
  Te  Te103  1  0.07672929  0.58675074  0.58707422  1
  Te  Te104  1  0.07664943  0.57570064  0.92136469  1
  Te  Te105  1  0.08239950  0.92667535  0.27178270  1
  Te  Te106  1  0.08873690  0.91835045  0.63871424  1
  Te  Te107  1  0.07602702  0.92563603  0.91131306  1
  Te  Te108  1  0.44890847  0.30083895  0.28280339  1
  Te  Te109  1  0.44462413  0.24653013  0.57557747  1
  Te  Te110  1  0.40650491  0.26227003  0.90164051  1
  Te  Te111  1  0.43379198  0.58055901  0.26301260  1
  Te  Te112  1  0.41505686  0.57561992  0.51436359  1
  Te  Te113  1  0.39865049  0.54705210  0.90912471  1
  Te  Te114  1  0.41501387  0.89178640  0.24116747  1
  Te  Te115  1  0.41880226  0.93180890  0.56038094  1
  Te  Te116  1  0.42741685  0.92328984  0.91105200  1
  Te  Te117  1  0.73661005  0.23769307  0.22614546  1
  Te  Te118  1  0.76874206  0.23269543  0.56454542  1
  Te  Te119  1  0.74326202  0.26717274  0.91710031  1
  Te  Te120  1  0.68202235  0.63381009  0.26524313  1
  Te  Te121  1  0.72858949  0.56754343  0.58474227  1
  Te  Te122  1  0.75697541  0.55839511  0.92874462  1
  Te  Te123  1  0.76301761  0.89853026  0.24361356  1
  Te  Te124  1  0.71732936  0.93097984  0.54264109  1
  Te  Te125  1  0.75441893  0.92269549  0.91896869  1
  Te  Te126  1  0.24738174  0.22880160  0.09104801  1
  Te  Te127  1  0.26212658  0.24684421  0.40551176  1
  Te  Te128  1  0.25397947  0.26030330  0.74289647  1
  Te  Te129  1  0.28289066  0.58765719  0.08143683  1
  Te  Te130  1  0.23039099  0.58851632  0.39914056  1
  Te  Te131  1  0.26877068  0.60066606  0.71430340  1
  Te  Te132  1  0.25525167  0.90178973  0.07073580  1
  Te  Te133  1  0.24304065  0.94284125  0.42321552  1
  Te  Te134  1  0.24809242  0.93348108  0.77704298  1
  Te  Te135  1  0.59641669  0.24774794  0.09204539  1
  Te  Te136  1  0.60330267  0.25460929  0.43914786  1
  Te  Te137  1  0.58169446  0.23472063  0.75150528  1
  Te  Te138  1  0.55704473  0.56824075  0.06735039  1
  Te  Te139  1  0.53730308  0.57838492  0.42292126  1
  Te  Te140  1  0.57463751  0.60235520  0.73442946  1
  Te  Te141  1  0.60469634  0.90778567  0.09281195  1
  Te  Te142  1  0.56638725  0.92201495  0.39979104  1
  Te  Te143  1  0.56830966  0.88806786  0.72485453  1
  Te  Te144  1  0.89673356  0.28165043  0.09189056  1
  Te  Te145  1  0.93260172  0.27968732  0.40494827  1
  Te  Te146  1  0.91425887  0.28138667  0.76476181  1
  Te  Te147  1  0.90099873  0.54457221  0.09526819  1
  Te  Te148  1  0.91493914  0.57612841  0.42415472  1
  Te  Te149  1  0.92498721  0.57911614  0.76583271  1
  Te  Te150  1  0.92463185  0.90488832  0.09644704  1
  Te  Te151  1  0.89825494  0.89693370  0.41408084  1
  Te  Te152  1  0.89396614  0.89679213  0.74295410  1
  Te  Te153  1  0.26096865  0.05881632  0.23401427  1
  Te  Te154  1  0.24473885  0.09856210  0.59005457  1
  Te  Te155  1  0.23502988  0.08437072  0.91758900  1
  Te  Te156  1  0.26652327  0.42219024  0.26980773  1
  Te  Te157  1  0.25410178  0.43037821  0.56022127  1
  Te  Te158  1  0.27928274  0.44750877  0.89781658  1
  Te  Te159  1  0.25849288  0.75563549  0.24403883  1
  Te  Te160  1  0.25372829  0.78234756  0.58086783  1
  Te  Te161  1  0.25662596  0.74006453  0.91901028  1
  Te  Te162  1  0.58460984  0.09064335  0.24608115  1
  Te  Te163  1  0.62589952  0.05408865  0.59564720  1
  Te  Te164  1  0.58641650  0.07494964  0.91750084  1
  Te  Te165  1  0.56308619  0.41064300  0.25963648  1
  Te  Te166  1  0.59529594  0.41256835  0.58667363  1
  Te  Te167  1  0.56884040  0.41926963  0.92379063  1
  Te  Te168  1  0.59047113  0.75567838  0.24914813  1
  Te  Te169  1  0.65225239  0.79483355  0.58185486  1
  Te  Te170  1  0.58709603  0.74404158  0.91108001  1
  Te  Te171  1  0.93499410  0.08559208  0.25198422  1
  Te  Te172  1  0.93622115  0.07407319  0.61266464  1
  Te  Te173  1  0.93129730  0.12020632  0.88820443  1
  Te  Te174  1  0.89496338  0.40242977  0.28826164  1
  Te  Te175  1  0.90790339  0.40571728  0.59097335  1
  Te  Te176  1  0.91214392  0.38803251  0.87319082  1
  Te  Te177  1  0.90618426  0.71150769  0.25760452  1
  Te  Te178  1  0.90124727  0.75339587  0.57816564  1
  Te  Te179  1  0.93315259  0.74930864  0.95310476  1
