# generated using pymatgen
data_In2Te3
_symmetry_space_group_name_H-M   'P 1'
_cell_length_a   18.78374728
_cell_length_b   18.76346844
_cell_length_c   18.77742007
_cell_angle_alpha   90.00367686
_cell_angle_beta   90.09290198
_cell_angle_gamma   90.05030259
_symmetry_Int_Tables_number   1
_chemical_formula_structural   In2Te3
_chemical_formula_sum   'In72 Te108'
_cell_volume   6618.05756359
_cell_formula_units_Z   36
loop_
 _symmetry_equiv_pos_site_id
 _symmetry_equiv_pos_as_xyz
  1  'x, y, z'
loop_
 _atom_site_type_symbol
 _atom_site_label
 _atom_site_symmetry_multiplicity
 _atom_site_fract_x
 _atom_site_fract_y
 _atom_site_fract_z
 _atom_site_occupancy
  In  In0  1  0.70795215  0.17600002  0.51271486  1
  In  In1  1  0.49941763  0.50679950  0.32698412  1
  In  In2  1  0.81104324  0.01768536  0.48575919  1
  In  In3  1  0.00971699  0.46401578  0.49701866  1
  In  In4  1  0.34157466  0.32835945  -0.00336188  1
  In  In5  1  0.35322882  0.81641603  0.49921748  1
  In  In6  1  0.83714588  0.31254614  0.83260760  1
  In  In7  1  0.36023652  0.66753256  0.01689890  1
  In  In8  1  0.51601277  0.15212240  0.32335575  1
  In  In9  1  0.68199339  -0.00207827  0.65639561  1
  In  In10  1  0.81127571  0.31061449  0.18890442  1
  In  In11  1  0.16919624  0.16814237  0.01894679  1
  In  In12  1  0.01368598  0.01195137  0.00015999  1
  In  In13  1  0.01419397  0.50777595  0.82371646  1
  In  In14  1  0.67258168  0.67910264  0.67087200  1
  In  In15  1  -0.00216159  0.66148572  0.34009585  1
  In  In16  1  0.31565355  0.47214175  0.19495223  1
  In  In17  1  0.51294653  0.31605495  0.83482524  1
  In  In18  1  0.15732417  0.28672917  0.47227564  1
  In  In19  1  -0.01912652  0.84562954  0.50656014  1
  In  In20  1  0.37157317  0.84829655  0.15914055  1
  In  In21  1  0.33760708  0.32335530  0.66976458  1
  In  In22  1  0.66514661  0.15253194  0.83867922  1
  In  In23  1  -0.02805380  0.87721004  0.78567197  1
  In  In24  1  -0.03350038  0.17941849  0.49604149  1
  In  In25  1  0.86051563  0.04032854  0.20053532  1
  In  In26  1  0.34523652  0.17876410  0.82811243  1
  In  In27  1  0.32211762  0.02283536  0.66530702  1
  In  In28  1  0.67682471  0.32182758  0.33001495  1
  In  In29  1  0.50737542  0.67302512  0.48038219  1
  In  In30  1  0.53471939  0.29900634  0.14463343  1
  In  In31  1  0.35895916  0.65518079  0.35710231  1
  In  In32  1  0.16501826  0.65766983  0.17794330  1
  In  In33  1  0.81195933  0.49481307  0.31395267  1
  In  In34  1  0.64184993  0.48368598  0.48899429  1
  In  In35  1  -0.00311684  0.16339015  0.81592561  1
  In  In36  1  0.84114718  0.48378117  0.66575622  1
  In  In37  1  0.18098768  0.68991270  0.82327124  1
  In  In38  1  0.16092962  0.34541654  0.82771222  1
  In  In39  1  0.81554690  0.68605137  0.83456522  1
  In  In40  1  0.65209819  0.83945076  0.83956802  1
  In  In41  1  0.81505022  0.15241766  -0.00588958  1
  In  In42  1  0.53628936  -0.00629211  0.47048678  1
  In  In43  1  0.16633806  0.82330509  0.00887462  1
  In  In44  1  0.63998524  0.86116179  0.15358057  1
  In  In45  1  0.15547222  0.03513228  0.49012331  1
  In  In46  1  0.83250783  0.68031517  0.50057891  1
  In  In47  1  0.32478441  0.49197716  0.48259544  1
  In  In48  1  0.33076016  0.01009945  0.31977467  1
  In  In49  1  0.48379480  0.33255072  0.51780092  1
  In  In50  1  0.65438780  0.67616391  0.00905450  1
  In  In51  1  0.80498807  0.84501405  -0.00743639  1
  In  In52  1  -0.02005407  0.84144832  0.18746020  1
  In  In53  1  0.17344471  0.01200634  0.82307888  1
  In  In54  1  -0.02727347  0.47049998  0.16466645  1
  In  In55  1  0.82048761  0.47508789  0.03323029  1
  In  In56  1  0.50714145  0.84150394  0.67481793  1
  In  In57  1  0.81564783  0.85158979  0.34857395  1
  In  In58  1  0.34140799  0.67180124  0.67166446  1
  In  In59  1  0.51698716  0.49816283  0.67802192  1
  In  In60  1  0.17200600  0.84087030  0.32164438  1
  In  In61  1  0.14794918  0.46438420  0.01293348  1
  In  In62  1  0.18858352  0.01682978  0.18687526  1
  In  In63  1  0.00065592  0.34951882  0.02771837  1
  In  In64  1  0.16674731  0.63265529  0.50544739  1
  In  In65  1  0.51135766  0.52316548  0.01781533  1
  In  In66  1  0.65575522  0.49961089  0.83694414  1
  In  In67  1  0.16243086  0.85689336  0.67928818  1
  In  In68  1  0.38289818  -0.00845781  -0.01442334  1
  In  In69  1  0.15249372  0.49931219  0.66056054  1
  In  In70  1  0.33445617  0.14049982  0.18107198  1
  In  In71  1  -0.03440114  0.63945560  -0.01121476  1
  Te  Te72  1  0.07112247  0.09691432  0.11335433  1
  Te  Te73  1  0.06201189  0.10739443  0.39803234  1
  Te  Te74  1  0.08932797  0.08756347  0.72937804  1
  Te  Te75  1  0.10841438  0.38007626  0.14043364  1
  Te  Te76  1  0.09842960  0.40235682  0.39642232  1
  Te  Te77  1  0.05789536  0.39719244  0.72805742  1
  Te  Te78  1  0.06742710  0.74747730  0.09819026  1
  Te  Te79  1  0.08992896  0.75463169  0.42014394  1
  Te  Te80  1  0.06923342  0.75671142  0.74620267  1
  Te  Te81  1  0.44300611  0.06933115  0.10058697  1
  Te  Te82  1  0.42057950  0.08340740  0.42119359  1
  Te  Te83  1  0.42609591  0.08098607  0.75401156  1
  Te  Te84  1  0.41984399  0.41718009  0.09509267  1
  Te  Te85  1  0.41485405  0.40222292  0.39959500  1
  Te  Te86  1  0.41943055  0.41524708  0.76092714  1
  Te  Te87  1  0.45959137  0.74838338  0.09444849  1
  Te  Te88  1  0.44386489  0.78062043  0.38222252  1
  Te  Te89  1  0.42242102  0.75545064  0.76048666  1
  Te  Te90  1  0.75276609  0.07488779  0.10396597  1
  Te  Te91  1  0.73419333  0.09976625  0.38594841  1
  Te  Te92  1  0.76655041  0.08345022  0.74829974  1
  Te  Te93  1  0.72109352  0.39118686  0.10045565  1
  Te  Te94  1  0.75733872  0.40664779  0.42797750  1
  Te  Te95  1  0.74185252  0.40631531  0.75308046  1
  Te  Te96  1  0.74777223  0.75588906  0.09895942  1
  Te  Te97  1  0.73599215  0.73919707  0.40565960  1
  Te  Te98  1  0.75690187  0.78753833  0.73762816  1
  Te  Te99  1  0.04944350  0.24900385  0.18781268  1
  Te  Te100  1  0.07048691  0.24388517  0.58220537  1
  Te  Te101  1  0.07935550  0.25157839  0.92637769  1
  Te  Te102  1  0.06946150  0.56354314  0.24833158  1
  Te  Te103  1  0.04987236  0.58676335  0.58884446  1
  Te  Te104  1  0.09617651  0.59483053  0.92299412  1
  Te  Te105  1  0.07433105  0.93820799  0.25860444  1
  Te  Te106  1  0.07806679  0.93818818  0.58288862  1
  Te  Te107  1  0.08778595  0.91144477  0.91009398  1
  Te  Te108  1  0.42931777  0.24822566  0.24140263  1
  Te  Te109  1  0.40737840  0.22464725  0.58509912  1
  Te  Te110  1  0.43912248  0.22724173  0.93930279  1
  Te  Te111  1  0.41388340  0.58969480  0.23187781  1
  Te  Te112  1  0.42529372  0.57553067  0.57393221  1
  Te  Te113  1  0.42346590  0.58144496  0.91497862  1
  Te  Te114  1  0.44884387  0.94284078  0.24964829  1
  Te  Te115  1  0.42312619  0.92772347  0.57510111  1
  Te  Te116  1  0.46372045  0.89088556  0.91774758  1
  Te  Te117  1  0.72651393  0.20253077  0.25223291  1
  Te  Te118  1  0.79848635  0.25807761  0.59645818  1
  Te  Te119  1  0.73279633  0.26351310  0.93015719  1
  Te  Te120  1  0.72219445  0.56885835  0.22660382  1
  Te  Te121  1  0.73679883  0.57141726  0.58365532  1
  Te  Te122  1  0.75311680  0.57992293  0.92660215  1
  Te  Te123  1  0.75358688  0.93416489  0.23693798  1
  Te  Te124  1  0.74300305  0.90697009  0.55734662  1
  Te  Te125  1  0.73808979  0.94268990  0.90622014  1
  Te  Te126  1  0.26152839  0.25428675  0.10308849  1
  Te  Te127  1  0.27404567  0.26015249  0.38596160  1
  Te  Te128  1  0.23215548  0.23911855  0.74564914  1
  Te  Te129  1  0.24670681  0.56978988  0.08377317  1
  Te  Te130  1  0.23517221  0.57021201  0.38544491  1
  Te  Te131  1  0.25203876  0.57495580  0.75023057  1
  Te  Te132  1  0.25602359  0.92533183  0.08348474  1
  Te  Te133  1  0.25363302  0.91823382  0.42604049  1
  Te  Te134  1  0.27453762  0.91248710  0.76480213  1
  Te  Te135  1  0.58978370  0.19865458  0.05149164  1
  Te  Te136  1  0.58136882  0.25140095  0.42916550  1
  Te  Te137  1  0.58746004  0.23235138  0.73982351  1
  Te  Te138  1  0.60741146  0.58348230  0.11938485  1
  Te  Te139  1  0.60592491  0.59571903  0.39108233  1
  Te  Te140  1  0.57553332  0.60935386  0.76622730  1
  Te  Te141  1  0.59040847  0.94457029  0.03854370  1
  Te  Te142  1  0.59628888  0.89361134  0.38059972  1
  Te  Te143  1  0.57698539  0.94801289  0.75792742  1
  Te  Te144  1  0.90678810  0.24304767  0.08219218  1
  Te  Te145  1  0.89758456  0.25093453  0.38453599  1
  Te  Te146  1  0.90208831  0.23556561  0.72167787  1
  Te  Te147  1  0.89119218  0.58822482  0.11064300  1
  Te  Te148  1  0.90961266  0.56717592  0.42282412  1
  Te  Te149  1  0.90759362  0.59238851  0.75291822  1
  Te  Te150  1  0.91224315  0.92701088  0.07987495  1
  Te  Te151  1  0.92499837  0.94149779  0.40458528  1
  Te  Te152  1  0.88858318  0.97528138  0.71233721  1
  Te  Te153  1  0.22417990  0.12502593  0.29123280  1
  Te  Te154  1  0.25602472  0.11290444  0.56719918  1
  Te  Te155  1  0.26017504  0.08208007  0.93082629  1
  Te  Te156  1  0.24570716  0.37881389  0.28892357  1
  Te  Te157  1  0.24124048  0.40625704  0.57720088  1
  Te  Te158  1  0.25941141  0.42501539  0.91127042  1
  Te  Te159  1  0.26689008  0.75544566  0.23924031  1
  Te  Te160  1  0.23835653  0.75109871  0.58599515  1
  Te  Te161  1  0.27376261  0.75924896  0.92301428  1
  Te  Te162  1  0.55326608  0.05473923  0.21595668  1
  Te  Te163  1  0.59313967  0.09221161  0.57381652  1
  Te  Te164  1  0.59587839  0.07709817  0.95128479  1
  Te  Te165  1  0.58225662  0.40764066  0.24569247  1
  Te  Te166  1  0.59670124  0.39202087  0.60342267  1
  Te  Te167  1  0.58040120  0.41285945  0.93528429  1
  Te  Te168  1  0.59103043  0.78217789  0.27109856  1
  Te  Te169  1  0.59060729  0.76317565  0.57216124  1
  Te  Te170  1  0.55811022  0.76468903  0.93355168  1
  Te  Te171  1  0.94022455  0.14263141  0.28217537  1
  Te  Te172  1  0.91134913  0.06889938  0.58771549  1
  Te  Te173  1  0.91166112  0.07252916  0.90480716  1
  Te  Te174  1  0.91774381  0.38563605  0.28085466  1
  Te  Te175  1  0.90339484  0.38556404  0.56980028  1
  Te  Te176  1  0.91838556  0.42554219  0.91435077  1
  Te  Te177  1  0.89498248  0.74300238  0.26393382  1
  Te  Te178  1  0.90994441  0.75679005  0.59996432  1
  Te  Te179  1  0.92057984  0.76520422  0.91634571  1
