# generated using pymatgen
data_In2Te3
_symmetry_space_group_name_H-M   'P 1'
_cell_length_a   18.94092629
_cell_length_b   18.93857353
_cell_length_c   18.94956617
_cell_angle_alpha   90.16395013
_cell_angle_beta   90.13049431
_cell_angle_gamma   89.99040798
_symmetry_Int_Tables_number   1
_chemical_formula_structural   In2Te3
_chemical_formula_sum   'In72 Te108'
_cell_volume   6797.43150644
_cell_formula_units_Z   36
loop_
 _symmetry_equiv_pos_site_id
 _symmetry_equiv_pos_as_xyz
  1  'x, y, z'
loop_
 _atom_site_type_symbol
 _atom_site_label
 _atom_site_symmetry_multiplicity
 _atom_site_fract_x
 _atom_site_fract_y
 _atom_site_fract_z
 _atom_site_occupancy
  In  In0  1  0.49037916  0.49200904  -0.00118479  1
  In  In1  1  0.51926582  0.65105724  0.80922230  1
  In  In2  1  -0.00291297  0.84869365  0.16254192  1
  In  In3  1  0.03063525  0.17954362  0.50103637  1
  In  In4  1  0.16306009  0.81888261  0.32446385  1
  In  In5  1  0.84681688  0.33919711  0.16196721  1
  In  In6  1  -0.02032889  0.03767139  -0.00984568  1
  In  In7  1  0.65398811  0.49568288  0.17243206  1
  In  In8  1  0.85002840  0.49083080  0.69819885  1
  In  In9  1  0.15655283  0.00378351  0.48695978  1
  In  In10  1  -0.00696722  0.00109250  0.68749950  1
  In  In11  1  0.31970496  0.15967374  0.17087107  1
  In  In12  1  0.82131483  0.02989227  0.12685633  1
  In  In13  1  0.81732584  0.17201337  0.31010244  1
  In  In14  1  0.47774022  0.65625000  0.49714696  1
  In  In15  1  0.50232851  0.32994799  0.85079395  1
  In  In16  1  0.48389620  0.33880238  0.15187136  1
  In  In17  1  0.67432273  0.66351745  0.66190899  1
  In  In18  1  0.49541417  0.31517668  0.48864110  1
  In  In19  1  0.16000402  0.17094148  -0.00957032  1
  In  In20  1  0.00533951  0.51503265  0.48392707  1
  In  In21  1  0.16051784  0.16118542  0.66648081  1
  In  In22  1  0.48573363  0.49951901  0.35665199  1
  In  In23  1  0.67662275  -0.01678185  0.32985751  1
  In  In24  1  0.86211778  0.48559643  -0.04007356  1
  In  In25  1  0.31319163  0.65193591  0.66694358  1
  In  In26  1  0.15317461  0.37137023  0.14783137  1
  In  In27  1  0.86326867  0.18273002  0.76266454  1
  In  In28  1  0.14421702  0.66292629  0.85329948  1
  In  In29  1  0.67856327  0.49268695  0.49715967  1
  In  In30  1  0.68307286  0.34350570  0.66338456  1
  In  In31  1  0.02116866  0.83434641  0.49984024  1
  In  In32  1  0.50267783  0.15474807  0.31375271  1
  In  In33  1  0.82417458  0.35454888  0.48965875  1
  In  In34  1  0.28867089  0.16179210  0.41285339  1
  In  In35  1  -0.00720213  0.82854545  0.85042542  1
  In  In36  1  0.66218837  0.16603916  0.50632471  1
  In  In37  1  0.50484551  0.83487339  0.68813694  1
  In  In38  1  0.65645032  0.82909154  0.16088856  1
  In  In39  1  0.33139675  0.51065649  0.84552495  1
  In  In40  1  0.84997420  -0.01989657  0.51504570  1
  In  In41  1  0.83900168  0.67498773  0.15896879  1
  In  In42  1  0.17997124  0.83378131  0.01132924  1
  In  In43  1  0.68914915  0.85643706  0.86353323  1
  In  In44  1  0.01337371  0.32684456  0.32871695  1
  In  In45  1  0.35633063  -0.00798752  0.33213134  1
  In  In46  1  0.84081340  0.83370152  0.34445473  1
  In  In47  1  0.36303314  0.17821392  0.85395877  1
  In  In48  1  0.84764183  0.82504009  0.67444020  1
  In  In49  1  -0.00264702  0.65375904  -0.01629461  1
  In  In50  1  0.33574937  0.81224047  0.52194315  1
  In  In51  1  0.31810954  -0.01664461  0.66689037  1
  In  In52  1  0.14737742  0.34593577  0.84672134  1
  In  In53  1  0.31783325  0.48431614  0.52403155  1
  In  In54  1  0.66722871  0.84256829  0.47933209  1
  In  In55  1  0.34193360  -0.01597680  0.01504809  1
  In  In56  1  0.66629404  0.32994387  -0.00317032  1
  In  In57  1  0.17609821  0.60865108  0.14347468  1
  In  In58  1  0.51954643  0.00056172  0.86161230  1
  In  In59  1  0.48662749  0.69530352  0.17960710  1
  In  In60  1  0.48898357  0.82069964  0.00243727  1
  In  In61  1  0.16749211  0.50856142  0.32893041  1
  In  In62  1  0.00099365  0.64975833  0.66413500  1
  In  In63  1  0.68757840  0.64433242  -0.00656479  1
  In  In64  1  0.50699624  0.15000479  0.65883197  1
  In  In65  1  0.16931978  -0.01017644  0.81719381  1
  In  In66  1  0.68359435  0.16315561  0.84478149  1
  In  In67  1  -0.00510120  0.17845932  0.15545515  1
  In  In68  1  0.49765402  -0.00435132  0.16960133  1
  In  In69  1  0.32669298  0.33522924  0.68585972  1
  In  In70  1  0.83307807  0.50650591  0.32791423  1
  In  In71  1  0.32056284  0.66117182  0.33160754  1
  Te  Te72  1  0.08940669  0.07848804  0.08816123  1
  Te  Te73  1  0.08123171  0.09174396  0.39645547  1
  Te  Te74  1  0.07261762  0.09888679  0.77263341  1
  Te  Te75  1  0.06483483  0.44054436  0.05208619  1
  Te  Te76  1  0.10454264  0.39808634  0.42653849  1
  Te  Te77  1  0.04520580  0.42753187  0.77371512  1
  Te  Te78  1  0.07546234  0.74534250  0.07930714  1
  Te  Te79  1  0.08681739  0.73495791  0.41552557  1
  Te  Te80  1  0.07719672  0.75542210  0.75144059  1
  Te  Te81  1  0.42292027  0.09449462  0.08139228  1
  Te  Te82  1  0.42344627  0.09209223  0.42615740  1
  Te  Te83  1  0.41510850  0.07157889  0.75592697  1
  Te  Te84  1  0.39077049  0.44034300  0.09498917  1
  Te  Te85  1  0.38994078  0.40019223  0.41937616  1
  Te  Te86  1  0.42389640  0.42405448  0.76020786  1
  Te  Te87  1  0.39011054  0.75226964  0.08542399  1
  Te  Te88  1  0.41430441  0.75661283  0.40390683  1
  Te  Te89  1  0.40879129  0.73856529  0.75209136  1
  Te  Te90  1  0.72551612  0.09160761  0.03321745  1
  Te  Te91  1  0.76564974  0.07370714  0.42162047  1
  Te  Te92  1  0.74742993  0.10021023  0.72955951  1
  Te  Te93  1  0.75593548  0.43691515  0.07533244  1
  Te  Te94  1  0.73186655  0.40693204  0.38281030  1
  Te  Te95  1  0.77008425  0.39067302  0.77176256  1
  Te  Te96  1  0.75430777  0.76058342  0.06618015  1
  Te  Te97  1  0.76051257  0.74397532  0.42679495  1
  Te  Te98  1  0.74595457  0.75372142  0.76048681  1
  Te  Te99  1  0.10138219  0.25085013  0.23440521  1
  Te  Te100  1  0.09368358  0.27212595  0.59588298  1
  Te  Te101  1  0.06119650  0.27181287  0.94401655  1
  Te  Te102  1  0.07225994  0.57575370  0.23980511  1
  Te  Te103  1  0.09599529  0.56847177  0.58704711  1
  Te  Te104  1  0.10004737  0.54489542  0.94680250  1
  Te  Te105  1  0.08851449  0.92126871  0.25082179  1
  Te  Te106  1  0.09131663  0.92581083  0.60058803  1
  Te  Te107  1  0.07900393  0.93144195  0.92663771  1
  Te  Te108  1  0.40586252  0.25443963  0.25339563  1
  Te  Te109  1  0.40900205  0.24609989  0.59223986  1
  Te  Te110  1  0.41847262  0.26932429  0.95420292  1
  Te  Te111  1  0.41437541  0.57771311  0.24803210  1
  Te  Te112  1  0.42142862  0.56523526  0.60186591  1
  Te  Te113  1  0.42494383  0.60392824  0.92005045  1
  Te  Te114  1  0.40801163  0.89857978  0.23182720  1
  Te  Te115  1  0.42723082  0.91612694  0.58549223  1
  Te  Te116  1  0.40934801  0.90539788  0.90342389  1
  Te  Te117  1  0.73891837  0.25205471  0.21478132  1
  Te  Te118  1  0.76724358  0.24703483  0.58104686  1
  Te  Te119  1  0.77233543  0.24941008  0.92974916  1
  Te  Te120  1  0.74137838  0.59732953  0.24574993  1
  Te  Te121  1  0.76890740  0.56934073  0.59018058  1
  Te  Te122  1  0.77192563  0.58164617  0.89077146  1
  Te  Te123  1  0.77090843  0.91596149  0.22959117  1
  Te  Te124  1  0.74610864  0.90688646  0.59398557  1
  Te  Te125  1  0.74193056  0.96996306  0.94016690  1
  Te  Te126  1  0.24423934  0.25573552  0.08282682  1
  Te  Te127  1  0.20526700  0.27862730  0.41964651  1
  Te  Te128  1  0.24439139  0.23756303  0.77772669  1
  Te  Te129  1  0.24216081  0.51852839  0.04479679  1
  Te  Te130  1  0.24501256  0.58697642  0.43749031  1
  Te  Te131  1  0.22349459  0.57076482  0.75860806  1
  Te  Te132  1  0.24329152  0.92754285  0.10614986  1
  Te  Te133  1  0.25727915  0.90893367  0.42328994  1
  Te  Te134  1  0.24954369  0.88701993  0.75180842  1
  Te  Te135  1  0.59990500  0.25778930  0.10743267  1
  Te  Te136  1  0.59451061  0.24549062  0.39756301  1
  Te  Te137  1  0.58037457  0.25488894  0.74149377  1
  Te  Te138  1  0.57480849  0.59670705  0.08611410  1
  Te  Te139  1  0.59037943  0.59001541  0.41927964  1
  Te  Te140  1  0.60193331  0.55796879  0.73394403  1
  Te  Te141  1  0.58246267  0.92111524  0.06686771  1
  Te  Te142  1  0.56872078  0.92021770  0.40477889  1
  Te  Te143  1  0.60186267  0.92827596  0.75771514  1
  Te  Te144  1  0.91487865  0.25650314  0.06027850  1
  Te  Te145  1  0.90665670  0.25070994  0.40782371  1
  Te  Te146  1  0.95597315  0.29747031  0.74066275  1
  Te  Te147  1  0.91338182  0.57016799  0.07924470  1
  Te  Te148  1  0.90474182  0.59739811  0.41702623  1
  Te  Te149  1  0.91879509  0.59732736  0.77515528  1
  Te  Te150  1  0.90849369  0.92369236  0.06078920  1
  Te  Te151  1  0.94235765  0.92734889  0.40816316  1
  Te  Te152  1  0.89819470  0.92592509  0.77641369  1
  Te  Te153  1  0.24882887  0.08817503  0.28322496  1
  Te  Te154  1  0.25467351  0.08760387  0.57288860  1
  Te  Te155  1  0.25802817  0.07366290  0.91530463  1
  Te  Te156  1  0.25120642  0.42373316  0.24381476  1
  Te  Te157  1  0.22507021  0.41029515  0.61128855  1
  Te  Te158  1  0.26079200  0.40639654  0.92656354  1
  Te  Te159  1  0.23484385  0.72528222  0.22538963  1
  Te  Te160  1  0.22782741  0.74136735  0.58838359  1
  Te  Te161  1  0.24793927  0.73633521  0.92690058  1
  Te  Te162  1  0.60787456  0.07890098  0.23423233  1
  Te  Te163  1  0.58798503  0.06171728  0.57554236  1
  Te  Te164  1  0.57626379  0.11468776  0.93482336  1
  Te  Te165  1  0.56564792  0.41184947  0.26136004  1
  Te  Te166  1  0.57747922  0.41032223  0.57475554  1
  Te  Te167  1  0.59736752  0.43390668  0.90935135  1
  Te  Te168  1  0.59115038  0.75148030  0.26501255  1
  Te  Te169  1  0.57235774  0.74673741  0.58259487  1
  Te  Te170  1  0.59177335  0.74672240  0.91404012  1
  Te  Te171  1  0.91347438  0.08092500  0.23825147  1
  Te  Te172  1  0.93189264  0.08959662  0.58115237  1
  Te  Te173  1  0.90618022  0.12594228  0.89320717  1
  Te  Te174  1  0.93598891  0.42789661  0.24705947  1
  Te  Te175  1  0.92245012  0.42542170  0.57642378  1
  Te  Te176  1  0.93339509  0.38448796  0.87072313  1
  Te  Te177  1  0.92989769  0.74734745  0.25587217  1
  Te  Te178  1  0.92119772  0.74433095  0.57213330  1
  Te  Te179  1  0.89899893  0.74826284  0.92821910  1
