# generated using pymatgen
data_In2Te3
_symmetry_space_group_name_H-M   'P 1'
_cell_length_a   18.77141206
_cell_length_b   18.77162954
_cell_length_c   18.76780018
_cell_angle_alpha   89.87800317
_cell_angle_beta   89.95542517
_cell_angle_gamma   89.97534654
_symmetry_Int_Tables_number   1
_chemical_formula_structural   In2Te3
_chemical_formula_sum   'In72 Te108'
_cell_volume   6613.19202142
_cell_formula_units_Z   36
loop_
 _symmetry_equiv_pos_site_id
 _symmetry_equiv_pos_as_xyz
  1  'x, y, z'
loop_
 _atom_site_type_symbol
 _atom_site_label
 _atom_site_symmetry_multiplicity
 _atom_site_fract_x
 _atom_site_fract_y
 _atom_site_fract_z
 _atom_site_occupancy
  In  In0  1  0.84093612  0.00680943  0.14307496  1
  In  In1  1  0.14332410  0.66239371  0.48488391  1
  In  In2  1  0.32015873  0.82789524  0.47350562  1
  In  In3  1  0.85247680  0.17214149  0.01155317  1
  In  In4  1  0.00826303  0.00146541  0.32808512  1
  In  In5  1  0.83491125  0.34317824  0.47351534  1
  In  In6  1  0.34095807  0.33760281  0.33131250  1
  In  In7  1  0.52175214  0.35314054  0.85530795  1
  In  In8  1  0.31968646  0.17285976  0.84760938  1
  In  In9  1  -0.01242403  0.83111722  0.84196962  1
  In  In10  1  0.83946545  0.81375654  0.32618680  1
  In  In11  1  0.66369867  0.01602055  0.33596755  1
  In  In12  1  -0.01368441  0.32731107  0.31981152  1
  In  In13  1  0.33017612  0.83016994  0.18833609  1
  In  In14  1  0.81930581  0.01173703  0.50905889  1
  In  In15  1  0.12760248  0.79458192  0.02060504  1
  In  In16  1  0.16728034  0.84070135  0.64718648  1
  In  In17  1  0.35506092  0.63943926  0.66562974  1
  In  In18  1  0.49411553  -0.00460125  0.18128938  1
  In  In19  1  0.52968846  0.35886751  0.48053619  1
  In  In20  1  0.67985451  0.65543653  -0.00564757  1
  In  In21  1  0.67879792  0.79720351  0.48041675  1
  In  In22  1  0.32737207  0.34464102  0.64280775  1
  In  In23  1  0.15553441  0.65809418  0.84616563  1
  In  In24  1  0.68981591  0.66650024  0.64935769  1
  In  In25  1  0.84290424  0.50011489  0.66947036  1
  In  In26  1  0.15911227  0.51062711  0.32221332  1
  In  In27  1  0.86061749  0.82229122  0.67585701  1
  In  In28  1  0.16567774  0.00348193  0.17875987  1
  In  In29  1  0.70934665  0.01965887  0.01301957  1
  In  In30  1  0.16509539  0.00516424  0.47716748  1
  In  In31  1  0.32770887  0.50600974  0.16162470  1
  In  In32  1  0.67573696  0.00701742  0.66592650  1
  In  In33  1  0.67145171  0.80964864  0.80863352  1
  In  In34  1  0.48806636  0.01390523  0.47812671  1
  In  In35  1  0.65411647  0.80793675  0.19590445  1
  In  In36  1  0.33409185  0.16795178  0.17795157  1
  In  In37  1  0.49802596  0.64266766  0.83176416  1
  In  In38  1  0.51568024  0.49580418  0.64966156  1
  In  In39  1  -0.00892625  0.65118274  0.65704417  1
  In  In40  1  0.84973986  0.17949603  0.64503062  1
  In  In41  1  0.66739413  0.19270377  0.83381744  1
  In  In42  1  0.50481398  0.65670029  0.18893265  1
  In  In43  1  -0.00710235  0.33789543  0.67321916  1
  In  In44  1  0.30307974  -0.02993381  0.65332657  1
  In  In45  1  0.12383863  0.14935661  0.68726751  1
  In  In46  1  0.29849205  0.82237005  0.82020148  1
  In  In47  1  0.33022006  0.51838105  0.82969363  1
  In  In48  1  0.13754795  0.33104452  0.83189539  1
  In  In49  1  0.50644268  0.17091593  0.68632343  1
  In  In50  1  0.53898266  0.20104786  0.04914930  1
  In  In51  1  0.67536042  0.19958293  0.48567149  1
  In  In52  1  0.84368997  0.34568591  0.83958145  1
  In  In53  1  0.14609623  0.50301483  0.02269820  1
  In  In54  1  0.51381382  0.48329806  0.01503111  1
  In  In55  1  0.49387190  0.83414402  0.02938625  1
  In  In56  1  0.15885196  0.18007957  0.00278666  1
  In  In57  1  0.84913954  -0.00419125  0.85635778  1
  In  In58  1  0.81915521  0.47157199  0.01478772  1
  In  In59  1  0.48789844  0.01150492  0.85114453  1
  In  In60  1  0.01317398  0.82162798  0.49998763  1
  In  In61  1  0.33361579  0.66634443  0.32067362  1
  In  In62  1  0.33151971  0.33270115  0.00558049  1
  In  In63  1  0.86618168  0.82420755  0.01123802  1
  In  In64  1  0.30683420  0.01687245  -0.00252142  1
  In  In65  1  0.68107141  0.33236004  0.32231494  1
  In  In66  1  -0.00256424  0.18519087  0.16714801  1
  In  In67  1  0.83022157  0.63915659  0.18955580  1
  In  In68  1  0.15822272  0.35353009  0.49141476  1
  In  In69  1  0.52877783  0.81100096  0.64308015  1
  In  In70  1  0.33811855  0.17144820  0.48155113  1
  In  In71  1  -0.00739257  0.49110696  0.17481264  1
  Te  Te72  1  0.07565057  0.08108005  0.08418768  1
  Te  Te73  1  0.07696412  0.10342886  0.41027509  1
  Te  Te74  1  0.03394191  0.07896472  0.77849595  1
  Te  Te75  1  0.06903666  0.39461139  0.08976803  1
  Te  Te76  1  0.05924244  0.43591926  0.40883390  1
  Te  Te77  1  0.08289216  0.43383478  0.74169463  1
  Te  Te78  1  0.05288523  0.71243314  0.11814342  1
  Te  Te79  1  0.08289590  0.75558115  0.38774417  1
  Te  Te80  1  0.08144809  0.75220722  0.73864841  1
  Te  Te81  1  0.42017466  0.08459834  0.07120075  1
  Te  Te82  1  0.40592788  0.08661189  0.37948967  1
  Te  Te83  1  0.39758850  0.07524572  0.74481388  1
  Te  Te84  1  0.42485417  0.39823325  0.10564219  1
  Te  Te85  1  0.41704734  0.43192025  0.41867830  1
  Te  Te86  1  0.41608698  0.41499562  0.75484018  1
  Te  Te87  1  0.40667406  0.73042198  0.09577429  1
  Te  Te88  1  0.42384601  0.74240388  0.41381184  1
  Te  Te89  1  0.42022460  0.75686012  0.75208488  1
  Te  Te90  1  0.73831840  0.12499158  0.12474122  1
  Te  Te91  1  0.76614587  0.10917353  0.40267507  1
  Te  Te92  1  0.75916761  0.09216450  0.75998751  1
  Te  Te93  1  0.73717918  0.42082909  0.13207981  1
  Te  Te94  1  0.75847200  0.44284855  0.39075027  1
  Te  Te95  1  0.75008436  0.41355976  0.74776724  1
  Te  Te96  1  0.75316827  0.75017725  0.09192247  1
  Te  Te97  1  0.76148609  0.69913607  0.39236546  1
  Te  Te98  1  0.78362751  0.71945343  0.76028715  1
  Te  Te99  1  0.09588228  0.24688894  0.25896466  1
  Te  Te100  1  0.08192236  0.25035082  0.58299819  1
  Te  Te101  1  0.05570368  0.26095093  0.93217777  1
  Te  Te102  1  0.08059422  0.60248809  0.23067978  1
  Te  Te103  1  0.07511189  0.56482420  0.57123972  1
  Te  Te104  1  0.06141089  0.57606172  0.92365406  1
  Te  Te105  1  0.08148048  0.90217523  0.24759516  1
  Te  Te106  1  0.07198496  0.93793577  0.57974125  1
  Te  Te107  1  0.07556445  0.90381985  0.93614990  1
  Te  Te108  1  0.43077428  0.26091312  0.24011234  1
  Te  Te109  1  0.43088197  0.25364476  0.57403590  1
  Te  Te110  1  0.43261114  0.24409327  0.92197780  1
  Te  Te111  1  0.42634484  0.55235314  0.26881183  1
  Te  Te112  1  0.42447524  0.56808594  0.55737658  1
  Te  Te113  1  0.41385072  0.57883083  0.94163066  1
  Te  Te114  1  0.43234368  0.89706236  0.27152346  1
  Te  Te115  1  0.42514859  0.91375625  0.58038405  1
  Te  Te116  1  0.40187634  0.90639145  0.92077381  1
  Te  Te117  1  0.75216644  0.24977122  0.21968479  1
  Te  Te118  1  0.74951884  0.27872596  0.59094765  1
  Te  Te119  1  0.75137784  0.26157009  0.93753544  1
  Te  Te120  1  0.71769746  0.56571044  0.26961277  1
  Te  Te121  1  0.76836739  0.57486757  0.55843260  1
  Te  Te122  1  0.74940521  0.55716697  0.90952402  1
  Te  Te123  1  0.75323278  0.92103597  0.24754088  1
  Te  Te124  1  0.74277864  0.88991483  0.59303284  1
  Te  Te125  1  0.74628401  0.89842671  0.91393528  1
  Te  Te126  1  0.23822478  0.26160479  0.10309040  1
  Te  Te127  1  0.23475335  0.25267247  0.40431142  1
  Te  Te128  1  0.24568524  0.25458430  0.74083155  1
  Te  Te129  1  0.23807545  0.59771749  0.08845502  1
  Te  Te130  1  0.25326384  0.57880463  0.42004129  1
  Te  Te131  1  0.23084109  0.58139480  0.73400680  1
  Te  Te132  1  0.24439504  0.90556053  0.07867272  1
  Te  Te133  1  0.24748957  0.92165361  0.38707460  1
  Te  Te134  1  0.20738794  0.93157819  0.76642679  1
  Te  Te135  1  0.63008419  0.30706574  0.10945041  1
  Te  Te136  1  0.56682364  0.24292811  0.39030582  1
  Te  Te137  1  0.59434989  0.28468866  0.73540776  1
  Te  Te138  1  0.59987423  0.57820216  0.09917080  1
  Te  Te139  1  0.60773351  0.59607444  0.36129372  1
  Te  Te140  1  0.60267738  0.57827016  0.74654037  1
  Te  Te141  1  0.60245929  0.92539013  0.08526841  1
  Te  Te142  1  0.59167870  0.91403939  0.42455918  1
  Te  Te143  1  0.57607940  0.92873351  0.75452484  1
  Te  Te144  1  0.92104754  0.28357011  0.08376383  1
  Te  Te145  1  0.91594872  0.23512165  0.41445971  1
  Te  Te146  1  0.92389967  0.23639206  0.76504763  1
  Te  Te147  1  0.90967975  0.57936305  0.07591367  1
  Te  Te148  1  0.88245122  0.62000675  0.44577008  1
  Te  Te149  1  0.93646742  0.56613763  0.76541906  1
  Te  Te150  1  0.94769542  0.92317346  0.08310717  1
  Te  Te151  1  0.90370679  0.91297399  0.42354309  1
  Te  Te152  1  0.93039503  0.94160033  0.73700827  1
  Te  Te153  1  0.26203283  0.07407874  0.26774135  1
  Te  Te154  1  0.24763995  0.09425574  0.58351542  1
  Te  Te155  1  0.21051634  0.07990030  0.89749914  1
  Te  Te156  1  0.23809937  0.41059980  0.24075248  1
  Te  Te157  1  0.24657829  0.44313841  0.57048731  1
  Te  Te158  1  0.24668155  0.41776941  0.91245754  1
  Te  Te159  1  0.22773271  0.74370730  0.25188851  1
  Te  Te160  1  0.26117100  0.73879710  0.58501563  1
  Te  Te161  1  0.25116236  0.73652744  0.93443223  1
  Te  Te162  1  0.58104080  0.09738517  0.24367827  1
  Te  Te163  1  0.59216396  0.09224523  0.57016658  1
  Te  Te164  1  0.59412804  0.09080053  0.92595870  1
  Te  Te165  1  0.60046653  0.41337837  0.22174214  1
  Te  Te166  1  0.62081471  0.44256019  0.55990278  1
  Te  Te167  1  0.62309396  0.43752072  0.92269398  1
  Te  Te168  1  0.56882578  0.73829106  0.30111386  1
  Te  Te169  1  0.57731320  0.70299610  0.54971764  1
  Te  Te170  1  0.57231605  0.75139644  0.92226258  1
  Te  Te171  1  0.91017600  0.09013884  0.25071553  1
  Te  Te172  1  0.93257035  0.08248263  0.57190666  1
  Te  Te173  1  0.94365966  0.09100917  0.92116557  1
  Te  Te174  1  0.89237533  0.43410966  0.27068463  1
  Te  Te175  1  0.92705498  0.42326283  0.56508464  1
  Te  Te176  1  0.93302881  0.41569712  0.93460650  1
  Te  Te177  1  0.92925195  0.74872708  0.22453361  1
  Te  Te178  1  0.89808759  0.73117848  0.55232983  1
  Te  Te179  1  0.91975488  0.72376722  0.91825055  1
