# generated using pymatgen
data_In2Te3
_symmetry_space_group_name_H-M   'P 1'
_cell_length_a   18.97152321
_cell_length_b   18.96315935
_cell_length_c   18.97580279
_cell_angle_alpha   89.88001452
_cell_angle_beta   90.01127817
_cell_angle_gamma   90.03651940
_symmetry_Int_Tables_number   1
_chemical_formula_structural   In2Te3
_chemical_formula_sum   'In72 Te108'
_cell_volume   6826.71866235
_cell_formula_units_Z   36
loop_
 _symmetry_equiv_pos_site_id
 _symmetry_equiv_pos_as_xyz
  1  'x, y, z'
loop_
 _atom_site_type_symbol
 _atom_site_label
 _atom_site_symmetry_multiplicity
 _atom_site_fract_x
 _atom_site_fract_y
 _atom_site_fract_z
 _atom_site_occupancy
  In  In0  1  0.85151288  0.63053837  0.13630615  1
  In  In1  1  0.18181922  0.82727548  -0.01209490  1
  In  In2  1  0.16451362  0.86914306  0.67287746  1
  In  In3  1  0.36544139  0.64466959  0.29274430  1
  In  In4  1  0.16383893  -0.01735772  0.15377187  1
  In  In5  1  0.50798291  0.00237674  0.18406863  1
  In  In6  1  0.49274309  0.31857222  0.82000485  1
  In  In7  1  0.64699340  0.02560836  0.64520553  1
  In  In8  1  0.82784416  0.66022633  0.86775063  1
  In  In9  1  0.34838204  0.83262030  0.49136004  1
  In  In10  1  0.00605885  0.34883153  0.34130701  1
  In  In11  1  0.15356042  0.66476757  0.16054061  1
  In  In12  1  0.15788873  0.33596011  0.84117683  1
  In  In13  1  0.67697161  0.65918087  0.68262174  1
  In  In14  1  0.69354288  0.81345121  0.15713176  1
  In  In15  1  0.02163449  0.19388039  0.50752512  1
  In  In16  1  0.36235042  0.17308297  0.47852543  1
  In  In17  1  0.65911898  0.47917044  0.48626283  1
  In  In18  1  0.17575270  0.00534584  0.51542471  1
  In  In19  1  0.34031814  0.02703880  0.69158568  1
  In  In20  1  0.00241233  0.81608760  0.83927136  1
  In  In21  1  0.01707962  0.16555287  0.84336042  1
  In  In22  1  0.66173647  0.16935192  0.84427157  1
  In  In23  1  -0.00663229  0.77114585  0.49381149  1
  In  In24  1  0.68974450  0.01337655  0.00191247  1
  In  In25  1  0.18857443  0.18012780  0.33030649  1
  In  In26  1  0.83692424  0.76782610  0.32255406  1
  In  In27  1  -0.00920545  0.33371752  0.67000782  1
  In  In28  1  0.79688088  0.17119663  0.64954579  1
  In  In29  1  0.15583250  0.50654132  0.00636838  1
  In  In30  1  0.84334572  0.33807986  0.16402535  1
  In  In31  1  0.64881137  0.00706836  0.33367555  1
  In  In32  1  0.82637736  0.48137660  0.66408213  1
  In  In33  1  0.62625595  0.49671300  0.16873274  1
  In  In34  1  0.30642470  0.16546760  0.14077531  1
  In  In35  1  0.44990100  0.82577865  -0.06815473  1
  In  In36  1  -0.00209577  0.51097596  0.86696626  1
  In  In37  1  0.52563495  0.66054825  0.50237886  1
  In  In38  1  0.16125917  0.34872335  0.15843599  1
  In  In39  1  0.15404554  0.50353915  0.33133837  1
  In  In40  1  0.64715455  0.21954063  0.47442853  1
  In  In41  1  0.02635819  -0.03897738  0.34727501  1
  In  In42  1  0.52846778  0.84022180  0.31788794  1
  In  In43  1  0.65709139  0.84028039  0.83553242  1
  In  In44  1  0.47687980  0.83472020  0.68338035  1
  In  In45  1  0.67568292  0.84881617  0.49300111  1
  In  In46  1  0.31811247  0.69076317  0.69692842  1
  In  In47  1  0.49697701  0.33539696  0.15561135  1
  In  In48  1  0.85619419  -0.01452304  0.83805826  1
  In  In49  1  0.66594000  0.50345214  0.83634303  1
  In  In50  1  0.33520910  0.67373704  0.02301478  1
  In  In51  1  -0.00556880  0.66675938  0.66398871  1
  In  In52  1  0.49950565  0.51230709  0.66091913  1
  In  In53  1  0.33395792  0.32868327  0.65437052  1
  In  In54  1  0.16375538  0.65296175  0.50586681  1
  In  In55  1  0.32451056  0.52976991  0.84892643  1
  In  In56  1  0.84659280  0.54259528  0.35597171  1
  In  In57  1  0.01012919  0.01626196  0.68034879  1
  In  In58  1  0.86354287  0.15359866  0.32291923  1
  In  In59  1  0.84837857  0.34439293  0.83458236  1
  In  In60  1  0.18050042  0.81817133  0.34726236  1
  In  In61  1  0.66769951  0.13710785  0.19771933  1
  In  In62  1  0.34329702  0.33872876  0.34346269  1
  In  In63  1  0.63884886  0.66116956  0.31565876  1
  In  In64  1  0.33640879  0.49604176  0.50604037  1
  In  In65  1  0.34603088  0.16664734  0.84809287  1
  In  In66  1  0.84153347  -0.01026013  0.49539156  1
  In  In67  1  0.00383131  -0.02138825  0.01206477  1
  In  In68  1  0.82662965  -0.02198688  0.16916872  1
  In  In69  1  0.66187650  0.33031273  0.00019617  1
  In  In70  1  -0.00685287  0.16431476  0.14129475  1
  In  In71  1  0.49713148  0.15464468  -0.00975222  1
  Te  Te72  1  0.09968688  0.08831095  0.06552030  1
  Te  Te73  1  0.08471666  0.08541343  0.41285039  1
  Te  Te74  1  0.10838742  0.08198807  0.76456869  1
  Te  Te75  1  0.05797991  0.44477936  0.10444320  1
  Te  Te76  1  0.09102261  0.42150359  0.43490734  1
  Te  Te77  1  0.06864003  0.42850587  0.76139857  1
  Te  Te78  1  0.08414375  0.72776916  0.04456646  1
  Te  Te79  1  0.07944915  0.71189272  0.38532641  1
  Te  Te80  1  0.09627239  0.75039715  0.74045718  1
  Te  Te81  1  0.41444964  0.07024623  0.08524006  1
  Te  Te82  1  0.42373501  0.08304892  0.38393000  1
  Te  Te83  1  0.44343426  0.11751656  0.74642457  1
  Te  Te84  1  0.42333840  0.44845247  0.09518752  1
  Te  Te85  1  0.43569828  0.40619114  0.44031030  1
  Te  Te86  1  0.40894062  0.43007930  0.75471148  1
  Te  Te87  1  0.40110332  0.80052225  0.07078218  1
  Te  Te88  1  0.43446206  0.74290520  0.40431500  1
  Te  Te89  1  0.41832423  0.74986459  0.79125899  1
  Te  Te90  1  0.77494462  0.09830103  0.09353309  1
  Te  Te91  1  0.75874850  0.08398055  0.41088699  1
  Te  Te92  1  0.75375632  0.06906919  0.75973924  1
  Te  Te93  1  0.73637486  0.42259172  0.09261383  1
  Te  Te94  1  0.76588221  0.42812804  0.39950345  1
  Te  Te95  1  0.73319613  0.39759457  0.75180545  1
  Te  Te96  1  0.74077870  0.70528225  0.06826690  1
  Te  Te97  1  0.72897906  0.72781394  0.42084850  1
  Te  Te98  1  0.75988570  0.75394703  0.76450396  1
  Te  Te99  1  0.07669567  0.24494662  0.24860021  1
  Te  Te100  1  0.09642382  0.24370225  0.62046603  1
  Te  Te101  1  0.04950969  0.28192052  0.92763233  1
  Te  Te102  1  0.06603828  0.56594609  0.23111024  1
  Te  Te103  1  0.07233871  0.57094073  0.58370286  1
  Te  Te104  1  0.09310590  0.61078317  0.92078563  1
  Te  Te105  1  0.08837159  0.88049901  0.23755468  1
  Te  Te106  1  0.06772751  0.90989710  0.56234431  1
  Te  Te107  1  0.09036741  0.92170596  0.90296503  1
  Te  Te108  1  0.39518224  0.25160406  0.23135048  1
  Te  Te109  1  0.43378106  0.26223680  0.57114774  1
  Te  Te110  1  0.41377628  0.26947637  0.94058635  1
  Te  Te111  1  0.44922079  0.55335628  0.21073368  1
  Te  Te112  1  0.40851668  0.61678469  0.58883400  1
  Te  Te113  1  0.42741105  0.58711818  0.93962749  1
  Te  Te114  1  0.41786293  0.91909693  0.26381188  1
  Te  Te115  1  0.40818386  0.93076939  0.58888815  1
  Te  Te116  1  0.37705858  0.95210741  0.88245549  1
  Te  Te117  1  0.76100978  0.24198063  0.25457266  1
  Te  Te118  1  0.74424080  0.27923887  0.56736079  1
  Te  Te119  1  0.76306929  0.24835293  0.92241651  1
  Te  Te120  1  0.73981454  0.57881716  0.23957005  1
  Te  Te121  1  0.74111915  0.57525849  0.57778001  1
  Te  Te122  1  0.72154428  0.58820910  0.94362844  1
  Te  Te123  1  0.74644485  0.90150949  0.27511446  1
  Te  Te124  1  0.75374425  0.92268507  0.59857575  1
  Te  Te125  1  0.76492669  0.90550262  0.92809887  1
  Te  Te126  1  0.22924787  0.26196681  0.06303007  1
  Te  Te127  1  0.24351707  0.26954770  0.43499611  1
  Te  Te128  1  0.25492949  0.25238424  0.76124603  1
  Te  Te129  1  0.25520847  0.56974917  0.10133013  1
  Te  Te130  1  0.27035787  0.59224720  0.40552528  1
  Te  Te131  1  0.24021229  0.57412471  0.73597170  1
  Te  Te132  1  0.26669451  0.90083869  0.08619644  1
  Te  Te133  1  0.25886727  0.92881107  0.41283505  1
  Te  Te134  1  0.26807058  0.91725783  0.76610531  1
  Te  Te135  1  0.59446596  0.22400652  0.08994620  1
  Te  Te136  1  0.55773001  0.30296056  0.39271124  1
  Te  Te137  1  0.57612086  0.22758444  0.73882157  1
  Te  Te138  1  0.53089006  0.56435390  0.07433695  1
  Te  Te139  1  0.55902557  0.56108354  0.39597347  1
  Te  Te140  1  0.56789177  0.59865729  0.76638008  1
  Te  Te141  1  0.60910005  0.92857881  0.09893511  1
  Te  Te142  1  0.56402984  0.93033691  0.43750808  1
  Te  Te143  1  0.57572389  0.93148901  0.74379358  1
  Te  Te144  1  0.93275474  0.27378372  0.06502442  1
  Te  Te145  1  0.91366973  0.25587363  0.42215709  1
  Te  Te146  1  0.90187796  0.22812131  0.74803978  1
  Te  Te147  1  0.93204170  0.53742784  0.05482217  1
  Te  Te148  1  0.93152283  0.63745107  0.43220371  1
  Te  Te149  1  0.90149871  0.57604381  0.75818865  1
  Te  Te150  1  0.91032354  0.89122095  0.08589932  1
  Te  Te151  1  0.90659548  0.88640035  0.40501168  1
  Te  Te152  1  0.92708526  0.90251820  0.73439096  1
  Te  Te153  1  0.24791425  0.07155936  0.24739279  1
  Te  Te154  1  0.26494475  0.10222617  0.58360131  1
  Te  Te155  1  0.29343702  0.06251032  0.93717871  1
  Te  Te156  1  0.25464687  0.42193521  0.25185048  1
  Te  Te157  1  0.24535698  0.43409075  0.60133467  1
  Te  Te158  1  0.25123751  0.42044938  0.92602782  1
  Te  Te159  1  0.26140268  0.74197845  0.24351619  1
  Te  Te160  1  0.23997641  0.76740963  0.57565780  1
  Te  Te161  1  0.26397152  0.73492952  0.90772956  1
  Te  Te162  1  0.54564959  0.11706742  0.29410446  1
  Te  Te163  1  0.58177729  0.10650537  0.54293037  1
  Te  Te164  1  0.57893516  0.05818776  0.90831964  1
  Te  Te165  1  0.59027240  0.38280081  0.26246440  1
  Te  Te166  1  0.58900528  0.41554245  0.59931389  1
  Te  Te167  1  0.56999955  0.41112840  0.91333911  1
  Te  Te168  1  0.56813126  0.74223397  0.20935058  1
  Te  Te169  1  0.58796828  0.76249920  0.59777562  1
  Te  Te170  1  0.58498751  0.76897397  0.94037363  1
  Te  Te171  1  0.94603240  0.05241249  0.24352414  1
  Te  Te172  1  0.91805324  0.08981788  0.58097710  1
  Te  Te173  1  0.92429560  0.08194691  0.93095202  1
  Te  Te174  1  0.90890017  0.43274833  0.26264624  1
  Te  Te175  1  0.91908719  0.41555356  0.57279546  1
  Te  Te176  1  0.88126060  0.44632069  0.93795529  1
  Te  Te177  1  0.92071475  0.74012234  0.20787800  1
  Te  Te178  1  0.88850919  0.73647361  0.58796623  1
  Te  Te179  1  0.92288015  0.74537639  0.94033322  1
