# generated using pymatgen
data_In2Te3
_symmetry_space_group_name_H-M   'P 1'
_cell_length_a   18.77655892
_cell_length_b   18.76719822
_cell_length_c   18.78328733
_cell_angle_alpha   89.97578587
_cell_angle_beta   89.89610612
_cell_angle_gamma   89.98915249
_symmetry_Int_Tables_number   1
_chemical_formula_structural   In2Te3
_chemical_formula_sum   'In72 Te108'
_cell_volume   6618.90711960
_cell_formula_units_Z   36
loop_
 _symmetry_equiv_pos_site_id
 _symmetry_equiv_pos_as_xyz
  1  'x, y, z'
loop_
 _atom_site_type_symbol
 _atom_site_label
 _atom_site_symmetry_multiplicity
 _atom_site_fract_x
 _atom_site_fract_y
 _atom_site_fract_z
 _atom_site_occupancy
  In  In0  1  0.48202031  0.17911058  0.32402588  1
  In  In1  1  0.68550079  0.51524168  0.15083555  1
  In  In2  1  0.86113449  0.33692449  0.84595056  1
  In  In3  1  0.00654573  0.33544556  0.67877285  1
  In  In4  1  0.34090256  0.34185947  0.29788158  1
  In  In5  1  0.68562653  0.51763219  0.85371919  1
  In  In6  1  -0.01934999  0.52797731  0.13003168  1
  In  In7  1  0.64513778  0.13365718  0.84645565  1
  In  In8  1  0.51268209  0.50371819  0.31120062  1
  In  In9  1  0.67811657  0.16511226  0.14033550  1
  In  In10  1  0.66917143  0.34770452  0.35940902  1
  In  In11  1  0.32487873  0.67495269  0.65971271  1
  In  In12  1  -0.00096224  0.14954278  0.83858681  1
  In  In13  1  0.32210456  0.53367655  0.49368972  1
  In  In14  1  0.12199467  0.72151012  0.84603323  1
  In  In15  1  0.84290816  0.81450895  0.67837022  1
  In  In16  1  0.83819705  0.00386459  0.84462481  1
  In  In17  1  0.68645093  0.67464020  0.29880221  1
  In  In18  1  0.87339098  0.85203669  0.32698989  1
  In  In19  1  0.70689157  0.16652138  0.50805344  1
  In  In20  1  0.16565561  0.69253903  0.48666374  1
  In  In21  1  0.67139662  0.48537016  0.47698078  1
  In  In22  1  0.30143263  0.68626101  0.31646228  1
  In  In23  1  0.32514152  0.30243863  0.68108517  1
  In  In24  1  0.16046855  0.33333401  0.49003452  1
  In  In25  1  0.15664509  0.51229492  -0.00870368  1
  In  In26  1  0.50795071  0.35240386  0.51269650  1
  In  In27  1  0.31063322  0.69714922  -0.01551139  1
  In  In28  1  0.33549972  0.51239583  0.84368432  1
  In  In29  1  0.17015349  0.14168324  0.69887395  1
  In  In30  1  0.65834971  0.33568626  0.01247103  1
  In  In31  1  0.49491521  0.31562818  0.84863402  1
  In  In32  1  -0.01065875  0.33639221  0.00018330  1
  In  In33  1  0.66373204  0.01243844  0.33396876  1
  In  In34  1  0.49009227  0.68355801  0.50317789  1
  In  In35  1  0.67396245  -0.01921798  0.68089781  1
  In  In36  1  0.30935095  0.15598161  0.51568279  1
  In  In37  1  0.66740600  0.82611419  0.14071570  1
  In  In38  1  0.31466028  0.82235358  0.50316249  1
  In  In39  1  0.83606191  0.83388565  0.00228248  1
  In  In40  1  0.50155127  0.68586913  0.84113598  1
  In  In41  1  0.15936022  0.14829682  0.01460345  1
  In  In42  1  0.85063294  0.16269749  -0.01655185  1
  In  In43  1  0.31242305  -0.00930272  0.31666025  1
  In  In44  1  0.49691796  0.67056243  0.13948162  1
  In  In45  1  0.33347226  0.31551297  0.00295736  1
  In  In46  1  0.85330319  -0.00520887  0.15676101  1
  In  In47  1  0.00332823  0.31410059  0.32079810  1
  In  In48  1  0.48611413  0.13525938  0.69992062  1
  In  In49  1  0.84130116  0.32846330  0.16172553  1
  In  In50  1  0.50511832  -0.00861093  0.50721342  1
  In  In51  1  0.46461023  -0.00086205  0.14598677  1
  In  In52  1  0.01442977  0.68205978  0.32571919  1
  In  In53  1  0.53144864  0.46062959  0.65312470  1
  In  In54  1  0.30949418  -0.02529704  0.00364767  1
  In  In55  1  -0.00876312  0.00603544  0.66262085  1
  In  In56  1  0.84955747  0.67658565  0.82350195  1
  In  In57  1  0.48883097  0.30538000  0.15680187  1
  In  In58  1  0.85018407  0.15400394  0.33013099  1
  In  In59  1  0.49938565  0.85328334  0.70254305  1
  In  In60  1  0.15147902  0.13690275  0.33114525  1
  In  In61  1  0.32175356  0.47509403  0.16413946  1
  In  In62  1  0.84460604  0.50464237  0.68677454  1
  In  In63  1  0.66701735  0.84857271  0.50827476  1
  In  In64  1  0.84866115  0.69028330  0.50804024  1
  In  In65  1  0.00368726  0.14902808  0.49637285  1
  In  In66  1  -0.00465698  0.50914999  0.50613965  1
  In  In67  1  0.15468491  0.01936324  0.51272863  1
  In  In68  1  0.69291203  0.66713940  0.68806994  1
  In  In69  1  0.49104149  0.83059070  -0.00501058  1
  In  In70  1  0.14349103  0.70371897  0.14098023  1
  In  In71  1  0.15512172  0.48923269  0.67457930  1
  Te  Te72  1  0.10064936  0.03096350  0.09086937  1
  Te  Te73  1  0.04393895  0.03643221  0.39723561  1
  Te  Te74  1  0.08840899  0.03941730  0.77802525  1
  Te  Te75  1  0.08359918  0.41853655  0.08763851  1
  Te  Te76  1  0.07671386  0.42608795  0.40661624  1
  Te  Te77  1  0.08803251  0.40801708  0.77716528  1
  Te  Te78  1  0.04959425  0.77248970  0.04791055  1
  Te  Te79  1  0.07839667  0.78533937  0.41185194  1
  Te  Te80  1  0.09486206  0.78773864  0.71387817  1
  Te  Te81  1  0.39391909  0.08923690  0.05286008  1
  Te  Te82  1  0.40924743  0.07532866  0.41979058  1
  Te  Te83  1  0.40495460  0.04322297  0.78504868  1
  Te  Te84  1  0.42859159  0.41787749  0.07256374  1
  Te  Te85  1  0.41642081  0.42302670  0.40985582  1
  Te  Te86  1  0.41213717  0.41645426  0.75079109  1
  Te  Te87  1  0.39038095  0.77020088  0.09368116  1
  Te  Te88  1  0.40975397  0.76004281  0.40058534  1
  Te  Te89  1  0.39328230  0.76233613  0.76598897  1
  Te  Te90  1  0.75636565  0.06531999  0.05924265  1
  Te  Te91  1  0.77650437  0.05863591  0.42534841  1
  Te  Te92  1  0.75595913  0.09069750  0.74877066  1
  Te  Te93  1  0.77288269  0.42236287  0.06315497  1
  Te  Te94  1  0.78508279  0.42826338  0.40074406  1
  Te  Te95  1  0.75231554  0.41253409  0.76596428  1
  Te  Te96  1  0.77475811  0.72872673  0.09682071  1
  Te  Te97  1  0.75129825  0.76189426  0.41186233  1
  Te  Te98  1  0.73263840  0.77733909  0.78007858  1
  Te  Te99  1  0.09706417  0.23749778  0.23629534  1
  Te  Te100  1  0.09944804  0.23630943  0.59199213  1
  Te  Te101  1  0.08315538  0.24605461  0.91896921  1
  Te  Te102  1  0.08449127  0.58951236  0.22494109  1
  Te  Te103  1  0.09350197  0.59505027  0.58380728  1
  Te  Te104  1  0.06501126  0.60391909  0.92041334  1
  Te  Te105  1  0.12086815  0.94308927  0.22109709  1
  Te  Te106  1  0.08476187  0.91175225  0.59175884  1
  Te  Te107  1  0.09225513  0.85417177  0.92187220  1
  Te  Te108  1  0.38000617  0.21692907  0.21789107  1
  Te  Te109  1  0.42373177  0.23441972  0.58293395  1
  Te  Te110  1  0.39118961  0.22269070  0.89991218  1
  Te  Te111  1  0.40528262  0.58970505  0.24640776  1
  Te  Te112  1  0.43255552  0.57669302  0.59934609  1
  Te  Te113  1  0.41946848  0.59689191  0.93639803  1
  Te  Te114  1  0.40930521  0.90543319  0.24504340  1
  Te  Te115  1  0.40978357  0.90835754  0.59142200  1
  Te  Te116  1  0.41595079  0.92586071  0.90379741  1
  Te  Te117  1  0.74485219  0.24418958  0.25466634  1
  Te  Te118  1  0.76664622  0.27521986  0.58336057  1
  Te  Te119  1  0.74427673  0.24982339  0.91516445  1
  Te  Te120  1  0.77418421  0.56494992  0.25726907  1
  Te  Te121  1  0.75079869  0.58074679  0.57665161  1
  Te  Te122  1  0.78208967  0.59739280  0.93364514  1
  Te  Te123  1  0.74611630  0.91623180  0.24621693  1
  Te  Te124  1  0.77624902  0.91864485  0.58545264  1
  Te  Te125  1  0.74431327  0.91980134  0.92245774  1
  Te  Te126  1  0.22655201  0.25888940  0.08882076  1
  Te  Te127  1  0.25224408  0.24454866  0.40470973  1
  Te  Te128  1  0.25286945  0.23006012  0.78694460  1
  Te  Te129  1  0.25237040  0.59277901  0.08538040  1
  Te  Te130  1  0.22020897  0.58128666  0.39359800  1
  Te  Te131  1  0.23878938  0.59139863  0.75651440  1
  Te  Te132  1  0.20700869  0.91083684  0.10326647  1
  Te  Te133  1  0.22906140  0.91819680  0.42145012  1
  Te  Te134  1  0.27490667  0.96015697  0.79669882  1
  Te  Te135  1  0.55922801  0.21932165  0.04837740  1
  Te  Te136  1  0.58672307  0.23174559  0.42158379  1
  Te  Te137  1  0.58449986  0.24063606  0.74958673  1
  Te  Te138  1  0.59522824  0.59109683  0.06248796  1
  Te  Te139  1  0.58429725  0.60080564  0.41408601  1
  Te  Te140  1  0.58176292  0.58054466  0.74874232  1
  Te  Te141  1  0.58205054  0.93078804  0.07172593  1
  Te  Te142  1  0.57439698  0.90654762  0.40102320  1
  Te  Te143  1  0.58146001  0.94037485  0.78951538  1
  Te  Te144  1  0.93337040  0.22686433  0.09441020  1
  Te  Te145  1  0.91353624  0.25340665  0.42773932  1
  Te  Te146  1  0.91295794  0.23422433  0.74528669  1
  Te  Te147  1  0.88617322  0.62051575  0.06329017  1
  Te  Te148  1  0.91670979  0.59613100  0.40891972  1
  Te  Te149  1  0.94466087  0.59471329  0.74448436  1
  Te  Te150  1  0.94235966  0.88701172  0.10010528  1
  Te  Te151  1  0.94029114  0.92402978  0.43337362  1
  Te  Te152  1  0.92632650  0.90934176  0.76460142  1
  Te  Te153  1  0.23308478  0.07301821  0.21950197  1
  Te  Te154  1  0.26499839  0.05308910  0.61725599  1
  Te  Te155  1  0.21690427  0.05134683  0.90632628  1
  Te  Te156  1  0.22141512  0.41528262  0.25404163  1
  Te  Te157  1  0.25876285  0.41051302  0.58230578  1
  Te  Te158  1  0.24717015  0.41384710  0.91718601  1
  Te  Te159  1  0.21816364  0.78598456  0.24272769  1
  Te  Te160  1  0.22232523  0.78355168  0.62307204  1
  Te  Te161  1  0.24262102  0.80168507  0.90158853  1
  Te  Te162  1  0.57419719  0.08937456  0.23605287  1
  Te  Te163  1  0.59446846  0.08381681  0.58838591  1
  Te  Te164  1  0.55906713  0.09160199  0.95722068  1
  Te  Te165  1  0.58901788  0.39672825  0.23185291  1
  Te  Te166  1  0.64475188  0.37333013  0.58898179  1
  Te  Te167  1  0.57853463  0.42457509  0.91665967  1
  Te  Te168  1  0.57266600  0.75690849  0.24068358  1
  Te  Te169  1  0.58417932  0.75751026  0.60040209  1
  Te  Te170  1  0.59718087  0.74277316  0.93779120  1
  Te  Te171  1  0.93939075  0.08839900  0.23230435  1
  Te  Te172  1  0.90139453  0.09876385  0.59127386  1
  Te  Te173  1  0.94753206  0.05066342  0.94387499  1
  Te  Te174  1  0.93102685  0.42227106  0.23866555  1
  Te  Te175  1  0.91158392  0.40890141  0.58483318  1
  Te  Te176  1  0.93085115  0.44459721  0.91722959  1
  Te  Te177  1  0.92947321  0.75809525  0.22841834  1
  Te  Te178  1  0.94987639  0.75170566  0.59499425  1
  Te  Te179  1  0.93591494  0.77138204  0.90484688  1
