# generated using pymatgen
data_In2Te3
_symmetry_space_group_name_H-M   'P 1'
_cell_length_a   19.00935449
_cell_length_b   19.05593502
_cell_length_c   18.99732345
_cell_angle_alpha   90.04445449
_cell_angle_beta   89.93771650
_cell_angle_gamma   90.03207616
_symmetry_Int_Tables_number   1
_chemical_formula_structural   In2Te3
_chemical_formula_sum   'In72 Te108'
_cell_volume   6881.60268862
_cell_formula_units_Z   36
loop_
 _symmetry_equiv_pos_site_id
 _symmetry_equiv_pos_as_xyz
  1  'x, y, z'
loop_
 _atom_site_type_symbol
 _atom_site_label
 _atom_site_symmetry_multiplicity
 _atom_site_fract_x
 _atom_site_fract_y
 _atom_site_fract_z
 _atom_site_occupancy
  In  In0  1  0.83131643  0.67573981  0.49157535  1
  In  In1  1  0.33220449  0.82456945  0.49251730  1
  In  In2  1  0.16899423  0.33344207  0.81747936  1
  In  In3  1  0.83876418  0.48553129  0.66857809  1
  In  In4  1  0.82423134  0.18848154  0.31276440  1
  In  In5  1  0.48868966  0.84646635  0.34007856  1
  In  In6  1  0.34218807  0.51042224  0.18316784  1
  In  In7  1  0.65459565  0.66533284  0.32377818  1
  In  In8  1  0.33971528  0.64127489  0.00385558  1
  In  In9  1  0.15195794  0.17464205  0.66464769  1
  In  In10  1  -0.02415450  0.48531316  0.21230371  1
  In  In11  1  -0.02304789  0.17200868  0.82662940  1
  In  In12  1  0.34133981  0.66466313  0.64185647  1
  In  In13  1  0.47569991  0.33847440  0.18007306  1
  In  In14  1  0.46987038  0.50071425  0.36151704  1
  In  In15  1  0.00111627  0.84024545  0.17225684  1
  In  In16  1  -0.01258294  0.68478702  0.01163394  1
  In  In17  1  0.49247899  0.16156187  0.32656532  1
  In  In18  1  0.85732623  0.83564876  0.67097756  1
  In  In19  1  0.35039501  0.48534710  0.83244065  1
  In  In20  1  0.32455033  0.18598522  0.48273086  1
  In  In21  1  0.65073368  0.65943649  0.65083538  1
  In  In22  1  0.47490481  0.83303609  -0.00690553  1
  In  In23  1  0.68139067  0.47131691  0.46188754  1
  In  In24  1  0.00421196  0.51544224  0.50581190  1
  In  In25  1  0.49226586  0.00453065  0.49384373  1
  In  In26  1  0.20071418  0.46780853  0.63962932  1
  In  In27  1  0.66973548  0.68523236  0.00741100  1
  In  In28  1  0.48377504  0.17581732  0.63881916  1
  In  In29  1  0.14128791  0.49752752  0.02722811  1
  In  In30  1  0.30941344  0.16907526  0.82681166  1
  In  In31  1  0.66723303  0.83264856  0.82131073  1
  In  In32  1  0.18726958  -0.02932303  0.51207073  1
  In  In33  1  0.81878291  0.18463938  0.63484334  1
  In  In34  1  0.82880873  0.66570631  0.86753894  1
  In  In35  1  0.83034426  0.00380539  0.49423465  1
  In  In36  1  0.83488423  0.82977610  0.32689365  1
  In  In37  1  0.07675245  0.68240120  0.36203109  1
  In  In38  1  0.84242458  0.65128367  0.16431314  1
  In  In39  1  0.64427437  0.17327814  0.17050948  1
  In  In40  1  0.18321070  0.00257327  0.18700409  1
  In  In41  1  0.19312271  0.52415935  0.33648655  1
  In  In42  1  0.51046516  0.83200605  0.67546136  1
  In  In43  1  -0.00331008  0.16402556  0.46622947  1
  In  In44  1  0.65881211  -0.00298417  0.66244138  1
  In  In45  1  0.67215965  0.21218991  0.46952797  1
  In  In46  1  0.64807645  0.02172532  -0.00594824  1
  In  In47  1  0.49565839  0.33298397  0.81739740  1
  In  In48  1  0.17445581  0.67800999  0.82045452  1
  In  In49  1  0.03094405  -0.00356729  0.66786529  1
  In  In50  1  0.31789855  -0.00441875  0.69674597  1
  In  In51  1  0.83581624  0.18686535  0.02788804  1
  In  In52  1  0.02815488  0.16935992  0.21082253  1
  In  In53  1  0.52190674  0.49872186  0.00909412  1
  In  In54  1  0.29894968  0.31314843  0.01810954  1
  In  In55  1  0.03221141  0.64693641  0.67187577  1
  In  In56  1  0.30998079  0.80824571  0.18762014  1
  In  In57  1  0.67196403  0.33914814  0.01988482  1
  In  In58  1  0.16870629  0.32790021  0.47632779  1
  In  In59  1  0.08830712  -0.09581314  0.02579156  1
  In  In60  1  0.67645003  0.49313313  0.17536641  1
  In  In61  1  0.17062480  0.14518995  0.01293943  1
  In  In62  1  0.82097815  0.32605135  0.82638213  1
  In  In63  1  0.62650103  0.15403123  0.84014553  1
  In  In64  1  -0.00609810  -0.01052076  0.34370205  1
  In  In65  1  0.51378035  0.50515001  0.63345614  1
  In  In66  1  0.48130795  0.01374543  0.15212049  1
  In  In67  1  0.82758419  0.00934165  0.84336702  1
  In  In68  1  0.01899995  0.32961035  0.02315647  1
  In  In69  1  0.32235790  0.82552149  0.82210233  1
  In  In70  1  0.00521437  0.48172246  0.83896545  1
  In  In71  1  0.68515622  0.84582168  0.17746668  1
  Te  Te72  1  0.07311284  0.07256951  0.10220440  1
  Te  Te73  1  0.09772249  0.06327360  0.42444579  1
  Te  Te74  1  0.09202378  0.08899645  0.77322003  1
  Te  Te75  1  0.08569541  0.40697392  0.13477941  1
  Te  Te76  1  0.09053125  0.43654770  0.40722364  1
  Te  Te77  1  0.08143925  0.41671166  0.72612415  1
  Te  Te78  1  0.09415886  0.75784527  0.08391719  1
  Te  Te79  1  0.12332683  0.76417669  0.47393820  1
  Te  Te80  1  0.07259551  0.76039255  0.75598735  1
  Te  Te81  1  0.38783955  0.09199360  0.06743032  1
  Te  Te82  1  0.39382034  0.07501634  0.40460782  1
  Te  Te83  1  0.41910999  0.09480424  0.74917110  1
  Te  Te84  1  0.40208561  0.42265117  0.06552197  1
  Te  Te85  1  0.36158784  0.40180404  0.38138568  1
  Te  Te86  1  0.41570509  0.41353014  0.71928892  1
  Te  Te87  1  0.41268346  0.73880075  0.09299784  1
  Te  Te88  1  0.42139387  0.73620121  0.41445956  1
  Te  Te89  1  0.42025463  0.73550072  0.74908034  1
  Te  Te90  1  0.74314182  0.08674909  0.09320301  1
  Te  Te91  1  0.74683070  0.09549312  0.40845886  1
  Te  Te92  1  0.75066991  0.09192135  0.74156408  1
  Te  Te93  1  0.77006992  0.41325314  0.09655567  1
  Te  Te94  1  0.75439047  0.39161737  0.36105191  1
  Te  Te95  1  0.74301367  0.43061285  0.76365471  1
  Te  Te96  1  0.77333055  0.76074203  0.08777098  1
  Te  Te97  1  0.73320607  0.75925976  0.41371912  1
  Te  Te98  1  0.75658887  0.74160031  0.73987895  1
  Te  Te99  1  0.07879198  0.24775961  0.32275693  1
  Te  Te100  1  0.07136179  0.25325467  0.56680596  1
  Te  Te101  1  0.08941330  0.24675262  0.91404722  1
  Te  Te102  1  0.08558854  0.58729344  0.24631547  1
  Te  Te103  1  0.12450210  0.57940964  0.57248388  1
  Te  Te104  1  0.08393829  0.58633766  0.91588809  1
  Te  Te105  1  0.09603627  0.90842461  0.26862465  1
  Te  Te106  1  0.07568136  0.89279467  0.57181404  1
  Te  Te107  1  0.11767109  0.90091748  0.88430879  1
  Te  Te108  1  0.39496458  0.22834726  0.23543239  1
  Te  Te109  1  0.43659062  0.26715135  0.53379271  1
  Te  Te110  1  0.39378673  0.26580400  0.90902028  1
  Te  Te111  1  0.42074085  0.60465599  0.26578801  1
  Te  Te112  1  0.40555721  0.56814798  0.55479863  1
  Te  Te113  1  0.43963417  0.57982631  0.90866492  1
  Te  Te114  1  0.40139716  0.91986039  0.24058597  1
  Te  Te115  1  0.40847777  0.92302556  0.59826736  1
  Te  Te116  1  0.40136593  0.91906926  0.90249342  1
  Te  Te117  1  0.72284933  0.27448523  0.24644399  1
  Te  Te118  1  0.73579882  0.29145633  0.57689764  1
  Te  Te119  1  0.73553745  0.22936398  0.91543384  1
  Te  Te120  1  0.76380646  0.57691239  0.26888813  1
  Te  Te121  1  0.75282830  0.57122772  0.56664244  1
  Te  Te122  1  0.74040140  0.57694664  0.93798951  1
  Te  Te123  1  0.77351289  0.93589180  0.24894718  1
  Te  Te124  1  0.75329675  0.90880448  0.58581382  1
  Te  Te125  1  0.73876336  0.91837165  0.92318425  1
  Te  Te126  1  0.21045205  0.24667729  0.11481643  1
  Te  Te127  1  0.22310525  0.22515351  0.38016404  1
  Te  Te128  1  0.26113355  0.26586503  0.71815606  1
  Te  Te129  1  0.23747497  0.58657946  0.10116965  1
  Te  Te130  1  0.29210459  0.63311552  0.37101591  1
  Te  Te131  1  0.25444670  0.56883953  0.74851401  1
  Te  Te132  1  0.24168066  0.90267143  0.09280621  1
  Te  Te133  1  0.26670686  0.91797792  0.40137669  1
  Te  Te134  1  0.21316774  0.91107399  0.76152733  1
  Te  Te135  1  0.55921404  0.25832560  0.07928261  1
  Te  Te136  1  0.55612174  0.27088015  0.40303412  1
  Te  Te137  1  0.58554905  0.24795756  0.73093086  1
  Te  Te138  1  0.58978934  0.59520836  0.10128998  1
  Te  Te139  1  0.58444991  0.58095665  0.42635797  1
  Te  Te140  1  0.57814131  0.57626880  0.74426596  1
  Te  Te141  1  0.58036602  0.91243926  0.08046184  1
  Te  Te142  1  0.58563305  0.91917396  0.42300197  1
  Te  Te143  1  0.57055748  0.93700483  0.76834683  1
  Te  Te144  1  0.93154279  0.25429784  0.12155152  1
  Te  Te145  1  0.90342813  0.26574660  0.41287233  1
  Te  Te146  1  0.91579018  0.26327978  0.72535639  1
  Te  Te147  1  0.93312008  0.56319635  0.08288008  1
  Te  Te148  1  0.94194825  0.61353471  0.41039521  1
  Te  Te149  1  0.92021266  0.58339915  0.76356813  1
  Te  Te150  1  0.94478826  0.91647941  0.06124797  1
  Te  Te151  1  0.91872706  0.89579201  0.43510172  1
  Te  Te152  1  0.92860307  0.92981193  0.76449779  1
  Te  Te153  1  0.29398869  0.10687251  0.18213210  1
  Te  Te154  1  0.25589474  0.09000837  0.59097119  1
  Te  Te155  1  0.27441819  0.07459805  0.93648205  1
  Te  Te156  1  0.26424899  0.41087338  0.26421238  1
  Te  Te157  1  0.27930429  0.41881329  0.52247767  1
  Te  Te158  1  0.23294529  0.42525794  0.92191470  1
  Te  Te159  1  0.22152654  0.73867739  0.28844541  1
  Te  Te160  1  0.23646266  0.75408816  0.58468679  1
  Te  Te161  1  0.25417147  0.74175080  0.93105233  1
  Te  Te162  1  0.58205861  0.06310012  0.25343406  1
  Te  Te163  1  0.59643743  0.09586270  0.56645925  1
  Te  Te164  1  0.53606723  0.09853214  0.93968729  1
  Te  Te165  1  0.56210221  0.43350513  0.25610293  1
  Te  Te166  1  0.60460640  0.40602622  0.57007289  1
  Te  Te167  1  0.59102205  0.40677077  0.91100790  1
  Te  Te168  1  0.57719505  0.76385601  0.24157639  1
  Te  Te169  1  0.57813965  0.75690462  0.57147163  1
  Te  Te170  1  0.57572962  0.75157473  0.90975384  1
  Te  Te171  1  0.91364784  0.07899300  0.25389466  1
  Te  Te172  1  0.92278451  0.07807368  0.59161827  1
  Te  Te173  1  0.91466163  0.09165930  0.93781328  1
  Te  Te174  1  0.90013483  0.40110590  0.30670960  1
  Te  Te175  1  0.90767486  0.41988088  0.55894923  1
  Te  Te176  1  0.92082757  0.39128107  0.92470237  1
  Te  Te177  1  0.92874146  0.73614325  0.25476136  1
  Te  Te178  1  0.93056916  0.73122510  0.59065749  1
  Te  Te179  1  0.91255753  0.77075617  0.92106406  1
