# generated using pymatgen
data_In2Te3
_symmetry_space_group_name_H-M   'P 1'
_cell_length_a   18.99334432
_cell_length_b   18.99739788
_cell_length_c   18.97896704
_cell_angle_alpha   89.98866150
_cell_angle_beta   89.99468499
_cell_angle_gamma   90.07013344
_symmetry_Int_Tables_number   1
_chemical_formula_structural   In2Te3
_chemical_formula_sum   'In72 Te108'
_cell_volume   6848.06377076
_cell_formula_units_Z   36
loop_
 _symmetry_equiv_pos_site_id
 _symmetry_equiv_pos_as_xyz
  1  'x, y, z'
loop_
 _atom_site_type_symbol
 _atom_site_label
 _atom_site_symmetry_multiplicity
 _atom_site_fract_x
 _atom_site_fract_y
 _atom_site_fract_z
 _atom_site_occupancy
  In  In0  1  0.16654766  0.83419703  -0.01469818  1
  In  In1  1  0.82595723  0.31753979  0.51814247  1
  In  In2  1  0.19157212  0.01832609  0.53674163  1
  In  In3  1  0.52690195  0.31885295  0.78950121  1
  In  In4  1  0.68040447  0.01028568  0.66242139  1
  In  In5  1  0.84695579  0.14240887  0.36482813  1
  In  In6  1  0.34453539  0.16092836  0.19400585  1
  In  In7  1  0.18404743  -0.00798126  0.15514115  1
  In  In8  1  0.82659156  0.32840359  0.18129155  1
  In  In9  1  -0.00660505  0.49717308  0.15002993  1
  In  In10  1  0.85216488  -0.01159337  0.82544485  1
  In  In11  1  0.84708953  -0.00458062  0.51153210  1
  In  In12  1  0.17229220  0.83901613  0.68369821  1
  In  In13  1  0.85428936  0.83581879  0.67803957  1
  In  In14  1  0.82398482  0.19185648  -0.04166865  1
  In  In15  1  0.00837969  0.01966704  0.36772991  1
  In  In16  1  0.15709709  0.34753012  0.81886965  1
  In  In17  1  0.50845056  0.82912896  0.64677322  1
  In  In18  1  0.16336135  0.65429730  0.82007476  1
  In  In19  1  0.67428554  0.83829942  0.16788239  1
  In  In20  1  0.17481414  0.15211861  0.00174780  1
  In  In21  1  0.86170000  0.49687683  0.34266268  1
  In  In22  1  0.31914971  0.18158301  0.82965332  1
  In  In23  1  0.46014709  0.63806434  0.85832720  1
  In  In24  1  0.51513695  0.84077143  0.32349326  1
  In  In25  1  0.85295784  0.79688546  -0.01213681  1
  In  In26  1  0.47388366  0.33441495  0.17235730  1
  In  In27  1  0.49351835  0.02782246  0.82805466  1
  In  In28  1  0.32475412  0.35062416  0.02546010  1
  In  In29  1  0.67215272  0.82393810  0.83382788  1
  In  In30  1  0.33210349  0.84392936  0.83994718  1
  In  In31  1  0.64678770  0.31447801  0.34409457  1
  In  In32  1  0.64350449  0.14529586  0.18109880  1
  In  In33  1  0.66082528  0.47750875  0.51726402  1
  In  In34  1  0.33657234  0.84164741  0.50905100  1
  In  In35  1  0.32181312  0.32408089  0.67595223  1
  In  In36  1  0.83426322  0.00944132  0.14899408  1
  In  In37  1  0.47566080  0.34486748  0.48879326  1
  In  In38  1  0.81137590  0.50356831  0.67090391  1
  In  In39  1  0.51010442  0.64901834  0.49946840  1
  In  In40  1  0.16568083  0.50357405  0.66550289  1
  In  In41  1  0.64965944  0.50124702  0.16176282  1
  In  In42  1  0.65641759  0.01430671  0.35252595  1
  In  In43  1  0.33149516  0.66201774  0.32712289  1
  In  In44  1  -0.00153366  0.35555862  -0.00699522  1
  In  In45  1  0.21303645  0.31629261  0.25327439  1
  In  In46  1  0.16977663  0.50718742  -0.00313126  1
  In  In47  1  0.64696591  0.00539606  -0.01614609  1
  In  In48  1  0.00880819  0.51871289  0.52363919  1
  In  In49  1  -0.00361732  0.16259536  0.81723355  1
  In  In50  1  0.49475614  0.01323202  0.50047842  1
  In  In51  1  0.14815742  0.31973235  0.50816370  1
  In  In52  1  0.34898417  0.64964384  0.65226250  1
  In  In53  1  0.64792017  0.51236999  0.80814542  1
  In  In54  1  -0.00912501  0.65360148  0.34133662  1
  In  In55  1  0.14706979  0.82039201  0.32977972  1
  In  In56  1  0.51356270  0.82460718  0.01179058  1
  In  In57  1  0.01678958  0.81254059  0.16073940  1
  In  In58  1  0.83711954  0.49878224  -0.03284987  1
  In  In59  1  0.18191295  0.65274750  0.15926040  1
  In  In60  1  0.83281064  0.17323799  0.66662055  1
  In  In61  1  0.33994152  -0.00309556  0.34162803  1
  In  In62  1  0.15935550  0.00725514  0.84005753  1
  In  In63  1  0.02790077  0.17686085  0.15510847  1
  In  In64  1  0.66368435  0.33807073  -0.02151319  1
  In  In65  1  0.82937946  0.66332395  0.15147142  1
  In  In66  1  -0.01314167  0.82835958  0.50395386  1
  In  In67  1  0.83812497  0.66211068  0.82579173  1
  In  In68  1  0.48457674  0.66372602  0.15735921  1
  In  In69  1  0.68402475  0.67684783  0.37896731  1
  In  In70  1  0.48667166  0.18025844  0.00760742  1
  In  In71  1  0.19412721  0.49497922  0.35381611  1
  Te  Te72  1  0.07653333  0.06049650  0.07196095  1
  Te  Te73  1  0.10597472  0.10162210  0.44261973  1
  Te  Te74  1  0.08383991  0.07873504  0.73508122  1
  Te  Te75  1  0.10027812  0.40668067  0.09173764  1
  Te  Te76  1  0.07743961  0.42879060  0.42367281  1
  Te  Te77  1  0.07482766  0.39482575  0.70840603  1
  Te  Te78  1  0.08691326  0.72355106  0.06472751  1
  Te  Te79  1  0.08423014  0.73146876  0.43145292  1
  Te  Te80  1  0.07979423  0.76800006  0.77404292  1
  Te  Te81  1  0.41874022  0.08477901  0.09331095  1
  Te  Te82  1  0.38440619  0.09745627  0.44234283  1
  Te  Te83  1  0.41390596  0.11281922  0.74113724  1
  Te  Te84  1  0.43722065  0.43741600  0.07139934  1
  Te  Te85  1  0.37438934  0.37058559  0.37940577  1
  Te  Te86  1  0.42340285  0.40918538  0.73998475  1
  Te  Te87  1  0.40512540  0.76641438  0.09028055  1
  Te  Te88  1  0.42317790  0.75848268  0.41750584  1
  Te  Te89  1  0.41474785  0.75744642  0.74442832  1
  Te  Te90  1  0.74483077  0.10058543  0.06485961  1
  Te  Te91  1  0.73862371  0.08966577  0.45435474  1
  Te  Te92  1  0.75249216  0.08661171  0.76952102  1
  Te  Te93  1  0.76214245  0.41613590  0.07480425  1
  Te  Te94  1  0.75778208  0.40596522  0.40599780  1
  Te  Te95  1  0.73483447  0.40613990  0.75350924  1
  Te  Te96  1  0.73355405  0.74325200  0.06590960  1
  Te  Te97  1  0.80142176  0.75793171  0.38632700  1
  Te  Te98  1  0.74526627  0.74047071  0.73504943  1
  Te  Te99  1  0.08595072  0.24274265  0.27089757  1
  Te  Te100  1  0.04441465  0.21781772  0.54372718  1
  Te  Te101  1  0.08935050  0.24902505  0.92432491  1
  Te  Te102  1  0.08581602  0.57506682  0.25090834  1
  Te  Te103  1  0.08126672  0.61148064  0.61091170  1
  Te  Te104  1  0.07811072  0.56383184  0.89905304  1
  Te  Te105  1  0.07086309  0.92458569  0.25059905  1
  Te  Te106  1  0.08991128  0.91459029  0.57982127  1
  Te  Te107  1  0.07095268  0.92406966  0.92192955  1
  Te  Te108  1  0.42420282  0.24948930  0.28480951  1
  Te  Te109  1  0.39170223  0.24347622  0.57019497  1
  Te  Te110  1  0.40571815  0.27021914  0.91872972  1
  Te  Te111  1  0.42076091  0.57278060  0.25419926  1
  Te  Te112  1  0.39720013  0.56427355  0.54173952  1
  Te  Te113  1  0.40106413  0.56677710  0.97150068  1
  Te  Te114  1  0.41757290  0.91721528  0.24776338  1
  Te  Te115  1  0.40986622  0.93529029  0.60132077  1
  Te  Te116  1  0.43562551  0.92117322  0.91858635  1
  Te  Te117  1  0.75385185  0.22319527  0.26306926  1
  Te  Te118  1  0.72139438  0.25639457  0.60526840  1
  Te  Te119  1  0.74808809  0.28218756  0.86999595  1
  Te  Te120  1  0.76469450  0.56151676  0.24215815  1
  Te  Te121  1  0.72993798  0.58837452  0.58209056  1
  Te  Te122  1  0.73355965  0.58978611  0.90932344  1
  Te  Te123  1  0.74748629  0.94060629  0.25221687  1
  Te  Te124  1  0.75201049  0.90338872  0.58435019  1
  Te  Te125  1  0.75380992  0.91333281  0.92785427  1
  Te  Te126  1  0.24864847  0.24190982  0.10032408  1
  Te  Te127  1  0.24570731  0.28206931  0.39686303  1
  Te  Te128  1  0.21251281  0.23343606  0.73585003  1
  Te  Te129  1  0.27833028  0.58426822  0.06780014  1
  Te  Te130  1  0.25457890  0.59858195  0.43647602  1
  Te  Te131  1  0.27145043  0.56904491  0.75393967  1
  Te  Te132  1  0.26318948  0.90238375  0.07308592  1
  Te  Te133  1  0.23239696  0.91085137  0.41993538  1
  Te  Te134  1  0.26313727  0.94149077  0.74764473  1
  Te  Te135  1  0.59496801  0.26305793  0.09798629  1
  Te  Te136  1  0.57430048  0.24301561  0.44634329  1
  Te  Te137  1  0.58717239  0.22942363  0.68989277  1
  Te  Te138  1  0.58139563  0.59215560  0.07222976  1
  Te  Te139  1  0.59212533  0.56318004  0.40498322  1
  Te  Te140  1  0.54200966  0.59345637  0.74610011  1
  Te  Te141  1  0.57996633  0.93502926  0.09868093  1
  Te  Te142  1  0.58712019  0.90976854  0.43740123  1
  Te  Te143  1  0.58624867  0.92002090  0.75409897  1
  Te  Te144  1  0.91278359  0.25074855  0.07540085  1
  Te  Te145  1  0.92569466  0.25008358  0.42878916  1
  Te  Te146  1  0.92289543  0.26251022  0.74195671  1
  Te  Te147  1  0.92213856  0.59097374  0.05575688  1
  Te  Te148  1  0.89918291  0.59666970  0.44822914  1
  Te  Te149  1  0.91746670  0.55909895  0.75822566  1
  Te  Te150  1  0.91457505  0.89643033  0.08420476  1
  Te  Te151  1  0.90800792  0.91043124  0.40169628  1
  Te  Te152  1  0.94155792  0.94787251  0.71794085  1
  Te  Te153  1  0.23630717  0.08019680  0.26514066  1
  Te  Te154  1  0.27899327  0.13537935  0.56047247  1
  Te  Te155  1  0.27281523  0.07128673  0.92385240  1
  Te  Te156  1  0.28641322  0.44528935  0.24685459  1
  Te  Te157  1  0.24716980  0.41128974  0.57573905  1
  Te  Te158  1  0.25594876  0.41880553  0.90669766  1
  Te  Te159  1  0.25194631  0.75968744  0.24094891  1
  Te  Te160  1  0.25074939  0.74806389  0.59010432  1
  Te  Te161  1  0.25624279  0.73612544  0.91135847  1
  Te  Te162  1  0.55373688  0.08946923  0.28051172  1
  Te  Te163  1  0.56756024  0.09177687  0.60833584  1
  Te  Te164  1  0.58580204  0.12034331  0.90795405  1
  Te  Te165  1  0.57254032  0.41493667  0.25893038  1
  Te  Te166  1  0.54643408  0.42479727  0.59192265  1
  Te  Te167  1  0.56666614  0.41990172  0.90086969  1
  Te  Te168  1  0.60461461  0.73553570  0.25642327  1
  Te  Te169  1  0.59777444  0.74220899  0.57146891  1
  Te  Te170  1  0.57183517  0.73655767  0.90436846  1
  Te  Te171  1  0.92578978  0.08819286  0.24263083  1
  Te  Te172  1  0.92921234  0.10010543  0.57741789  1
  Te  Te173  1  0.92065452  0.08176281  0.92405428  1
  Te  Te174  1  0.93865210  0.39960774  0.25375342  1
  Te  Te175  1  0.91017082  0.41984088  0.58818650  1
  Te  Te176  1  0.93109068  0.42387498  0.88223883  1
  Te  Te177  1  0.90842838  0.74833748  0.25218818  1
  Te  Te178  1  0.93258158  0.73597703  0.60338752  1
  Te  Te179  1  0.93840943  0.76150261  0.87495218  1
