# generated using pymatgen
data_In2Te3
_symmetry_space_group_name_H-M   'P 1'
_cell_length_a   18.79175894
_cell_length_b   18.78793045
_cell_length_c   18.78905834
_cell_angle_alpha   89.95699304
_cell_angle_beta   89.90276145
_cell_angle_gamma   89.96083446
_symmetry_Int_Tables_number   1
_chemical_formula_structural   In2Te3
_chemical_formula_sum   'In72 Te108'
_cell_volume   6633.61927590
_cell_formula_units_Z   36
loop_
 _symmetry_equiv_pos_site_id
 _symmetry_equiv_pos_as_xyz
  1  'x, y, z'
loop_
 _atom_site_type_symbol
 _atom_site_label
 _atom_site_symmetry_multiplicity
 _atom_site_fract_x
 _atom_site_fract_y
 _atom_site_fract_z
 _atom_site_occupancy
  In  In0  1  0.51225424  0.68251777  0.50724050  1
  In  In1  1  0.31822108  0.63576603  0.01839598  1
  In  In2  1  0.33446984  0.32529956  -0.01806008  1
  In  In3  1  0.52979496  0.03476356  0.20446502  1
  In  In4  1  0.86597696  0.18096935  0.03526658  1
  In  In5  1  0.32516025  0.85785783  0.50694236  1
  In  In6  1  0.17068023  0.65284214  0.15614354  1
  In  In7  1  0.00105394  0.34856038  0.66815839  1
  In  In8  1  0.68287777  0.52358843  0.85832826  1
  In  In9  1  0.84811892  -0.00116965  0.18270877  1
  In  In10  1  0.50596832  0.49037688  0.00181223  1
  In  In11  1  0.69457833  0.35386140  0.03594250  1
  In  In12  1  0.83163924  0.85201093  0.34266146  1
  In  In13  1  0.00645728  0.85465650  0.15980735  1
  In  In14  1  0.84923328  0.32390827  0.82682270  1
  In  In15  1  0.52326417  0.66235723  0.81797408  1
  In  In16  1  0.50110987  0.19153827  -0.01546462  1
  In  In17  1  0.85811837  0.20248812  0.68580068  1
  In  In18  1  -0.01041922  0.81967906  0.85263952  1
  In  In19  1  0.82819925  0.17311807  0.31260894  1
  In  In20  1  0.82293496  0.67832837  0.51316074  1
  In  In21  1  0.32762388  0.47313438  0.83976400  1
  In  In22  1  0.33412178  0.66379605  0.68548835  1
  In  In23  1  0.17242194  0.00060127  0.17390445  1
  In  In24  1  0.34526602  0.03193833  0.35825368  1
  In  In25  1  0.66240210  0.17258012  0.84212616  1
  In  In26  1  0.00345616  0.46809757  0.18251259  1
  In  In27  1  0.66985787  0.35299121  0.66361963  1
  In  In28  1  -0.00854991  0.16123941  0.49583634  1
  In  In29  1  0.66077132  0.17793622  0.48229176  1
  In  In30  1  0.16866386  0.85566753  0.66757491  1
  In  In31  1  0.32735567  0.32421577  0.66616449  1
  In  In32  1  0.29769515  0.84408701  0.82535271  1
  In  In33  1  0.50400159  0.84799715  0.64289375  1
  In  In34  1  0.15212488  0.65745322  0.48768637  1
  In  In35  1  0.31976589  0.82019348  0.17425837  1
  In  In36  1  0.31986283  0.00832465  0.00693019  1
  In  In37  1  0.68650193  0.50364315  0.48845361  1
  In  In38  1  0.66572248  0.81827544  0.82015857  1
  In  In39  1  0.84254520  0.82024346  0.68548188  1
  In  In40  1  0.49796795  0.85344531  0.31726278  1
  In  In41  1  0.85379193  -0.00101516  0.49836546  1
  In  In42  1  0.17738498  0.32105849  0.45509777  1
  In  In43  1  0.48061060  0.33453566  0.83598047  1
  In  In44  1  0.51258431  0.63943607  0.16861716  1
  In  In45  1  0.68494331  0.82242666  0.16132035  1
  In  In46  1  0.65310216  0.83260004  0.47964988  1
  In  In47  1  0.46336579  0.15455562  0.67631297  1
  In  In48  1  0.49886053  0.32045704  0.17742658  1
  In  In49  1  0.15853493  0.01706367  0.49337739  1
  In  In50  1  0.16394633  -0.00517475  0.82705989  1
  In  In51  1  0.33000704  0.49820318  0.50593587  1
  In  In52  1  0.16261922  0.65161449  0.84936898  1
  In  In53  1  0.85323517  0.34879725  0.48631263  1
  In  In54  1  0.00119527  0.49266315  0.83824869  1
  In  In55  1  -0.02052854  0.65463635  0.00643178  1
  In  In56  1  0.83966565  0.49411141  0.32123447  1
  In  In57  1  0.83272332  0.63970133  0.16800184  1
  In  In58  1  0.00441445  0.00208062  0.01796505  1
  In  In59  1  0.18107166  0.16201161  0.66626967  1
  In  In60  1  0.50642755  0.49147387  0.32751336  1
  In  In61  1  -0.01509800  0.66029014  0.66110705  1
  In  In62  1  0.49569106  0.83651269  -0.01384758  1
  In  In63  1  0.01665667  0.48047461  0.50190794  1
  In  In64  1  0.33130342  0.16261423  0.17128387  1
  In  In65  1  0.83821021  -0.00493848  0.83911714  1
  In  In66  1  -0.00003155  0.67555889  0.33633652  1
  In  In67  1  0.66166913  0.00396723  0.65212749  1
  In  In68  1  0.32747180  0.66634364  0.32264092  1
  In  In69  1  0.49878825  0.31815052  0.48953291  1
  In  In70  1  0.66828283  0.00605576  0.00288854  1
  In  In71  1  0.12954000  0.19349941  0.00436504  1
  Te  Te72  1  0.07114936  0.10117936  0.11247028  1
  Te  Te73  1  0.08746597  0.10650197  0.39711066  1
  Te  Te74  1  0.08076995  0.07831597  0.73912085  1
  Te  Te75  1  0.07705775  0.36771982  0.09498540  1
  Te  Te76  1  0.06998975  0.40353119  0.38536163  1
  Te  Te77  1  0.09846789  0.42029731  0.75216276  1
  Te  Te78  1  0.07775681  0.74633104  0.07765615  1
  Te  Te79  1  0.07638107  0.76602408  0.42445165  1
  Te  Te80  1  0.08885488  0.74642329  0.75134167  1
  Te  Te81  1  0.43175816  0.08738996  0.07857705  1
  Te  Te82  1  0.43000834  0.11372034  0.44455472  1
  Te  Te83  1  0.38660934  0.06165300  0.75669257  1
  Te  Te84  1  0.41046253  0.40770124  0.08588373  1
  Te  Te85  1  0.40548732  0.40964375  0.40738949  1
  Te  Te86  1  0.42450167  0.42579723  0.72943064  1
  Te  Te87  1  0.41989901  0.74310622  0.08725407  1
  Te  Te88  1  0.41256280  0.75562312  0.41413214  1
  Te  Te89  1  0.42093275  0.76767052  0.75609513  1
  Te  Te90  1  0.75661986  0.08805718  0.09431746  1
  Te  Te91  1  0.75534944  0.07834778  0.41427472  1
  Te  Te92  1  0.75190581  0.08843871  0.74660802  1
  Te  Te93  1  0.77618350  0.45043818  0.11053161  1
  Te  Te94  1  0.74141439  0.39619949  0.39588941  1
  Te  Te95  1  0.76203742  0.42698458  0.75838527  1
  Te  Te96  1  0.75786713  0.72870493  0.07269891  1
  Te  Te97  1  0.74361113  0.73987124  0.39849730  1
  Te  Te98  1  0.74927234  0.72258200  0.74438506  1
  Te  Te99  1  0.09780903  0.30147320  0.22967511  1
  Te  Te100  1  0.08173294  0.25827823  0.57291232  1
  Te  Te101  1  0.03975754  0.28008105  0.92240829  1
  Te  Te102  1  0.08338642  0.57569272  0.25698304  1
  Te  Te103  1  0.09239103  0.57098048  0.59819452  1
  Te  Te104  1  0.08919347  0.56443159  0.94888894  1
  Te  Te105  1  0.07720209  0.92932439  0.26403266  1
  Te  Te106  1  0.07700342  0.92423532  0.57680988  1
  Te  Te107  1  0.08739306  0.90864244  0.92852726  1
  Te  Te108  1  0.41485657  0.23724097  0.27130353  1
  Te  Te109  1  0.39013346  0.23164234  0.55539868  1
  Te  Te110  1  0.39126868  0.22056216  0.88320541  1
  Te  Te111  1  0.39932443  0.56356466  0.23736279  1
  Te  Te112  1  0.42453321  0.58745804  0.58855016  1
  Te  Te113  1  0.41603165  0.58558868  0.90861907  1
  Te  Te114  1  0.39736002  0.93644065  0.23683083  1
  Te  Te115  1  0.42566005  0.94694506  0.56681674  1
  Te  Te116  1  0.40191304  0.92605852  0.90671390  1
  Te  Te117  1  0.72684814  0.23499912  0.22436273  1
  Te  Te118  1  0.75843900  0.25393894  0.57646262  1
  Te  Te119  1  0.76235739  0.24430417  0.93126652  1
  Te  Te120  1  0.73171587  0.56911618  0.25130663  1
  Te  Te121  1  0.75112209  0.58065943  0.59632867  1
  Te  Te122  1  0.77801606  0.60836974  0.93044945  1
  Te  Te123  1  0.73195934  0.93093762  0.25787312  1
  Te  Te124  1  0.75631837  0.90800849  0.57943850  1
  Te  Te125  1  0.74714897  0.90396264  0.92004705  1
  Te  Te126  1  0.24626925  0.25475948  0.08713140  1
  Te  Te127  1  0.27887951  0.24671394  0.37084809  1
  Te  Te128  1  0.23886608  0.25733380  0.76418813  1
  Te  Te129  1  0.24210103  0.53724536  0.09630480  1
  Te  Te130  1  0.24075891  0.56725296  0.40224164  1
  Te  Te131  1  0.24024007  0.56445803  0.74962023  1
  Te  Te132  1  0.23519494  0.90136623  0.07594614  1
  Te  Te133  1  0.24619439  0.92198751  0.39726544  1
  Te  Te134  1  0.27848169  0.95456670  0.71611049  1
  Te  Te135  1  0.59915349  0.24393979  0.08738189  1
  Te  Te136  1  0.58971353  0.26395289  0.38249679  1
  Te  Te137  1  0.58104105  0.24816781  0.73522883  1
  Te  Te138  1  0.60329209  0.57420289  0.07271988  1
  Te  Te139  1  0.58727942  0.59254373  0.41043212  1
  Te  Te140  1  0.58970035  0.55306110  0.74698956  1
  Te  Te141  1  0.57519326  0.91699186  0.09090606  1
  Te  Te142  1  0.57319295  0.93640307  0.41254324  1
  Te  Te143  1  0.57870269  0.92554286  0.75348970  1
  Te  Te144  1  0.93684532  0.27857662  0.12221485  1
  Te  Te145  1  0.92993874  0.25820048  0.39402408  1
  Te  Te146  1  0.97578615  0.23830534  0.78006626  1
  Te  Te147  1  0.90688532  0.53729838  0.07614038  1
  Te  Te148  1  0.91656818  0.58000316  0.42637392  1
  Te  Te149  1  0.91218371  0.59033018  0.76899861  1
  Te  Te150  1  0.89602710  0.90677165  0.06830411  1
  Te  Te151  1  0.94178465  0.93131701  0.39991120  1
  Te  Te152  1  0.93749653  0.92104540  0.74972221  1
  Te  Te153  1  0.23116454  0.10215754  0.27163325  1
  Te  Te154  1  0.26174460  0.10521090  0.55510268  1
  Te  Te155  1  0.22310909  0.09452821  0.92735436  1
  Te  Te156  1  0.22181540  0.36322676  0.29335441  1
  Te  Te157  1  0.23303506  0.40492863  0.57549461  1
  Te  Te158  1  0.22524098  0.40011857  0.91587520  1
  Te  Te159  1  0.21728077  0.75407790  0.26389585  1
  Te  Te160  1  0.25176336  0.74345414  0.58289019  1
  Te  Te161  1  0.24942160  0.74499132  0.93329899  1
  Te  Te162  1  0.61313316  0.13902226  0.26932936  1
  Te  Te163  1  0.56980179  0.09662352  0.57521312  1
  Te  Te164  1  0.56875862  0.07314282  0.90790428  1
  Te  Te165  1  0.59268449  0.42233834  0.22990716  1
  Te  Te166  1  0.57686137  0.42413094  0.56675373  1
  Te  Te167  1  0.59726408  0.39402170  0.91438285  1
  Te  Te168  1  0.58459469  0.74718051  0.25127942  1
  Te  Te169  1  0.61130813  0.74714424  0.60210121  1
  Te  Te170  1  0.59523770  0.73557951  0.93073538  1
  Te  Te171  1  0.93835202  0.09261060  0.25194271  1
  Te  Te172  1  0.92015376  0.08366795  0.60621409  1
  Te  Te173  1  0.92320497  0.08956140  0.92264573  1
  Te  Te174  1  0.88935700  0.37840646  0.23403381  1
  Te  Te175  1  0.90151252  0.44016474  0.59664597  1
  Te  Te176  1  0.92951776  0.39486460  0.93268955  1
  Te  Te177  1  0.90935876  0.75593941  0.23980993  1
  Te  Te178  1  0.93094898  0.76971244  0.56914027  1
  Te  Te179  1  0.88730920  0.72072151  0.90442553  1
