# generated using pymatgen
data_In2Te3
_symmetry_space_group_name_H-M   'P 1'
_cell_length_a   19.02814234
_cell_length_b   19.01064066
_cell_length_c   19.07316930
_cell_angle_alpha   90.32239907
_cell_angle_beta   90.05312037
_cell_angle_gamma   90.00100577
_symmetry_Int_Tables_number   1
_chemical_formula_structural   In2Te3
_chemical_formula_sum   'In72 Te108'
_cell_volume   6899.36221686
_cell_formula_units_Z   36
loop_
 _symmetry_equiv_pos_site_id
 _symmetry_equiv_pos_as_xyz
  1  'x, y, z'
loop_
 _atom_site_type_symbol
 _atom_site_label
 _atom_site_symmetry_multiplicity
 _atom_site_fract_x
 _atom_site_fract_y
 _atom_site_fract_z
 _atom_site_occupancy
  In  In0  1  0.48558855  0.66112281  0.85677072  1
  In  In1  1  -0.01981145  0.33844875  0.00031786  1
  In  In2  1  0.79194283  0.14682233  0.01350640  1
  In  In3  1  0.79804821  0.46905495  0.31401193  1
  In  In4  1  0.02306638  0.86308138  0.14734210  1
  In  In5  1  -0.01028169  0.65754872  0.33721705  1
  In  In6  1  0.63094134  0.86072111  0.84437544  1
  In  In7  1  0.51585194  0.18374120  0.02222957  1
  In  In8  1  0.14546604  0.33415933  0.82606000  1
  In  In9  1  0.63185037  0.46295881  0.87607466  1
  In  In10  1  0.14311077  0.48406509  0.34234257  1
  In  In11  1  0.40676926  0.97527234  0.68137305  1
  In  In12  1  0.33859566  0.64051688  0.30083317  1
  In  In13  1  0.50808075  0.30838592  0.49146012  1
  In  In14  1  0.47978413  0.50624564  0.67288665  1
  In  In15  1  0.32572384  0.15811913  0.48738972  1
  In  In16  1  0.00792758  0.70476815  0.67324160  1
  In  In17  1  0.34179357  0.46899048  0.13733884  1
  In  In18  1  0.67286039  0.16451698  0.51415599  1
  In  In19  1  0.64122123  0.67518433  0.66746513  1
  In  In20  1  0.66852479  0.51273407  0.49056061  1
  In  In21  1  0.83730366  0.69495658  0.82890456  1
  In  In22  1  0.69205331  0.83418450  0.49457093  1
  In  In23  1  0.64811030  0.33276788  0.68561311  1
  In  In24  1  0.63534474  0.85250815  0.14826283  1
  In  In25  1  0.03301173  0.81759690  0.84671299  1
  In  In26  1  0.19422306  0.65969648  0.84362537  1
  In  In27  1  0.01290014  0.49242514  0.51660735  1
  In  In28  1  0.15469464  0.17008421  0.00976823  1
  In  In29  1  0.50089447  0.82420032  0.31533697  1
  In  In30  1  -0.01415251  0.48255157  0.18228412  1
  In  In31  1  0.80176609  0.00457393  0.16534759  1
  In  In32  1  0.03002737  0.86633911  0.47189099  1
  In  In33  1  0.34174818  0.47649718  0.47757706  1
  In  In34  1  0.50130286  0.02739475  0.85874317  1
  In  In35  1  0.33863990  0.67371963  0.66105438  1
  In  In36  1  0.35165964  0.01075663  0.34127788  1
  In  In37  1  0.86268798  0.31683284  0.50701277  1
  In  In38  1  0.83784559  0.17410615  0.32804780  1
  In  In39  1  0.18917134  0.69435029  0.50767870  1
  In  In40  1  0.31920693  -0.00995203  -0.00959656  1
  In  In41  1  0.83295738  0.84763759  0.65840516  1
  In  In42  1  0.01585683  0.32687654  0.65763937  1
  In  In43  1  0.01415858  -0.01592334  0.68738973  1
  In  In44  1  0.83822713  0.00765785  0.50918780  1
  In  In45  1  0.15310319  0.04084563  0.47665035  1
  In  In46  1  0.35461351  0.18387267  0.16724566  1
  In  In47  1  0.86136293  0.64756472  0.51858974  1
  In  In48  1  0.17809585  0.31707533  0.50876075  1
  In  In49  1  0.35143940  0.47974573  0.85880459  1
  In  In50  1  0.82421503  0.30751911  0.85255850  1
  In  In51  1  0.82295595  0.14539168  0.70708865  1
  In  In52  1  0.17254382  0.82229628  0.00402584  1
  In  In53  1  0.15754193  0.50189194  -0.00845229  1
  In  In54  1  0.86635145  0.68031487  0.14946274  1
  In  In55  1  0.14364909  0.29467464  0.20935566  1
  In  In56  1  0.30297774  0.34523095  0.68390078  1
  In  In57  1  0.33813960  0.82039373  0.82712185  1
  In  In58  1  0.82411187  0.84443899  -0.02530503  1
  In  In59  1  0.63431678  0.00484933  0.31674615  1
  In  In60  1  0.83262001  0.85008377  0.37042643  1
  In  In61  1  0.20601197  0.84098466  0.30329412  1
  In  In62  1  0.61457821  0.43721401  0.10400206  1
  In  In63  1  0.17587915  -0.00137953  0.83643947  1
  In  In64  1  0.65876401  0.65049535  0.01750442  1
  In  In65  1  0.18194825  0.02366310  0.16140572  1
  In  In66  1  0.82228032  0.32400108  0.16203208  1
  In  In67  1  0.51906380  0.66479178  0.45378084  1
  In  In68  1  0.68461205  0.66919932  0.29128560  1
  In  In69  1  0.49421554  0.16719521  0.65459410  1
  In  In70  1  0.84402674  0.50407829  -0.01993803  1
  In  In71  1  0.36842698  0.32111069  0.29447215  1
  Te  Te72  1  0.07227905  0.07007191  0.07687242  1
  Te  Te73  1  0.08290715  0.13862018  0.39296475  1
  Te  Te74  1  0.07542671  0.08348056  0.77448676  1
  Te  Te75  1  0.07811334  0.39259826  0.10292930  1
  Te  Te76  1  0.06790328  0.38476848  0.42571195  1
  Te  Te77  1  0.09146501  0.42905872  0.72929468  1
  Te  Te78  1  0.08327312  0.74472016  0.09012648  1
  Te  Te79  1  0.09698377  0.75037267  0.39771223  1
  Te  Te80  1  0.12817650  0.75883859  0.74595885  1
  Te  Te81  1  0.41166479  0.08452100  0.06918736  1
  Te  Te82  1  0.43897444  0.07336489  0.44387790  1
  Te  Te83  1  0.40917854  0.10338302  0.76258546  1
  Te  Te84  1  0.43064774  0.37063520  0.06591197  1
  Te  Te85  1  0.44688675  0.40890798  0.39504061  1
  Te  Te86  1  0.42866762  0.39441770  0.75671442  1
  Te  Te87  1  0.49502713  0.88568638  0.10432963  1
  Te  Te88  1  0.40348520  0.74155951  0.39583452  1
  Te  Te89  1  0.44191476  0.74919747  0.74169004  1
  Te  Te90  1  0.69099095  0.09834667  0.12381056  1
  Te  Te91  1  0.74513261  0.06916159  0.40669358  1
  Te  Te92  1  0.77166845  0.04586797  0.80115451  1
  Te  Te93  1  0.75629713  0.40867820  0.05549084  1
  Te  Te94  1  0.75070405  0.39758457  0.43674594  1
  Te  Te95  1  0.73610391  0.41245573  0.77799650  1
  Te  Te96  1  0.75233872  0.75528280  0.08145073  1
  Te  Te97  1  0.76065988  0.71656180  0.41711725  1
  Te  Te98  1  0.72568572  0.77530057  0.74778800  1
  Te  Te99  1  0.05169388  0.18915436  0.25069775  1
  Te  Te100  1  0.10749930  0.22575497  0.59879228  1
  Te  Te101  1  0.06207036  0.24396549  0.91607992  1
  Te  Te102  1  0.08299297  0.58260758  0.24487312  1
  Te  Te103  1  0.08534925  0.61101287  0.58012089  1
  Te  Te104  1  0.08300307  0.58510763  0.89917003  1
  Te  Te105  1  0.09647859  0.93416322  0.25653344  1
  Te  Te106  1  0.10732496  0.92927197  0.58169388  1
  Te  Te107  1  0.08647840  0.92643244  0.93586129  1
  Te  Te108  1  0.45677292  0.20140810  0.27638398  1
  Te  Te109  1  0.39628137  0.26639290  0.58372083  1
  Te  Te110  1  0.41635353  0.26748558  0.94834265  1
  Te  Te111  1  0.42387757  0.54128948  0.23635911  1
  Te  Te112  1  0.42453145  0.58642760  0.55582665  1
  Te  Te113  1  0.43004498  0.56463791  0.95210424  1
  Te  Te114  1  0.42365312  0.92769638  0.24053230  1
  Te  Te115  1  0.38264753  0.90595949  0.55740688  1
  Te  Te116  1  0.42230424  0.90989056  0.91621796  1
  Te  Te117  1  0.73386845  0.25447338  0.25779753  1
  Te  Te118  1  0.75804635  0.25086476  0.60541373  1
  Te  Te119  1  0.71728948  0.24873876  0.93489856  1
  Te  Te120  1  0.77152386  0.57444157  0.21093413  1
  Te  Te121  1  0.74472891  0.58917462  0.59771255  1
  Te  Te122  1  0.74864581  0.59725554  0.90708400  1
  Te  Te123  1  0.73791277  0.89570504  0.26139562  1
  Te  Te124  1  0.73294219  0.94105868  0.59597711  1
  Te  Te125  1  0.72112672  0.94502432  0.93179756  1
  Te  Te126  1  0.23962584  0.25746857  0.09914557  1
  Te  Te127  1  0.26868085  0.26589361  0.40022391  1
  Te  Te128  1  0.24774844  0.24425697  0.77066926  1
  Te  Te129  1  0.24953889  0.56813180  0.08220240  1
  Te  Te130  1  0.23885535  0.57747504  0.41688041  1
  Te  Te131  1  0.28200835  0.57272760  0.75582941  1
  Te  Te132  1  0.25779029  0.90701839  0.09794582  1
  Te  Te133  1  0.24709590  0.93164835  0.41565826  1
  Te  Te134  1  0.27290481  0.92762958  0.74639736  1
  Te  Te135  1  0.55984242  0.29220225  0.12781863  1
  Te  Te136  1  0.60386662  0.23815565  0.40835339  1
  Te  Te137  1  0.59603289  0.21402146  0.75199109  1
  Te  Te138  1  0.55215304  0.56778666  0.07552476  1
  Te  Te139  1  0.59799981  0.56773210  0.36946753  1
  Te  Te140  1  0.58143485  0.57345867  0.76465392  1
  Te  Te141  1  0.61135906  0.96684441  0.05285465  1
  Te  Te142  1  0.58129239  0.90393855  0.41553859  1
  Te  Te143  1  0.55389867  0.94150635  0.74550116  1
  Te  Te144  1  0.90582190  0.23246186  0.07642117  1
  Te  Te145  1  0.93363540  0.20653568  0.43922914  1
  Te  Te146  1  0.92116791  0.24906779  0.75345035  1
  Te  Te147  1  0.94186684  0.57495768  0.07074367  1
  Te  Te148  1  0.90999254  0.55178471  0.40950249  1
  Te  Te149  1  0.91330026  0.61353895  0.73491368  1
  Te  Te150  1  0.90142865  0.92230932  0.08056867  1
  Te  Te151  1  0.93438867  0.95860465  0.40146970  1
  Te  Te152  1  0.92315821  0.89426731  0.76919728  1
  Te  Te153  1  0.26379402  0.10263758  0.25986172  1
  Te  Te154  1  0.23125250  0.10361653  0.58589235  1
  Te  Te155  1  0.25416464  0.10252501  0.91677225  1
  Te  Te156  1  0.24389917  0.41005770  0.25784939  1
  Te  Te157  1  0.23990241  0.43739685  0.58056836  1
  Te  Te158  1  0.24439135  0.39871002  0.92562010  1
  Te  Te159  1  0.26918551  0.74022811  0.21926743  1
  Te  Te160  1  0.28493838  0.78598112  0.57775744  1
  Te  Te161  1  0.28125827  0.73721400  0.93952844  1
  Te  Te162  1  0.56662933  0.09384377  0.22344601  1
  Te  Te163  1  0.56243747  0.07615909  0.55914507  1
  Te  Te164  1  0.59696361  0.13123403  0.90764126  1
  Te  Te165  1  0.62033514  0.38149898  0.23951898  1
  Te  Te166  1  0.57948835  0.42324749  0.58291733  1
  Te  Te167  1  0.52998007  0.37296840  0.93014056  1
  Te  Te168  1  0.56819817  0.72899372  0.21940276  1
  Te  Te169  1  0.57517890  0.75707472  0.56099266  1
  Te  Te170  1  0.57806621  0.75191314  0.93592195  1
  Te  Te171  1  0.90696608  0.08625426  0.23088548  1
  Te  Te172  1  0.92091415  0.07893029  0.61111780  1
  Te  Te173  1  0.86988939  0.08660341  0.90486746  1
  Te  Te174  1  0.91538834  0.38439226  0.27083230  1
  Te  Te175  1  0.90816371  0.42673991  0.60100595  1
  Te  Te176  1  0.92621876  0.42117273  0.88641312  1
  Te  Te177  1  0.91397413  0.76717055  0.26540682  1
  Te  Te178  1  0.92623286  0.78187645  0.55518916  1
  Te  Te179  1  0.93276286  0.74545753  0.93386522  1
