# generated using pymatgen
data_In2Te3
_symmetry_space_group_name_H-M   'P 1'
_cell_length_a   18.90544842
_cell_length_b   18.89838230
_cell_length_c   18.89942581
_cell_angle_alpha   89.95971568
_cell_angle_beta   90.02313916
_cell_angle_gamma   90.05201514
_symmetry_Int_Tables_number   1
_chemical_formula_structural   In2Te3
_chemical_formula_sum   'In72 Te108'
_cell_volume   6752.42705835
_cell_formula_units_Z   36
loop_
 _symmetry_equiv_pos_site_id
 _symmetry_equiv_pos_as_xyz
  1  'x, y, z'
loop_
 _atom_site_type_symbol
 _atom_site_label
 _atom_site_symmetry_multiplicity
 _atom_site_fract_x
 _atom_site_fract_y
 _atom_site_fract_z
 _atom_site_occupancy
  In  In0  1  0.84048932  0.82763424  0.33498366  1
  In  In1  1  0.16959616  -0.00933998  0.13124537  1
  In  In2  1  0.15883308  0.70454229  0.51741052  1
  In  In3  1  0.65208281  0.82382540  0.17539212  1
  In  In4  1  0.17027477  0.15898886  0.69923194  1
  In  In5  1  0.66658496  0.48695897  0.50573349  1
  In  In6  1  0.65823629  0.00307655  0.01370004  1
  In  In7  1  0.16491485  0.67114955  0.82360825  1
  In  In8  1  0.68959155  0.02247823  0.36759278  1
  In  In9  1  0.33221856  0.50021766  0.48972983  1
  In  In10  1  0.33840610  0.01182369  0.34855927  1
  In  In11  1  0.50673701  0.49746071  0.31981259  1
  In  In12  1  0.86175144  -0.01638376  0.15583590  1
  In  In13  1  0.50535757  0.64773315  0.15993526  1
  In  In14  1  0.34006944  0.66113839  -0.01192026  1
  In  In15  1  -0.00498420  0.67554066  0.32321278  1
  In  In16  1  0.13570165  0.00030654  0.86202855  1
  In  In17  1  0.35698057  0.67649076  0.32893468  1
  In  In18  1  0.11799356  0.47224869  0.70416016  1
  In  In19  1  -0.01567449  0.15586099  0.51729762  1
  In  In20  1  0.48972770  0.32899285  0.14756723  1
  In  In21  1  0.31960298  0.00275408  0.67581577  1
  In  In22  1  0.67706083  0.65730447  0.30453576  1
  In  In23  1  0.16189643  0.32482644  0.50481634  1
  In  In24  1  0.34019705  0.48478830  0.84832523  1
  In  In25  1  0.13843756  -0.00008099  0.53637607  1
  In  In26  1  0.67554164  0.87116727  0.51203204  1
  In  In27  1  -0.02785524  0.49548987  0.15484078  1
  In  In28  1  0.47952595  0.02171825  0.17086850  1
  In  In29  1  0.53735915  0.48864143  0.67943223  1
  In  In30  1  0.68364613  0.15542877  0.82750407  1
  In  In31  1  0.64222031  0.30351386  0.36123704  1
  In  In32  1  0.69245088  0.30409971  0.66283018  1
  In  In33  1  0.13770108  0.66168750  0.13302081  1
  In  In34  1  0.70422477  0.67056259  0.68507741  1
  In  In35  1  0.86011981  0.33264522  0.49246763  1
  In  In36  1  0.00827243  -0.00344663  0.34493251  1
  In  In37  1  0.50742348  0.16211485  0.66345751  1
  In  In38  1  0.00687147  0.70200932  -0.03671023  1
  In  In39  1  0.17968996  0.84826810  0.32679754  1
  In  In40  1  0.84302501  0.67547142  0.50063404  1
  In  In41  1  0.84721713  0.33102708  0.82662810  1
  In  In42  1  0.45354728  0.30146701  0.87291182  1
  In  In43  1  0.33358062  0.85003519  0.82809366  1
  In  In44  1  -0.02550916  0.66439486  0.69439304  1
  In  In45  1  0.66357457  0.50251705  0.85693505  1
  In  In46  1  0.86634020  -0.01162978  0.81719657  1
  In  In47  1  0.32104334  0.17612624  0.15589181  1
  In  In48  1  0.17277506  0.18379524  -0.00353781  1
  In  In49  1  0.16149993  0.49345532  -0.04157311  1
  In  In50  1  0.00964363  0.16284212  0.19066070  1
  In  In51  1  -0.00674195  0.52441577  0.50572871  1
  In  In52  1  -0.00930921  0.32311740  -0.00005781  1
  In  In53  1  0.65251394  0.81411605  0.85667950  1
  In  In54  1  0.50830721  0.83162029  0.68152864  1
  In  In55  1  0.35089452  0.33627264  0.31935632  1
  In  In56  1  0.32814098  0.66805540  0.65805243  1
  In  In57  1  0.51466598  0.00931374  0.50530134  1
  In  In58  1  0.18299181  0.48534500  0.33907784  1
  In  In59  1  0.82696012  0.66989343  0.17479934  1
  In  In60  1  0.32311363  0.83378649  0.14757176  1
  In  In61  1  0.71598356  0.00230702  0.67427409  1
  In  In62  1  0.49071587  0.00866275  0.83475934  1
  In  In63  1  0.81400399  0.50719982  0.01537018  1
  In  In64  1  0.32902026  0.31553469  0.65492374  1
  In  In65  1  0.50153119  0.49354873  0.01232793  1
  In  In66  1  0.65304162  0.18892921  0.17485236  1
  In  In67  1  0.49000610  0.68781799  0.49883239  1
  In  In68  1  0.83428979  0.14761850  -0.01985632  1
  In  In69  1  0.83546186  0.83201155  -0.00761913  1
  In  In70  1  0.17299618  0.19651122  0.32372456  1
  In  In71  1  0.81710261  0.33805951  0.17533996  1
  Te  Te72  1  0.07370768  0.09171683  0.07375390  1
  Te  Te73  1  0.09974695  0.09747008  0.41727891  1
  Te  Te74  1  0.06152395  0.06691979  0.74583487  1
  Te  Te75  1  0.07748412  0.42734371  0.06985923  1
  Te  Te76  1  0.07623470  0.42119019  0.42453267  1
  Te  Te77  1  0.05675346  0.35891273  0.78548705  1
  Te  Te78  1  0.09477708  0.78081401  0.05535876  1
  Te  Te79  1  0.07509165  0.77149833  0.40995375  1
  Te  Te80  1  0.07891456  0.75840107  0.74226550  1
  Te  Te81  1  0.41601965  0.10564342  0.06346241  1
  Te  Te82  1  0.43751989  0.10320829  0.41644175  1
  Te  Te83  1  0.40114557  0.10258790  0.75584479  1
  Te  Te84  1  0.39586523  0.40803318  0.06702645  1
  Te  Te85  1  0.43527665  0.41199269  0.42370540  1
  Te  Te86  1  0.42484041  0.40780957  0.74298179  1
  Te  Te87  1  0.43382244  0.75011211  0.07028586  1
  Te  Te88  1  0.39533419  0.77498819  0.42992429  1
  Te  Te89  1  0.41651848  0.74088806  0.75936822  1
  Te  Te90  1  0.75542509  0.08299245  0.10141785  1
  Te  Te91  1  0.77843027  0.09559756  0.46079424  1
  Te  Te92  1  0.79979028  0.10943089  0.74101675  1
  Te  Te93  1  0.73581755  0.39492876  0.06753375  1
  Te  Te94  1  0.75033250  0.40637165  0.41197868  1
  Te  Te95  1  0.74081183  0.41460924  0.75492465  1
  Te  Te96  1  0.73908004  0.74771536  0.07731668  1
  Te  Te97  1  0.73295084  0.75110544  0.41664771  1
  Te  Te98  1  0.76588845  0.77681985  0.76787053  1
  Te  Te99  1  0.08175904  0.28005237  0.24455991  1
  Te  Te100  1  0.08058078  0.24218339  0.60083174  1
  Te  Te101  1  0.06602331  0.23777609  0.90295940  1
  Te  Te102  1  0.08405576  0.57451563  0.25061744  1
  Te  Te103  1  0.09625512  0.59061802  0.59672555  1
  Te  Te104  1  0.06002922  0.57940438  0.88704753  1
  Te  Te105  1  0.08118337  0.91897838  0.23438365  1
  Te  Te106  1  0.04160825  0.90760628  0.59788701  1
  Te  Te107  1  0.05688679  0.89936746  0.93757891  1
  Te  Te108  1  0.42963489  0.22953418  0.24802589  1
  Te  Te109  1  0.42898198  0.24761409  0.57141133  1
  Te  Te110  1  0.36810030  0.20490626  0.94417536  1
  Te  Te111  1  0.39915045  0.56523335  0.23627789  1
  Te  Te112  1  0.43497910  0.57146184  0.58581412  1
  Te  Te113  1  0.43976879  0.58404298  0.90499862  1
  Te  Te114  1  0.40406335  0.91455957  0.25018449  1
  Te  Te115  1  0.42456076  0.92487821  0.59519477  1
  Te  Te116  1  0.41423849  0.92387070  0.92867577  1
  Te  Te117  1  0.75297129  0.23968317  0.27683732  1
  Te  Te118  1  0.76612620  0.23246143  0.55542909  1
  Te  Te119  1  0.74882423  0.25731316  0.92073840  1
  Te  Te120  1  0.75836496  0.55644563  0.23841862  1
  Te  Te121  1  0.76388470  0.57325699  0.58473745  1
  Te  Te122  1  0.75759654  0.59840450  0.91500549  1
  Te  Te123  1  0.75082272  0.91633918  0.24695672  1
  Te  Te124  1  0.78839704  0.89461989  0.60227361  1
  Te  Te125  1  0.75115147  0.93910586  0.91275421  1
  Te  Te126  1  0.22011887  0.27127252  0.10680348  1
  Te  Te127  1  0.27021375  0.25633521  0.42319472  1
  Te  Te128  1  0.24034314  0.27324386  0.76629870  1
  Te  Te129  1  0.24080041  0.57476152  0.06414230  1
  Te  Te130  1  0.24549152  0.60556466  0.42081292  1
  Te  Te131  1  0.25553713  0.56940683  0.75119337  1
  Te  Te132  1  0.27505745  0.93067009  0.04693820  1
  Te  Te133  1  0.24224739  0.93264351  0.43550502  1
  Te  Te134  1  0.22158287  0.92130208  0.75562696  1
  Te  Te135  1  0.57488993  0.24144397  0.06364349  1
  Te  Te136  1  0.56158829  0.19994239  0.42526925  1
  Te  Te137  1  0.58146265  0.25187860  0.76276200  1
  Te  Te138  1  0.60387608  0.56542610  0.09108769  1
  Te  Te139  1  0.58457357  0.58544634  0.41985412  1
  Te  Te140  1  0.59146903  0.60359393  0.76198400  1
  Te  Te141  1  0.56404846  0.91697022  0.09386841  1
  Te  Te142  1  0.58138265  0.91825478  0.40282150  1
  Te  Te143  1  0.59854024  0.93132159  0.75361649  1
  Te  Te144  1  0.90566375  0.23296777  0.09129643  1
  Te  Te145  1  0.95066429  0.25078000  0.40982636  1
  Te  Te146  1  0.93935811  0.29151571  0.71577561  1
  Te  Te147  1  0.92926631  0.61535516  0.07075936  1
  Te  Te148  1  0.90039793  0.58125381  0.39571122  1
  Te  Te149  1  0.91058531  0.53375260  0.70987541  1
  Te  Te150  1  0.93910220  0.93363301  0.03712514  1
  Te  Te151  1  0.91414100  0.91605847  0.42924992  1
  Te  Te152  1  0.97520239  0.92235287  0.73888616  1
  Te  Te153  1  0.23893885  0.07475088  0.24655344  1
  Te  Te154  1  0.24832511  0.09816087  0.58212265  1
  Te  Te155  1  0.24726623  0.09227685  0.90472076  1
  Te  Te156  1  0.25481159  0.41088312  0.23611085  1
  Te  Te157  1  0.24107037  0.42871417  0.58851930  1
  Te  Te158  1  0.24124195  0.38427108  0.89552014  1
  Te  Te159  1  0.23887480  0.73521289  0.23617732  1
  Te  Te160  1  0.26033470  0.77955637  0.59180344  1
  Te  Te161  1  0.24799784  0.75717167  0.91691194  1
  Te  Te162  1  0.59556846  0.07365639  0.25520016  1
  Te  Te163  1  0.61541657  0.08322093  0.59090678  1
  Te  Te164  1  0.57959289  0.09630879  0.92298290  1
  Te  Te165  1  0.58806185  0.39556823  0.24783138  1
  Te  Te166  1  0.58750990  0.38317029  0.58188001  1
  Te  Te167  1  0.56587008  0.39761481  0.91248072  1
  Te  Te168  1  0.55882514  0.74480899  0.26596705  1
  Te  Te169  1  0.59928928  0.74704885  0.59004820  1
  Te  Te170  1  0.54634008  0.77605013  0.94512189  1
  Te  Te171  1  0.90653389  0.07918907  0.26617634  1
  Te  Te172  1  0.89548742  0.03956548  0.54525600  1
  Te  Te173  1  0.93795998  0.10227975  0.88577170  1
  Te  Te174  1  0.92181485  0.40336347  0.25590376  1
  Te  Te175  1  0.92486142  0.42442091  0.60078235  1
  Te  Te176  1  0.91045726  0.42877471  0.92498441  1
  Te  Te177  1  0.92973606  0.77128384  0.22431798  1
  Te  Te178  1  0.92997042  0.75680113  0.58617497  1
  Te  Te179  1  0.89276621  0.75085194  0.88090192  1
