# generated using pymatgen
data_In2Te3
_symmetry_space_group_name_H-M   'P 1'
_cell_length_a   18.77962997
_cell_length_b   18.77871491
_cell_length_c   18.77432040
_cell_angle_alpha   90.02367173
_cell_angle_beta   90.05981240
_cell_angle_gamma   89.96799983
_symmetry_Int_Tables_number   1
_chemical_formula_structural   In2Te3
_chemical_formula_sum   'In72 Te108'
_cell_volume   6620.89626191
_cell_formula_units_Z   36
loop_
 _symmetry_equiv_pos_site_id
 _symmetry_equiv_pos_as_xyz
  1  'x, y, z'
loop_
 _atom_site_type_symbol
 _atom_site_label
 _atom_site_symmetry_multiplicity
 _atom_site_fract_x
 _atom_site_fract_y
 _atom_site_fract_z
 _atom_site_occupancy
  In  In0  1  0.13987885  0.49866761  0.01088793  1
  In  In1  1  0.17290470  0.14432413  0.32222963  1
  In  In2  1  0.64666844  -0.00573638  0.66336669  1
  In  In3  1  0.49587739  -0.04472128  0.16266036  1
  In  In4  1  0.65202667  0.14132365  0.14046140  1
  In  In5  1  0.68674362  0.34147357  0.66561994  1
  In  In6  1  0.52410170  0.31370256  0.17130858  1
  In  In7  1  0.65144051  0.68167812  0.33612905  1
  In  In8  1  0.83046815  0.82680541  0.00127530  1
  In  In9  1  0.34323148  -0.01787118  0.67256296  1
  In  In10  1  0.00426402  0.49452002  0.50426245  1
  In  In11  1  0.17807094  0.67983644  0.18626894  1
  In  In12  1  0.34176276  0.69418821  0.00773929  1
  In  In13  1  0.49127050  0.68516477  0.48179581  1
  In  In14  1  0.70292306  0.53933470  0.84828146  1
  In  In15  1  0.35325645  -0.03562485  0.00456597  1
  In  In16  1  0.34144914  0.50275079  0.18125776  1
  In  In17  1  0.17243563  0.65085043  0.50921793  1
  In  In18  1  0.00801050  0.02483627  -0.00418257  1
  In  In19  1  0.67456495  0.32456847  0.00981310  1
  In  In20  1  0.52619410  0.49350580  0.66128894  1
  In  In21  1  0.50671627  0.68994459  0.15568115  1
  In  In22  1  -0.00167566  -0.00642810  0.33337491  1
  In  In23  1  -0.00123846  0.32726004  0.66913141  1
  In  In24  1  0.49646511  0.14537884  0.66325729  1
  In  In25  1  0.32765700  0.50515027  0.47530190  1
  In  In26  1  0.33358296  0.29554779  -0.00221623  1
  In  In27  1  0.19299561  0.82263139  0.34373994  1
  In  In28  1  0.30873857  0.14330164  0.16365564  1
  In  In29  1  0.34116847  0.70025590  0.65086316  1
  In  In30  1  0.79556828  -0.01789211  0.17232823  1
  In  In31  1  0.33302139  0.50650571  0.84761527  1
  In  In32  1  0.16842064  0.69491409  0.85069782  1
  In  In33  1  0.67110731  0.31471519  0.34758556  1
  In  In34  1  0.82263413  0.82174835  0.69261328  1
  In  In35  1  0.81696390  -0.01261581  0.47966851  1
  In  In36  1  0.82618422  0.48792244  0.31624777  1
  In  In37  1  0.17565658  0.15255395  0.00484244  1
  In  In38  1  0.14748509  0.52885957  0.34563548  1
  In  In39  1  0.64490006  0.13764679  0.86282186  1
  In  In40  1  0.17369424  0.31450817  0.80944545  1
  In  In41  1  0.66686939  0.52660764  0.16552860  1
  In  In42  1  0.01115356  0.17061868  0.15052834  1
  In  In43  1  0.31199496  0.32515348  0.65631965  1
  In  In44  1  0.01353675  0.84336358  0.82828430  1
  In  In45  1  0.35528467  0.14674949  0.49137034  1
  In  In46  1  0.17556524  0.16931228  0.66734718  1
  In  In47  1  0.82819058  -0.02095368  0.84348317  1
  In  In48  1  0.81320296  0.67163720  0.50391367  1
  In  In49  1  0.17664433  -0.00426675  0.82838281  1
  In  In50  1  0.00757365  0.82253264  0.16057846  1
  In  In51  1  0.49739759  0.83174800  0.68301068  1
  In  In52  1  -0.00101300  0.15097194  0.81498888  1
  In  In53  1  0.83605200  0.32823526  0.50561964  1
  In  In54  1  0.84932383  0.33873490  0.16941222  1
  In  In55  1  -0.01737318  0.34937038  -0.01071490  1
  In  In56  1  0.32235387  0.33853015  0.33659652  1
  In  In57  1  0.84269299  0.16998838  0.66761052  1
  In  In58  1  0.53317128  0.71453343  0.86503290  1
  In  In59  1  0.66936533  0.67794129  0.67225701  1
  In  In60  1  0.17052916  0.49776846  0.67088685  1
  In  In61  1  0.49804765  0.52137957  0.34769652  1
  In  In62  1  0.49952668  0.32661984  0.83887292  1
  In  In63  1  -0.00191650  0.85540291  0.52006840  1
  In  In64  1  -0.01231425  0.68283674  0.31875036  1
  In  In65  1  -0.05748410  0.54379590  0.82071985  1
  In  In66  1  0.81934053  0.15116148  0.34063576  1
  In  In67  1  0.34124077  0.83345036  0.48558661  1
  In  In68  1  -0.01283575  0.16965913  0.48510500  1
  In  In69  1  0.49917244  0.15049873  0.33738074  1
  In  In70  1  0.51988530  0.49645885  0.02303891  1
  In  In71  1  -0.02051858  0.67053788  0.01228710  1
  Te  Te72  1  0.11192653  0.05522736  0.11156214  1
  Te  Te73  1  0.08838404  0.06973974  0.42958590  1
  Te  Te74  1  0.07816152  0.06091465  0.72023379  1
  Te  Te75  1  0.06363126  0.40893127  0.09831316  1
  Te  Te76  1  0.09129099  0.41302717  0.41806748  1
  Te  Te77  1  0.07436187  0.42233484  0.76425715  1
  Te  Te78  1  0.10159552  0.74374845  0.06943711  1
  Te  Te79  1  0.07833239  0.74706874  0.42395001  1
  Te  Te80  1  0.09293467  0.75525340  0.73916941  1
  Te  Te81  1  0.42112709  0.07449674  0.09280857  1
  Te  Te82  1  0.41551824  0.04509342  0.40034851  1
  Te  Te83  1  0.43163507  0.05926179  0.76623298  1
  Te  Te84  1  0.41080195  0.40638057  0.08245521  1
  Te  Te85  1  0.43079375  0.40559819  0.42218299  1
  Te  Te86  1  0.40678534  0.41832010  0.74318401  1
  Te  Te87  1  0.42499403  0.79342621  0.08186814  1
  Te  Te88  1  0.44595775  0.78994915  0.38522007  1
  Te  Te89  1  0.40902086  0.75091178  0.77731825  1
  Te  Te90  1  0.75655634  0.07202791  0.06287202  1
  Te  Te91  1  0.71184038  0.06777848  0.40437400  1
  Te  Te92  1  0.74816076  0.08111671  0.75227049  1
  Te  Te93  1  0.75601451  0.42890531  0.08614659  1
  Te  Te94  1  0.74379119  0.42371865  0.42670112  1
  Te  Te95  1  0.75757041  0.42965963  0.76307773  1
  Te  Te96  1  0.76085133  0.71783282  0.07370384  1
  Te  Te97  1  0.73176598  0.77254829  0.42869581  1
  Te  Te98  1  0.72758026  0.75555180  0.78434178  1
  Te  Te99  1  0.07849494  0.24044309  0.26075411  1
  Te  Te100  1  0.08629841  0.25125236  0.57300965  1
  Te  Te101  1  0.08390329  0.23926913  0.91390679  1
  Te  Te102  1  0.06509969  0.58719676  0.22801558  1
  Te  Te103  1  0.06892085  0.59120126  0.60481019  1
  Te  Te104  1  0.07375540  0.58314119  0.90199445  1
  Te  Te105  1  0.09391096  0.90434202  0.25536375  1
  Te  Te106  1  0.07605568  0.95533270  0.59052719  1
  Te  Te107  1  0.09583698  0.91625325  0.93572284  1
  Te  Te108  1  0.40744405  0.24725912  0.24364534  1
  Te  Te109  1  0.42224866  0.25383238  0.58076439  1
  Te  Te110  1  0.42494993  0.22058936  0.91027710  1
  Te  Te111  1  0.41755777  0.61226449  0.25508157  1
  Te  Te112  1  0.41462196  0.58287730  0.58286632  1
  Te  Te113  1  0.43032257  0.58841175  0.93216472  1
  Te  Te114  1  0.40053676  0.88337246  0.25306003  1
  Te  Te115  1  0.43824073  0.91716102  0.57112260  1
  Te  Te116  1  0.45551142  0.93742915  0.89546919  1
  Te  Te117  1  0.73955583  0.24183575  0.23213850  1
  Te  Te118  1  0.74196923  0.22754148  0.56928513  1
  Te  Te119  1  0.73981436  0.24236765  0.90627641  1
  Te  Te120  1  0.76117866  0.60948959  0.25190028  1
  Te  Te121  1  0.76078180  0.57473303  0.60942120  1
  Te  Te122  1  0.77833258  0.61311234  0.95980262  1
  Te  Te123  1  0.72191619  0.89041182  0.26205873  1
  Te  Te124  1  0.74609057  0.90527085  0.58978703  1
  Te  Te125  1  0.72577361  0.90807394  0.92682221  1
  Te  Te126  1  0.22842241  0.26023369  0.10147044  1
  Te  Te127  1  0.25112974  0.23627084  0.42204393  1
  Te  Te128  1  0.28328914  0.21993084  0.76475242  1
  Te  Te129  1  0.25393184  0.58021458  0.07673429  1
  Te  Te130  1  0.26630784  0.61722948  0.39296116  1
  Te  Te131  1  0.25954562  0.59648791  0.74691796  1
  Te  Te132  1  0.22172946  0.94755018  0.06946022  1
  Te  Te133  1  0.25172462  0.93439863  0.42096628  1
  Te  Te134  1  0.25333026  0.89407722  0.75249368  1
  Te  Te135  1  0.56126770  0.22987606  0.05193920  1
  Te  Te136  1  0.57686578  0.23731399  0.42864720  1
  Te  Te137  1  0.59202288  0.24292999  0.74804318  1
  Te  Te138  1  0.60374526  0.61846136  0.05912526  1
  Te  Te139  1  0.59887753  0.58237715  0.44321939  1
  Te  Te140  1  0.57325489  0.59217970  0.76661208  1
  Te  Te141  1  0.60401039  0.92821151  0.05909277  1
  Te  Te142  1  0.65557974  0.91654103  0.39961029  1
  Te  Te143  1  0.57257351  0.92483505  0.77473494  1
  Te  Te144  1  0.90421534  0.24070955  0.06600818  1
  Te  Te145  1  0.91200798  0.26332171  0.39022474  1
  Te  Te146  1  0.90460169  0.26389572  0.77045615  1
  Te  Te147  1  0.88699630  0.56867700  0.06260105  1
  Te  Te148  1  0.91298323  0.58467980  0.41725037  1
  Te  Te149  1  0.87136488  0.61489107  0.71464040  1
  Te  Te150  1  0.92154720  0.92727545  0.08161278  1
  Te  Te151  1  0.90695336  0.89212785  0.40103544  1
  Te  Te152  1  0.92361893  0.92826646  0.73765365  1
  Te  Te153  1  0.27406059  0.04667552  0.27108396  1
  Te  Te154  1  0.25687530  0.07254383  0.58242914  1
  Te  Te155  1  0.27081265  0.07258590  0.92006066  1
  Te  Te156  1  0.23166185  0.42955558  0.25465875  1
  Te  Te157  1  0.23526310  0.41595255  0.55918822  1
  Te  Te158  1  0.24325053  0.40552964  0.91978469  1
  Te  Te159  1  0.27979788  0.78430480  0.22443422  1
  Te  Te160  1  0.23061761  0.77372291  0.57924819  1
  Te  Te161  1  0.26437165  0.78431793  0.91883739  1
  Te  Te162  1  0.57846047  0.05844697  0.24415845  1
  Te  Te163  1  0.57194906  0.06978826  0.56080148  1
  Te  Te164  1  0.57070095  0.03321801  0.94367817  1
  Te  Te165  1  0.58360200  0.42899699  0.25261975  1
  Te  Te166  1  0.59343200  0.40364013  0.56780489  1
  Te  Te167  1  0.59464186  0.42492922  0.91034741  1
  Te  Te168  1  0.60189314  0.77900803  0.23214238  1
  Te  Te169  1  0.58379829  0.76193990  0.57793723  1
  Te  Te170  1  0.59533948  0.79998759  0.96840725  1
  Te  Te171  1  0.90915763  0.07916296  0.23934527  1
  Te  Te172  1  0.91002519  0.07208336  0.57242832  1
  Te  Te173  1  0.89863894  0.09442027  0.91546618  1
  Te  Te174  1  0.94027966  0.42266480  0.25042150  1
  Te  Te175  1  0.90565763  0.42569889  0.59987383  1
  Te  Te176  1  0.89320587  0.43086351  0.90236627  1
  Te  Te177  1  0.89467867  0.75916157  0.23316420  1
  Te  Te178  1  0.91486132  0.74895924  0.59139121  1
  Te  Te179  1  0.91497950  0.74972539  0.89683987  1
