# generated using pymatgen
data_In2Te3
_symmetry_space_group_name_H-M   'P 1'
_cell_length_a   18.76055345
_cell_length_b   18.76810354
_cell_length_c   18.76740963
_cell_angle_alpha   90.05680073
_cell_angle_beta   90.02012437
_cell_angle_gamma   90.02474625
_symmetry_Int_Tables_number   1
_chemical_formula_structural   In2Te3
_chemical_formula_sum   'In72 Te108'
_cell_volume   6608.00083862
_cell_formula_units_Z   36
loop_
 _symmetry_equiv_pos_site_id
 _symmetry_equiv_pos_as_xyz
  1  'x, y, z'
loop_
 _atom_site_type_symbol
 _atom_site_label
 _atom_site_symmetry_multiplicity
 _atom_site_fract_x
 _atom_site_fract_y
 _atom_site_fract_z
 _atom_site_occupancy
  In  In0  1  0.84694937  0.67105032  0.81789536  1
  In  In1  1  0.00811576  0.67097765  0.65460308  1
  In  In2  1  0.49247904  0.18604694  0.32926416  1
  In  In3  1  0.33184257  0.16143024  0.50776332  1
  In  In4  1  -0.02052825  0.34273698  0.34410939  1
  In  In5  1  0.49838240  -0.01544566  0.52322952  1
  In  In6  1  0.82043340  0.33112270  0.84568589  1
  In  In7  1  0.64314354  0.32568595  0.67514372  1
  In  In8  1  0.49068525  0.00836632  0.15137238  1
  In  In9  1  0.32667581  0.84644225  0.16789114  1
  In  In10  1  0.49825465  0.32117239  0.52281185  1
  In  In11  1  0.83142855  0.52195321  0.65976767  1
  In  In12  1  0.65777108  0.17446457  0.82216646  1
  In  In13  1  0.84233165  0.66802455  0.15908071  1
  In  In14  1  0.51176928  0.50414144  0.32699341  1
  In  In15  1  0.48083699  0.84938201  -0.01459510  1
  In  In16  1  0.33163590  0.83535204  0.82571628  1
  In  In17  1  0.02101574  0.32621785  -0.01170301  1
  In  In18  1  0.00151165  -0.00894316  0.35075058  1
  In  In19  1  0.34994828  0.32088459  0.31519833  1
  In  In20  1  0.66585007  0.00113531  0.00218077  1
  In  In21  1  0.16656976  0.66373341  0.82928003  1
  In  In22  1  0.17263067  0.34206345  0.50854902  1
  In  In23  1  0.64839340  0.18022399  0.14950499  1
  In  In24  1  0.81391667  0.00235333  0.17269228  1
  In  In25  1  0.01661731  0.81605559  0.17049200  1
  In  In26  1  0.84817144  0.52347793  0.35944359  1
  In  In27  1  0.83401096  0.33674085  0.15929342  1
  In  In28  1  0.85137830  0.83936037  0.65744380  1
  In  In29  1  0.66043805  0.84438864  0.84406217  1
  In  In30  1  0.33853440  0.33382693  0.00126206  1
  In  In31  1  0.65506821  0.48247984  0.16995072  1
  In  In32  1  0.31271283  -0.00591301  0.32955386  1
  In  In33  1  0.18054755  0.33319432  0.14512242  1
  In  In34  1  0.01358981  0.18363565  0.15734290  1
  In  In35  1  0.83950278  0.14747413  0.64846181  1
  In  In36  1  0.49337175  0.82799087  0.66479544  1
  In  In37  1  0.31513234  0.50237301  0.50934921  1
  In  In38  1  0.84764508  0.50879700  0.00778838  1
  In  In39  1  0.00729996  0.34693348  0.66737367  1
  In  In40  1  0.17216419  0.51349159  0.33087825  1
  In  In41  1  0.32037764  0.70201880  0.64316144  1
  In  In42  1  0.84225459  0.19664346  0.32424447  1
  In  In43  1  0.15821004  0.50672802  0.00403592  1
  In  In44  1  -0.00748163  0.83929567  0.82610850  1
  In  In45  1  0.66808021  0.65857889  0.00577344  1
  In  In46  1  -0.00614743  0.00344913  -0.01584637  1
  In  In47  1  0.64908968  -0.01771718  0.36185650  1
  In  In48  1  0.37019198  0.69070748  0.35421129  1
  In  In49  1  0.82767002  0.81918490  -0.00277652  1
  In  In50  1  0.66135543  0.65528436  0.64733514  1
  In  In51  1  0.33585102  0.65191177  -0.01882524  1
  In  In52  1  0.50784638  0.65799795  0.18095616  1
  In  In53  1  0.15368506  0.50479899  0.67129453  1
  In  In54  1  0.48706913  0.16921261  -0.01058776  1
  In  In55  1  0.63387313  0.46573332  0.85871716  1
  In  In56  1  0.65644152  0.67649220  0.34406812  1
  In  In57  1  0.19430093  0.01500546  0.84079873  1
  In  In58  1  0.49261167  0.50304018  0.66612843  1
  In  In59  1  0.65459370  -0.00392099  0.66039803  1
  In  In60  1  0.16387721  -0.02528922  0.50750056  1
  In  In61  1  0.18213836  0.01112488  0.15128669  1
  In  In62  1  0.14432541  0.80930034  0.36633161  1
  In  In63  1  0.82709044  0.34862645  0.50051916  1
  In  In64  1  0.16816485  0.65510767  0.16348096  1
  In  In65  1  0.18240625  0.16832739  0.69066481  1
  In  In66  1  0.34730397  0.48539992  0.84638505  1
  In  In67  1  0.84084627  -0.01073391  0.50961841  1
  In  In68  1  0.16721905  0.13279877  0.31967886  1
  In  In69  1  0.83487539  0.83786671  0.35133670  1
  In  In70  1  0.01077634  0.16396294  0.83666960  1
  In  In71  1  0.64825120  0.13837984  0.49259670  1
  Te  Te72  1  0.09180678  0.09562851  0.06093735  1
  Te  Te73  1  0.08266155  0.08796569  0.43696463  1
  Te  Te74  1  0.08189664  0.06568056  0.74501551  1
  Te  Te75  1  0.06796637  0.42243982  0.09780382  1
  Te  Te76  1  0.08067057  0.42817255  0.42276732  1
  Te  Te77  1  0.10084928  0.40360722  0.76573581  1
  Te  Te78  1  0.10639400  0.75508177  0.07224776  1
  Te  Te79  1  0.06649709  0.70243869  0.43488541  1
  Te  Te80  1  0.09539675  0.76576014  0.73961855  1
  Te  Te81  1  0.39250094  0.06646682  0.05332886  1
  Te  Te82  1  0.42459650  0.07742548  0.41524374  1
  Te  Te83  1  0.43757091  0.13972436  0.71252474  1
  Te  Te84  1  0.43571472  0.43311730  0.05211817  1
  Te  Te85  1  0.40837388  0.41061336  0.42757049  1
  Te  Te86  1  0.43094926  0.40148965  0.75495335  1
  Te  Te87  1  0.41509643  0.74484671  0.08578568  1
  Te  Te88  1  0.44757286  0.76902186  0.45320855  1
  Te  Te89  1  0.42040835  0.73078305  0.75730810  1
  Te  Te90  1  0.75677345  0.10253273  0.07363262  1
  Te  Te91  1  0.76755493  0.08071902  0.40381379  1
  Te  Te92  1  0.75125613  0.07437996  0.74919691  1
  Te  Te93  1  0.74202656  0.41355964  0.06412395  1
  Te  Te94  1  0.74887784  0.42114826  0.39905289  1
  Te  Te95  1  0.74680567  0.42318739  0.74414894  1
  Te  Te96  1  0.73334079  0.75950728  0.10022297  1
  Te  Te97  1  0.75440963  0.74506038  0.43399951  1
  Te  Te98  1  0.74065440  0.75651195  0.74532597  1
  Te  Te99  1  0.09049591  0.26035467  0.26559548  1
  Te  Te100  1  0.08993634  0.24383436  0.59051280  1
  Te  Te101  1  0.11253960  0.24784006  0.90259408  1
  Te  Te102  1  0.07156065  0.58517164  0.25046456  1
  Te  Te103  1  0.10428843  0.59753258  0.56435742  1
  Te  Te104  1  0.07328331  0.58410492  0.91135378  1
  Te  Te105  1  0.10163746  0.92130122  0.25705199  1
  Te  Te106  1  0.09209646  0.86943362  0.58101110  1
  Te  Te107  1  0.09302297  0.91489290  0.91336246  1
  Te  Te108  1  0.42718730  0.24731206  0.21157751  1
  Te  Te109  1  0.39410602  0.25391294  0.61197529  1
  Te  Te110  1  0.38564824  0.23098202  0.89419520  1
  Te  Te111  1  0.39980456  0.57775184  0.25359125  1
  Te  Te112  1  0.41340864  0.59805757  0.57589589  1
  Te  Te113  1  0.44199082  0.58415161  0.90467747  1
  Te  Te114  1  0.42579391  0.91732808  0.25976698  1
  Te  Te115  1  0.39399168  0.92639257  0.61126651  1
  Te  Te116  1  0.41075010  0.94318253  0.89514319  1
  Te  Te117  1  0.73089457  0.26677082  0.24887653  1
  Te  Te118  1  0.73588795  0.24184798  0.58188253  1
  Te  Te119  1  0.72571282  0.25464171  0.92754348  1
  Te  Te120  1  0.74292372  0.58453090  0.24288927  1
  Te  Te121  1  0.75115898  0.58532590  0.55259462  1
  Te  Te122  1  0.75287695  0.58133325  0.90389266  1
  Te  Te123  1  0.73339832  0.90595192  0.25722933  1
  Te  Te124  1  0.73316159  0.90138444  0.57232352  1
  Te  Te125  1  0.76858326  0.92927260  0.91094099  1
  Te  Te126  1  0.25093417  0.23113142  0.06709005  1
  Te  Te127  1  0.24863512  0.24803304  0.41005967  1
  Te  Te128  1  0.29237558  0.23328153  0.76628588  1
  Te  Te129  1  0.27023585  0.56641114  0.08867270  1
  Te  Te130  1  0.25580830  0.60954049  0.41920217  1
  Te  Te131  1  0.26533912  0.58688077  0.74257736  1
  Te  Te132  1  0.25008395  0.91466975  0.06222490  1
  Te  Te133  1  0.26422001  0.88827582  0.42767999  1
  Te  Te134  1  0.25852358  0.92941197  0.73572517  1
  Te  Te135  1  0.57322504  0.27307295  0.05822382  1
  Te  Te136  1  0.59259575  0.26087003  0.41664777  1
  Te  Te137  1  0.54638126  0.26455069  0.77161372  1
  Te  Te138  1  0.56703085  0.56583076  0.07338844  1
  Te  Te139  1  0.57147636  0.58887411  0.42997609  1
  Te  Te140  1  0.59158956  0.57742119  0.75777799  1
  Te  Te141  1  0.58391905  0.90427864  0.08575073  1
  Te  Te142  1  0.56035965  0.88162784  0.42918484  1
  Te  Te143  1  0.56249390  0.92669526  0.76098685  1
  Te  Te144  1  0.91148031  0.24621540  0.06388704  1
  Te  Te145  1  0.92418411  0.24113794  0.44499058  1
  Te  Te146  1  0.90564781  0.25417626  0.74044558  1
  Te  Te147  1  0.94273999  0.59662622  0.07834333  1
  Te  Te148  1  0.93797302  0.61140639  0.43584696  1
  Te  Te149  1  0.94232643  0.57138178  0.75365732  1
  Te  Te150  1  0.91503308  0.91566030  0.09508093  1
  Te  Te151  1  0.94376465  0.89059468  0.44688425  1
  Te  Te152  1  0.91439477  0.93729201  0.74724902  1
  Te  Te153  1  0.28357039  0.10334884  0.22815390  1
  Te  Te154  1  0.25228840  0.06687323  0.59405076  1
  Te  Te155  1  0.28341001  0.08378186  0.93795802  1
  Te  Te156  1  0.26031311  0.42022870  0.24173146  1
  Te  Te157  1  0.26059922  0.40672149  0.61431472  1
  Te  Te158  1  0.23393766  0.40967613  0.91375841  1
  Te  Te159  1  0.24902686  0.75266433  0.26168448  1
  Te  Te160  1  0.21971237  0.78153420  0.56809379  1
  Te  Te161  1  0.24279257  0.75751329  0.92359190  1
  Te  Te162  1  0.59188032  0.08011555  0.25338528  1
  Te  Te163  1  0.55124614  0.10924439  0.61441933  1
  Te  Te164  1  0.57400440  0.07404339  0.90561813  1
  Te  Te165  1  0.55902885  0.39442399  0.24085104  1
  Te  Te166  1  0.59378773  0.42977099  0.57451164  1
  Te  Te167  1  0.53283957  0.38741962  0.94323502  1
  Te  Te168  1  0.57728497  0.76472497  0.25430217  1
  Te  Te169  1  0.56642345  0.74036580  0.56616054  1
  Te  Te170  1  0.57468270  0.74446443  0.91903162  1
  Te  Te171  1  0.92890262  0.08571928  0.24651403  1
  Te  Te172  1  0.94271966  0.05943440  0.59088358  1
  Te  Te173  1  0.90462619  0.09783730  0.91538436  1
  Te  Te174  1  0.91128578  0.43573786  0.24508656  1
  Te  Te175  1  0.92792758  0.43741643  0.57355798  1
  Te  Te176  1  0.92625718  0.41919977  0.91004106  1
  Te  Te177  1  0.92287698  0.74369667  0.26560768  1
  Te  Te178  1  0.89185379  0.72194547  0.57354817  1
  Te  Te179  1  0.93381134  0.73775239  0.92588299  1
