# generated using pymatgen
data_In2Te3
_symmetry_space_group_name_H-M   'P 1'
_cell_length_a   18.95863702
_cell_length_b   18.95849101
_cell_length_c   18.98017213
_cell_angle_alpha   90.01396864
_cell_angle_beta   90.24270580
_cell_angle_gamma   90.02124479
_symmetry_Int_Tables_number   1
_chemical_formula_structural   In2Te3
_chemical_formula_sum   'In72 Te108'
_cell_volume   6821.92728419
_cell_formula_units_Z   36
loop_
 _symmetry_equiv_pos_site_id
 _symmetry_equiv_pos_as_xyz
  1  'x, y, z'
loop_
 _atom_site_type_symbol
 _atom_site_label
 _atom_site_symmetry_multiplicity
 _atom_site_fract_x
 _atom_site_fract_y
 _atom_site_fract_z
 _atom_site_occupancy
  In  In0  1  0.02443851  0.00682249  0.34048309  1
  In  In1  1  0.34577267  0.50298449  0.16903038  1
  In  In2  1  0.16570491  -0.02256296  0.82706195  1
  In  In3  1  0.35466746  0.82987324  0.50569860  1
  In  In4  1  0.01617646  0.50946470  0.48848074  1
  In  In5  1  0.66044570  0.32411665  0.00232089  1
  In  In6  1  0.15018556  0.34363879  0.18238870  1
  In  In7  1  0.82039891  0.65602067  0.80297733  1
  In  In8  1  0.64930820  0.51381146  0.15789802  1
  In  In9  1  0.82960052  0.51112369  -0.02986923  1
  In  In10  1  0.00696647  0.18160023  0.17666134  1
  In  In11  1  -0.00326874  0.66018512  0.32936975  1
  In  In12  1  0.16660430  0.15941018  -0.00604570  1
  In  In13  1  0.78716606  0.48110042  0.38519800  1
  In  In14  1  0.16474341  0.66446583  0.16968419  1
  In  In15  1  0.33300191  0.34788711  0.01846782  1
  In  In16  1  0.00363739  0.83088938  0.51099264  1
  In  In17  1  0.17000184  0.32185697  0.84180964  1
  In  In18  1  0.83101721  0.17402244  -0.00041466  1
  In  In19  1  -0.00582894  0.82636956  0.83630246  1
  In  In20  1  0.50141223  0.17859697  -0.00298560  1
  In  In21  1  0.65100535  0.64993286  0.35623885  1
  In  In22  1  0.81337501  0.17739896  0.33603334  1
  In  In23  1  0.01499425  0.33761083  0.32631567  1
  In  In24  1  0.65799644  0.16515682  0.51713434  1
  In  In25  1  0.83729447  0.31354363  0.84391431  1
  In  In26  1  0.65430901  0.33047495  0.64864978  1
  In  In27  1  0.83561945  0.83233578  0.65322535  1
  In  In28  1  0.81899342  0.83068941  -0.00906340  1
  In  In29  1  0.36754606  -0.00597441  0.35744019  1
  In  In30  1  0.64671447  0.83875925  0.50523701  1
  In  In31  1  0.83336355  0.33600564  0.18116671  1
  In  In32  1  0.24008939  0.18551058  0.59820186  1
  In  In33  1  0.34555643  0.81846941  0.80634360  1
  In  In34  1  0.15903973  0.82969605  0.01797353  1
  In  In35  1  0.82130185  0.84331888  0.34832678  1
  In  In36  1  0.20779878  0.50284070  0.62869545  1
  In  In37  1  0.35636266  0.48781499  0.83974117  1
  In  In38  1  0.36894831  0.66994966  0.64428499  1
  In  In39  1  0.62648808  0.00956033  0.36733151  1
  In  In40  1  0.83407017  0.67568774  0.17351487  1
  In  In41  1  0.65441836  0.65620810  0.65576580  1
  In  In42  1  0.33833524  0.15291166  0.80098269  1
  In  In43  1  0.21099509  0.49464910  0.38549472  1
  In  In44  1  0.67515423  0.00486509  0.00392711  1
  In  In45  1  0.48666870  0.32393922  0.50676370  1
  In  In46  1  0.32822314  0.66445115  -0.01411201  1
  In  In47  1  0.65457682  -0.00849725  0.67022255  1
  In  In48  1  0.01500785  0.17124314  0.49903862  1
  In  In49  1  0.16477832  0.82197929  0.33253858  1
  In  In50  1  0.51560466  0.48914797  0.34838647  1
  In  In51  1  0.81216108  0.14870143  0.66312090  1
  In  In52  1  0.48650616  -0.00716071  0.81779272  1
  In  In53  1  0.51073929  0.68335636  0.17200984  1
  In  In54  1  0.00500570  -0.00281935  0.67103546  1
  In  In55  1  0.82921231  0.00502311  0.14616681  1
  In  In56  1  0.17767381  0.84416732  0.67672534  1
  In  In57  1  0.82484976  0.49402368  0.63864960  1
  In  In58  1  0.49809563  0.18329053  0.34596731  1
  In  In59  1  0.17516155  0.02320010  0.17998060  1
  In  In60  1  0.64738886  0.49680323  0.81051706  1
  In  In61  1  -0.01064652  0.13424990  0.83761154  1
  In  In62  1  0.15711378  0.65955226  0.80748829  1
  In  In63  1  0.50211561  0.32501955  0.81891419  1
  In  In64  1  0.67433343  0.83588151  0.17447883  1
  In  In65  1  0.00849922  0.35202580  0.67053766  1
  In  In66  1  0.48708277  0.00402782  0.16670662  1
  In  In67  1  0.00937492  0.50927332  0.16086964  1
  In  In68  1  0.50522020  0.81513452  -0.03044228  1
  In  In69  1  0.00572862  0.51507085  0.82939288  1
  In  In70  1  0.30585019  0.83786420  0.17765004  1
  In  In71  1  0.36001963  0.17411564  0.17782816  1
  Te  Te72  1  0.07205511  0.08144915  0.08314771  1
  Te  Te73  1  0.11040199  0.08485544  0.42836386  1
  Te  Te74  1  0.10107604  0.08885317  0.74608520  1
  Te  Te75  1  0.07974318  0.41369701  0.07619774  1
  Te  Te76  1  0.10370039  0.39827181  0.43353834  1
  Te  Te77  1  0.11216376  0.43354767  0.74711951  1
  Te  Te78  1  0.06933827  0.74125738  0.09087928  1
  Te  Te79  1  0.08768093  0.73343848  0.42682460  1
  Te  Te80  1  0.06688080  0.75230251  0.72729356  1
  Te  Te81  1  0.40495832  0.08190918  0.06675172  1
  Te  Te82  1  0.41653855  0.10606243  0.44358418  1
  Te  Te83  1  0.45753616  0.10793297  0.72551846  1
  Te  Te84  1  0.43687650  0.42804053  0.08176714  1
  Te  Te85  1  0.41334569  0.39062952  0.39508577  1
  Te  Te86  1  0.42620061  0.41761752  0.73033143  1
  Te  Te87  1  0.39980541  0.75651674  0.08384936  1
  Te  Te88  1  0.39886572  0.71801159  0.42261288  1
  Te  Te89  1  0.45683325  0.76388035  0.72429437  1
  Te  Te90  1  0.73340957  0.11060737  0.09723567  1
  Te  Te91  1  0.74740058  0.07832219  0.42923352  1
  Te  Te92  1  0.74000444  0.07141576  0.76092438  1
  Te  Te93  1  0.75750546  0.42554356  0.07352814  1
  Te  Te94  1  0.70260490  0.39081410  0.46042239  1
  Te  Te95  1  0.76111219  0.40952260  0.75294568  1
  Te  Te96  1  0.73371621  0.73759609  0.07845443  1
  Te  Te97  1  0.74433615  0.74570166  0.43192935  1
  Te  Te98  1  0.73353574  0.76012773  0.73887648  1
  Te  Te99  1  0.11038881  0.23025868  0.27621782  1
  Te  Te100  1  0.09555321  0.25193634  0.59879069  1
  Te  Te101  1  0.06613171  0.24287052  0.91701040  1
  Te  Te102  1  0.10097821  0.56434436  0.27323542  1
  Te  Te103  1  0.09997853  0.58807051  0.57969381  1
  Te  Te104  1  0.08420822  0.59976791  0.91853687  1
  Te  Te105  1  0.08763671  0.91344204  0.23909390  1
  Te  Te106  1  0.10129858  0.92951894  0.57657269  1
  Te  Te107  1  0.07058780  0.91954643  0.92821294  1
  Te  Te108  1  0.41666574  0.27829508  0.26560290  1
  Te  Te109  1  0.38148166  0.24978415  0.58358894  1
  Te  Te110  1  0.39369706  0.25396608  0.91216735  1
  Te  Te111  1  0.43397837  0.58680394  0.25844023  1
  Te  Te112  1  0.41773170  0.57362523  0.54211838  1
  Te  Te113  1  0.43346628  0.60078447  0.90270962  1
  Te  Te114  1  0.42284028  0.89820832  0.25358456  1
  Te  Te115  1  0.38954096  0.93489820  0.60414528  1
  Te  Te116  1  0.40211378  0.90848006  0.91631889  1
  Te  Te117  1  0.72920266  0.26623789  0.25504480  1
  Te  Te118  1  0.76786645  0.26277692  0.57428116  1
  Te  Te119  1  0.72643329  0.23113080  0.90279922  1
  Te  Te120  1  0.74986547  0.58268916  0.25916757  1
  Te  Te121  1  0.72709828  0.56831761  0.55982271  1
  Te  Te122  1  0.72422942  0.59512502  0.90451106  1
  Te  Te123  1  0.73956945  0.94101404  0.26243107  1
  Te  Te124  1  0.75132307  0.92688514  0.57072469  1
  Te  Te125  1  0.72186258  0.90446766  0.90996827  1
  Te  Te126  1  0.24254635  0.24540712  0.09464290  1
  Te  Te127  1  0.26839779  0.26657514  0.47513288  1
  Te  Te128  1  0.25905118  0.26473975  0.73724234  1
  Te  Te129  1  0.24691184  0.57604654  0.07828728  1
  Te  Te130  1  0.30115248  0.59905248  0.44240995  1
  Te  Te131  1  0.27750960  0.59082472  0.74579548  1
  Te  Te132  1  0.24922169  0.93682440  0.07865392  1
  Te  Te133  1  0.25408433  0.91026747  0.41486786  1
  Te  Te134  1  0.28234581  0.94127917  0.73321936  1
  Te  Te135  1  0.56579845  0.26446093  0.09568582  1
  Te  Te136  1  0.60819526  0.27230110  0.41939985  1
  Te  Te137  1  0.58386528  0.23504851  0.73564844  1
  Te  Te138  1  0.57478520  0.60216027  0.06601546  1
  Te  Te139  1  0.55569778  0.58951117  0.45314495  1
  Te  Te140  1  0.55507581  0.57849688  0.73304534  1
  Te  Te141  1  0.57346035  0.90767912  0.08368606  1
  Te  Te142  1  0.53912131  0.91920189  0.44024674  1
  Te  Te143  1  0.56967970  0.89476201  0.74588046  1
  Te  Te144  1  0.92207743  0.26455066  0.08237438  1
  Te  Te145  1  0.91984228  0.25538506  0.41090279  1
  Te  Te146  1  0.92402496  0.24346592  0.74068607  1
  Te  Te147  1  0.91041313  0.58813819  0.07652281  1
  Te  Te148  1  0.90259475  0.58057357  0.41625544  1
  Te  Te149  1  0.92172745  0.57957702  0.72126723  1
  Te  Te150  1  0.90782381  0.89997004  0.08607453  1
  Te  Te151  1  0.92445631  0.92653267  0.42262863  1
  Te  Te152  1  0.90671456  0.92071567  0.75593572  1
  Te  Te153  1  0.27800532  0.08668314  0.27001525  1
  Te  Te154  1  0.31088925  0.05283854  0.55742973  1
  Te  Te155  1  0.25410572  0.07686538  0.90326938  1
  Te  Te156  1  0.25559290  0.41966182  0.26034034  1
  Te  Te157  1  0.27781055  0.40591389  0.54508240  1
  Te  Te158  1  0.24466583  0.42703077  0.92263675  1
  Te  Te159  1  0.26236647  0.72477177  0.26825905  1
  Te  Te160  1  0.25113550  0.74855205  0.58789456  1
  Te  Te161  1  0.23490761  0.76271257  0.90115622  1
  Te  Te162  1  0.57640019  0.09290119  0.25098472  1
  Te  Te163  1  0.56396247  0.07963939  0.58941113  1
  Te  Te164  1  0.57427404  0.07588794  0.91506264  1
  Te  Te165  1  0.60637365  0.41638965  0.25650253  1
  Te  Te166  1  0.54428539  0.41971596  0.60565485  1
  Te  Te167  1  0.57428256  0.41624579  0.91723442  1
  Te  Te168  1  0.58798644  0.76380052  0.27581531  1
  Te  Te169  1  0.56011597  0.75260163  0.58858169  1
  Te  Te170  1  0.56911969  0.69713602  0.91856117  1
  Te  Te171  1  0.91487278  0.08734114  0.25313808  1
  Te  Te172  1  0.91916113  0.08186918  0.57944132  1
  Te  Te173  1  0.90052278  0.06638844  0.92995163  1
  Te  Te174  1  0.91856186  0.43371628  0.25967117  1
  Te  Te175  1  0.92335055  0.41067484  0.56021321  1
  Te  Te176  1  0.92905240  0.41276694  0.91283526  1
  Te  Te177  1  0.91853540  0.76951754  0.25749867  1
  Te  Te178  1  0.90883288  0.73741261  0.57063647  1
  Te  Te179  1  0.90263423  0.73075618  0.90725731  1
