# generated using pymatgen
data_In2Te3
_symmetry_space_group_name_H-M   'P 1'
_cell_length_a   18.82951036
_cell_length_b   18.84903308
_cell_length_c   18.83970117
_cell_angle_alpha   89.93738098
_cell_angle_beta   90.10862961
_cell_angle_gamma   89.94599189
_symmetry_Int_Tables_number   1
_chemical_formula_structural   In2Te3
_chemical_formula_sum   'In72 Te108'
_cell_volume   6686.53126162
_cell_formula_units_Z   36
loop_
 _symmetry_equiv_pos_site_id
 _symmetry_equiv_pos_as_xyz
  1  'x, y, z'
loop_
 _atom_site_type_symbol
 _atom_site_label
 _atom_site_symmetry_multiplicity
 _atom_site_fract_x
 _atom_site_fract_y
 _atom_site_fract_z
 _atom_site_occupancy
  In  In0  1  0.35833231  0.48795049  0.18479418  1
  In  In1  1  0.67208770  0.49352518  0.80286546  1
  In  In2  1  0.49661097  0.19723752  0.00003056  1
  In  In3  1  0.68781768  0.49492961  0.18648845  1
  In  In4  1  0.00196249  0.67107231  -0.01577038  1
  In  In5  1  0.70323425  0.81051062  0.81412724  1
  In  In6  1  0.66908242  0.32583256  -0.02457927  1
  In  In7  1  0.34112190  0.67352298  -0.01541175  1
  In  In8  1  0.34104178  0.63887646  0.66652767  1
  In  In9  1  0.51816632  0.33174356  0.13393988  1
  In  In10  1  0.66719465  -0.00897625  0.34350566  1
  In  In11  1  0.84176974  0.49902073  0.68041067  1
  In  In12  1  -0.01154777  0.81405873  0.50802639  1
  In  In13  1  0.31200311  -0.00067590  -0.00842006  1
  In  In14  1  0.18674385  0.66704676  0.82022373  1
  In  In15  1  0.32423127  0.81934759  0.15759996  1
  In  In16  1  0.28845475  0.00724294  0.65495539  1
  In  In17  1  0.31637314  0.83690498  0.81869180  1
  In  In18  1  0.00171973  0.48111504  0.19180518  1
  In  In19  1  0.86496614  0.85862726  0.31747279  1
  In  In20  1  0.30344955  0.14635863  0.18829270  1
  In  In21  1  0.32218772  0.31852221  0.32421348  1
  In  In22  1  0.32084227  0.84516378  0.47830901  1
  In  In23  1  0.68027018  0.69077519  0.00517694  1
  In  In24  1  0.00132261  0.30949655  0.66102863  1
  In  In25  1  0.00009352  0.67170025  0.34031378  1
  In  In26  1  0.50532669  0.16928677  0.33933008  1
  In  In27  1  0.28158699  -0.01158645  0.31086140  1
  In  In28  1  0.48933369  0.68422236  0.51433182  1
  In  In29  1  0.16393394  0.67523497  0.17756384  1
  In  In30  1  0.67873296  0.31554518  0.34381588  1
  In  In31  1  0.47946352  0.64227678  0.19392828  1
  In  In32  1  0.86608001  0.13676691  0.01633776  1
  In  In33  1  0.66127906  0.18468211  0.82222513  1
  In  In34  1  0.84633759  0.32042262  0.17828788  1
  In  In35  1  0.90667287  0.15779777  0.32217242  1
  In  In36  1  0.33163015  0.30646628  -0.02981126  1
  In  In37  1  0.13039429  0.16911720  0.02698896  1
  In  In38  1  -0.00049478  0.49589623  0.82508962  1
  In  In39  1  0.48494013  0.01673149  0.49984849  1
  In  In40  1  0.67633780  0.84935475  0.49473745  1
  In  In41  1  0.13721491  0.87851060  0.02526922  1
  In  In42  1  0.84757575  0.50229127  -0.01850426  1
  In  In43  1  0.16434838  0.32337679  0.81631275  1
  In  In44  1  0.83310959  0.65974656  0.50120615  1
  In  In45  1  0.18319850  0.65283199  0.47900594  1
  In  In46  1  0.00750860  0.02724452  0.69385826  1
  In  In47  1  0.52165593  0.65219626  0.84989830  1
  In  In48  1  0.84121933  0.01900443  0.83430077  1
  In  In49  1  0.51592912  0.83045319  0.66637190  1
  In  In50  1  0.03298788  0.46600740  0.50602920  1
  In  In51  1  0.16612180  0.84732408  0.66501895  1
  In  In52  1  0.49309696  -0.02134291  0.83150732  1
  In  In53  1  0.83951057  0.18590526  0.66678328  1
  In  In54  1  0.68334933  0.01248411  -0.00498496  1
  In  In55  1  0.00530593  0.84326061  0.84694902  1
  In  In56  1  0.67306480  0.17672770  0.51694064  1
  In  In57  1  -0.01660966  0.65454071  0.64287398  1
  In  In58  1  0.84851506  -0.00419593  0.50317159  1
  In  In59  1  0.13944905  0.30232442  0.19360835  1
  In  In60  1  0.30507841  0.16867255  0.51010278  1
  In  In61  1  0.49910014  0.17339456  0.66466339  1
  In  In62  1  0.46475496  0.49640644  0.33025458  1
  In  In63  1  0.65598767  0.47487492  0.50562680  1
  In  In64  1  0.49251662  -0.00253485  0.16810411  1
  In  In65  1  0.81257783  0.66317791  0.16890132  1
  In  In66  1  0.17365358  0.48052028  0.02992286  1
  In  In67  1  0.46500455  0.48505860  0.66080142  1
  In  In68  1  0.31193826  0.18184750  0.81176205  1
  In  In69  1  0.51502470  0.52541390  -0.01476080  1
  In  In70  1  0.66829428  0.65710755  0.33151122  1
  In  In71  1  0.66231480  0.82588568  0.15961854  1
  Te  Te72  1  0.06990052  0.07367758  0.12640480  1
  Te  Te73  1  0.03978034  0.12860643  0.39172059  1
  Te  Te74  1  0.13467626  0.09976005  0.71963921  1
  Te  Te75  1  0.06522420  0.39218856  0.08520884  1
  Te  Te76  1  0.12143986  0.39139757  0.41450477  1
  Te  Te77  1  0.08504854  0.42137629  0.72649562  1
  Te  Te78  1  0.06950206  0.75764127  0.08969375  1
  Te  Te79  1  0.09752871  0.76262937  0.41434096  1
  Te  Te80  1  0.07907095  0.74228218  0.74134437  1
  Te  Te81  1  0.41130490  0.09235185  0.07521872  1
  Te  Te82  1  0.39171208  0.08990044  0.40342175  1
  Te  Te83  1  0.40242295  0.06886082  0.74775621  1
  Te  Te84  1  0.41964579  0.42171869  0.05868134  1
  Te  Te85  1  0.40988455  0.39213164  0.41756635  1
  Te  Te86  1  0.38055658  0.38557677  0.73410432  1
  Te  Te87  1  0.43499899  0.74100996  0.08370800  1
  Te  Te88  1  0.41779496  0.75871897  0.40985672  1
  Te  Te89  1  0.42039793  0.74492027  0.75507267  1
  Te  Te90  1  0.76189898  0.07428074  0.10205705  1
  Te  Te91  1  0.75500817  0.08712536  0.42171294  1
  Te  Te92  1  0.74472917  0.08866719  0.73948645  1
  Te  Te93  1  0.75288366  0.41225131  0.07735391  1
  Te  Te94  1  0.75986542  0.40914817  0.42280887  1
  Te  Te95  1  0.77617870  0.39726271  0.76503504  1
  Te  Te96  1  0.78222502  0.78024068  0.07510319  1
  Te  Te97  1  0.76631410  0.76127251  0.39832295  1
  Te  Te98  1  0.78416191  0.71950428  0.73498140  1
  Te  Te99  1  0.02833940  0.24944861  0.27831888  1
  Te  Te100  1  0.07587258  0.27882933  0.53246942  1
  Te  Te101  1  0.07945619  0.24867624  0.91251617  1
  Te  Te102  1  0.09466947  0.57458007  0.26908714  1
  Te  Te103  1  0.10281798  0.57814557  0.58500110  1
  Te  Te104  1  0.10262522  0.57508112  0.92136185  1
  Te  Te105  1  0.04564960  0.94022991  0.21155454  1
  Te  Te106  1  0.05974119  0.92188101  0.58872513  1
  Te  Te107  1  0.07035657  0.95905645  0.91845541  1
  Te  Te108  1  0.42892564  0.24782764  0.23019366  1
  Te  Te109  1  0.40057270  0.25198907  0.58705682  1
  Te  Te110  1  0.43544771  0.25654829  0.87288917  1
  Te  Te111  1  0.35835650  0.60990313  0.28733110  1
  Te  Te112  1  0.39528450  0.56645177  0.54149320  1
  Te  Te113  1  0.39927133  0.56896381  0.89150133  1
  Te  Te114  1  0.40451286  0.91315429  0.25606589  1
  Te  Te115  1  0.41009967  0.91739216  0.59726907  1
  Te  Te116  1  0.40670176  0.89854225  0.92804623  1
  Te  Te117  1  0.77006703  0.22403914  0.26706826  1
  Te  Te118  1  0.76596418  0.27578537  0.57341095  1
  Te  Te119  1  0.76783470  0.22561601  0.92159788  1
  Te  Te120  1  0.78096627  0.56602692  0.28301943  1
  Te  Te121  1  0.74405878  0.57250035  0.58669219  1
  Te  Te122  1  0.73498295  0.58168160  0.91619539  1
  Te  Te123  1  0.75256742  0.92312261  0.23729328  1
  Te  Te124  1  0.75158926  0.92865953  0.59219391  1
  Te  Te125  1  0.76479332  0.91417201  0.91376631  1
  Te  Te126  1  0.25539489  0.25974631  0.09379933  1
  Te  Te127  1  0.22219640  0.26997809  0.42889347  1
  Te  Te128  1  0.25104461  0.26823288  0.70546556  1
  Te  Te129  1  0.26406483  0.58992049  0.08887116  1
  Te  Te130  1  0.26789068  0.55943740  0.40553991  1
  Te  Te131  1  0.24218073  0.55344512  0.74010574  1
  Te  Te132  1  0.24176160  0.94399613  0.11428305  1
  Te  Te133  1  0.21868340  0.94125953  0.43496417  1
  Te  Te134  1  0.21513244  0.94120972  0.77547423  1
  Te  Te135  1  0.61887056  0.22972525  0.08683190  1
  Te  Te136  1  0.57054209  0.26169617  0.43890978  1
  Te  Te137  1  0.59744445  0.27265870  0.71995251  1
  Te  Te138  1  0.59914643  0.58991985  0.10066335  1
  Te  Te139  1  0.57164037  0.57720272  0.41625469  1
  Te  Te140  1  0.57308102  0.58245262  0.72769117  1
  Te  Te141  1  0.58185430  0.92144635  0.07192313  1
  Te  Te142  1  0.55957586  0.91203010  0.41693268  1
  Te  Te143  1  0.60642585  0.91742016  0.75163140  1
  Te  Te144  1  0.93652763  0.24699762  0.08703892  1
  Te  Te145  1  0.95157435  0.24081739  0.44793076  1
  Te  Te146  1  0.94418191  0.22282658  0.76651046  1
  Te  Te147  1  0.92322089  0.57920778  0.09158095  1
  Te  Te148  1  0.93935412  0.57305513  0.43732944  1
  Te  Te149  1  0.90805169  0.60734251  0.77116314  1
  Te  Te150  1  0.96262178  0.95059165  0.08702055  1
  Te  Te151  1  0.95469811  0.93280205  0.41210309  1
  Te  Te152  1  0.91587481  0.91775175  0.74699113  1
  Te  Te153  1  0.20352040  0.11329510  0.29113212  1
  Te  Te154  1  0.19055959  0.09101942  0.57530795  1
  Te  Te155  1  0.23645088  0.11230086  0.92696021  1
  Te  Te156  1  0.23531114  0.41280895  0.24032071  1
  Te  Te157  1  0.30141763  0.44710439  0.62512659  1
  Te  Te158  1  0.24628635  0.41649461  0.91245954  1
  Te  Te159  1  0.22792206  0.77790374  0.26211782  1
  Te  Te160  1  0.25843561  0.74999903  0.59180001  1
  Te  Te161  1  0.22779146  0.76970099  0.93160273  1
  Te  Te162  1  0.59024467  0.08326575  0.24776901  1
  Te  Te163  1  0.58974488  0.07187302  0.59325991  1
  Te  Te164  1  0.56979436  0.08667471  0.91084812  1
  Te  Te165  1  0.57865244  0.41328663  0.25436046  1
  Te  Te166  1  0.57754256  0.39897905  0.60694180  1
  Te  Te167  1  0.57580780  0.41670834  0.89571656  1
  Te  Te168  1  0.57349662  0.74998737  0.25718668  1
  Te  Te169  1  0.61076957  0.74330438  0.58496278  1
  Te  Te170  1  0.58883414  0.77103090  0.91393350  1
  Te  Te171  1  0.92816899  0.04877056  0.20992034  1
  Te  Te172  1  0.93145622  0.09692557  0.58135873  1
  Te  Te173  1  0.95589267  0.08050497  0.90856518  1
  Te  Te174  1  0.91202177  0.40630178  0.28087496  1
  Te  Te175  1  0.91261525  0.40942701  0.58059353  1
  Te  Te176  1  0.92240118  0.40131084  0.90683942  1
  Te  Te177  1  0.92508396  0.74840180  0.23255400  1
  Te  Te178  1  0.87808133  0.76628895  0.60382105  1
  Te  Te179  1  0.90576242  0.75869446  0.91651902  1
