# generated using pymatgen
data_In2Te3
_symmetry_space_group_name_H-M   'P 1'
_cell_length_a   18.76557487
_cell_length_b   18.76044218
_cell_length_c   18.75879324
_cell_angle_alpha   89.98833079
_cell_angle_beta   89.91768304
_cell_angle_gamma   89.93324241
_symmetry_Int_Tables_number   1
_chemical_formula_structural   In2Te3
_chemical_formula_sum   'In72 Te108'
_cell_volume   6604.03077384
_cell_formula_units_Z   36
loop_
 _symmetry_equiv_pos_site_id
 _symmetry_equiv_pos_as_xyz
  1  'x, y, z'
loop_
 _atom_site_type_symbol
 _atom_site_label
 _atom_site_symmetry_multiplicity
 _atom_site_fract_x
 _atom_site_fract_y
 _atom_site_fract_z
 _atom_site_occupancy
  In  In0  1  0.00684630  0.53094573  0.85014082  1
  In  In1  1  0.48178783  0.82227514  0.34136317  1
  In  In2  1  0.32173288  0.51501905  0.81512738  1
  In  In3  1  0.02791173  -0.02590641  0.64483762  1
  In  In4  1  0.66144502  0.18575409  0.17908259  1
  In  In5  1  0.67915399  0.66039564  0.33151374  1
  In  In6  1  -0.01066066  0.32607364  0.01489521  1
  In  In7  1  0.84993791  0.65976643  0.49475099  1
  In  In8  1  0.83771120  0.15643426  0.31062329  1
  In  In9  1  0.48142287  0.65134360  0.49373353  1
  In  In10  1  0.85532356  0.66779765  0.16073183  1
  In  In11  1  0.71476775  0.85313719  0.19340959  1
  In  In12  1  0.00887820  0.67795829  0.65993366  1
  In  In13  1  0.67117023  0.00932109  0.00198037  1
  In  In14  1  0.84964054  0.83449466  0.66249783  1
  In  In15  1  0.51410992  0.52260310  0.63807743  1
  In  In16  1  0.67436627  0.15845605  0.84194555  1
  In  In17  1  0.15080515  0.16590094  0.65529206  1
  In  In18  1  0.50105830  0.69037952  0.82528087  1
  In  In19  1  0.15503297  0.33068766  0.83126611  1
  In  In20  1  0.00096792  0.33219436  0.64164845  1
  In  In21  1  0.48171234  0.17879396  0.65238038  1
  In  In22  1  0.32565759  0.17994013  0.18921362  1
  In  In23  1  0.84343507  0.67767504  0.86314963  1
  In  In24  1  0.32455861  0.85225065  0.16530044  1
  In  In25  1  0.31270669  -0.00667246  0.00025329  1
  In  In26  1  0.01236561  0.13785603  0.48657760  1
  In  In27  1  0.16327151  0.00732232  0.16062557  1
  In  In28  1  0.01374393  0.35362359  0.32947875  1
  In  In29  1  0.00149462  0.67238246  0.31880633  1
  In  In30  1  0.65935607  0.46559555  0.18350869  1
  In  In31  1  -0.00453339  0.16979467  0.83102556  1
  In  In32  1  0.34231266  0.33640476  0.03027475  1
  In  In33  1  0.33663886  0.31998876  0.33649958  1
  In  In34  1  0.15861470  0.49953768  0.01307475  1
  In  In35  1  0.50187148  0.64446381  0.18260207  1
  In  In36  1  0.82287875  0.50653743  0.02130301  1
  In  In37  1  0.33507011  0.49731143  0.47677731  1
  In  In38  1  0.84316066  0.16915288  0.03491532  1
  In  In39  1  0.32075312  0.14102336  0.83376840  1
  In  In40  1  0.81565860  0.31933418  0.84191443  1
  In  In41  1  0.65062959  0.64684630  0.67615780  1
  In  In42  1  0.68189316  0.33353132  0.65492243  1
  In  In43  1  0.52014343  0.01125545  0.18047876  1
  In  In44  1  0.32032361  0.00107760  0.65731954  1
  In  In45  1  0.18573208  0.68096027  0.50767181  1
  In  In46  1  -0.00424602  -0.01060215  0.01825189  1
  In  In47  1  0.17849013  0.51244707  0.64869339  1
  In  In48  1  0.66850592  0.83039437  0.85150677  1
  In  In49  1  0.49588192  0.82993128  -0.01323026  1
  In  In50  1  0.66981656  0.01310081  0.67435080  1
  In  In51  1  0.84060419  0.47356667  0.66094680  1
  In  In52  1  0.18596529  0.86280681  0.35140394  1
  In  In53  1  0.49879027  0.34774148  0.84578060  1
  In  In54  1  0.48972844  0.84078363  0.66985763  1
  In  In55  1  0.34059209  0.65095287  0.32564724  1
  In  In56  1  0.66456907  0.19660829  0.46566442  1
  In  In57  1  0.31190061  0.66704221  0.00489082  1
  In  In58  1  0.14519881  0.66334985  0.15991527  1
  In  In59  1  0.83478108  0.84646408  0.01405340  1
  In  In60  1  0.66713723  0.82685562  0.47006452  1
  In  In61  1  0.49939730  0.48907940  0.01311634  1
  In  In62  1  0.47288782  0.02683386  0.48065283  1
  In  In63  1  0.82694161  0.32959641  0.49660935  1
  In  In64  1  0.32498431  0.83594873  0.82393517  1
  In  In65  1  0.67180751  0.47006754  0.47559429  1
  In  In66  1  0.00659091  -0.00003975  0.32519808  1
  In  In67  1  0.84757074  0.01099719  0.49044131  1
  In  In68  1  0.51086462  0.16973884  0.01944540  1
  In  In69  1  0.00847687  0.83278334  0.83658029  1
  In  In70  1  0.16368389  0.32437899  0.17535624  1
  In  In71  1  0.33779679  0.33274262  0.62696991  1
  Te  Te72  1  0.05813121  0.09800833  0.10313921  1
  Te  Te73  1  0.11341742  0.05474946  0.41572500  1
  Te  Te74  1  0.08584036  0.07310254  0.75483840  1
  Te  Te75  1  0.06323125  0.42590565  0.10411664  1
  Te  Te76  1  0.08799915  0.40152621  0.44690036  1
  Te  Te77  1  0.07755555  0.42657946  0.74062267  1
  Te  Te78  1  0.06741925  0.72449228  0.05049701  1
  Te  Te79  1  0.09352047  0.75760162  0.41203856  1
  Te  Te80  1  0.10033052  0.75581737  0.74590466  1
  Te  Te81  1  0.40738043  0.07700373  0.08925269  1
  Te  Te82  1  0.36571406  0.08811117  0.39243863  1
  Te  Te83  1  0.42608525  0.07317706  0.74662323  1
  Te  Te84  1  0.42123671  0.42094508  0.12058136  1
  Te  Te85  1  0.43559567  0.41476638  0.40577982  1
  Te  Te86  1  0.40960671  0.41362435  0.73807065  1
  Te  Te87  1  0.41880849  0.74985752  0.09517090  1
  Te  Te88  1  0.38266728  0.75250800  0.43395671  1
  Te  Te89  1  0.39508104  0.73588867  0.72760826  1
  Te  Te90  1  0.74985194  0.07432825  0.11253300  1
  Te  Te91  1  0.73932760  0.07151970  0.39787415  1
  Te  Te92  1  0.76864839  0.08436707  0.75625367  1
  Te  Te93  1  0.76760922  0.39810922  0.10461482  1
  Te  Te94  1  0.76490441  0.40162034  0.37722911  1
  Te  Te95  1  0.73661031  0.42661499  0.76236293  1
  Te  Te96  1  0.74361850  0.74866412  0.08744799  1
  Te  Te97  1  0.77953377  0.75517139  0.39566750  1
  Te  Te98  1  0.74726914  0.75039982  0.74356099  1
  Te  Te99  1  0.08862736  0.23998020  0.27083799  1
  Te  Te100  1  0.09285181  0.25772685  0.54478519  1
  Te  Te101  1  0.08651296  0.24006657  0.93227287  1
  Te  Te102  1  0.08691543  0.56741671  0.25658505  1
  Te  Te103  1  0.07640372  0.58435018  0.56023897  1
  Te  Te104  1  0.10430901  0.61243766  0.92821030  1
  Te  Te105  1  0.08972584  0.89827664  0.23911990  1
  Te  Te106  1  0.12022740  0.89488406  0.56108766  1
  Te  Te107  1  0.08754820  0.92918945  0.91735410  1
  Te  Te108  1  0.44254100  0.24250061  0.25687676  1
  Te  Te109  1  0.41521713  0.24273930  0.53410264  1
  Te  Te110  1  0.40808206  0.24345454  0.91570376  1
  Te  Te111  1  0.41654075  0.54607390  0.25240177  1
  Te  Te112  1  0.38385619  0.58665863  0.59331304  1
  Te  Te113  1  0.41331937  0.58678944  0.91827103  1
  Te  Te114  1  0.41218454  0.93210260  0.25856807  1
  Te  Te115  1  0.40868229  0.91413888  0.56553379  1
  Te  Te116  1  0.41643328  0.92907519  0.90561110  1
  Te  Te117  1  0.75748690  0.27093631  0.25730920  1
  Te  Te118  1  0.75829786  0.22296724  0.58448380  1
  Te  Te119  1  0.73830565  0.24539086  0.94992991  1
  Te  Te120  1  0.75761098  0.57473063  0.23658768  1
  Te  Te121  1  0.74202552  0.57540581  0.57341270  1
  Te  Te122  1  0.74937876  0.57731792  0.91409675  1
  Te  Te123  1  0.75510762  0.94266269  0.30027816  1
  Te  Te124  1  0.74521600  0.91073914  0.57602792  1
  Te  Te125  1  0.76563496  0.93234887  0.90792578  1
  Te  Te126  1  0.24048480  0.23400955  0.07363522  1
  Te  Te127  1  0.28455333  0.21706202  0.43578104  1
  Te  Te128  1  0.25415376  0.25536864  0.73965408  1
  Te  Te129  1  0.25907854  0.56721994  0.10578517  1
  Te  Te130  1  0.22990043  0.57666279  0.40020546  1
  Te  Te131  1  0.22198743  0.60583725  0.75523944  1
  Te  Te132  1  0.21742136  0.89373151  0.06699362  1
  Te  Te133  1  0.27728378  0.95886217  0.41629498  1
  Te  Te134  1  0.22993084  0.91473171  0.73872373  1
  Te  Te135  1  0.57945624  0.27667552  0.09194729  1
  Te  Te136  1  0.57318464  0.27848491  0.38286991  1
  Te  Te137  1  0.58445017  0.25038924  0.74854332  1
  Te  Te138  1  0.59991568  0.57612811  0.08909813  1
  Te  Te139  1  0.57853999  0.57329285  0.40608179  1
  Te  Te140  1  0.57137835  0.56178482  0.77452082  1
  Te  Te141  1  0.58693715  0.90843437  0.08402872  1
  Te  Te142  1  0.57067364  0.92737607  0.40842288  1
  Te  Te143  1  0.58277896  0.91942888  0.76075560  1
  Te  Te144  1  0.91252877  0.26430929  0.12560285  1
  Te  Te145  1  0.91975685  0.23726524  0.41301032  1
  Te  Te146  1  0.90950390  0.25508989  0.73674525  1
  Te  Te147  1  0.93983993  0.57432202  0.08043352  1
  Te  Te148  1  0.91167625  0.57029671  0.39140127  1
  Te  Te149  1  0.90622747  0.58900002  0.73919297  1
  Te  Te150  1  0.91662905  0.91036356  0.11971639  1
  Te  Te151  1  0.91813953  0.91200746  0.40805277  1
  Te  Te152  1  0.92177848  0.92806351  0.75440275  1
  Te  Te153  1  0.23636528  0.08672864  0.26453917  1
  Te  Te154  1  0.24899363  0.09672044  0.56737853  1
  Te  Te155  1  0.21980865  0.07446310  0.91712056  1
  Te  Te156  1  0.24457741  0.41093424  0.26343946  1
  Te  Te157  1  0.22925025  0.40607724  0.54772609  1
  Te  Te158  1  0.25346654  0.41346199  0.91708081  1
  Te  Te159  1  0.24804400  0.74950927  0.24889905  1
  Te  Te160  1  0.22025318  0.78913947  0.60493231  1
  Te  Te161  1  0.23917584  0.76524047  0.92348904  1
  Te  Te162  1  0.56944798  0.11372471  0.27563834  1
  Te  Te163  1  0.58485117  0.09031992  0.57069067  1
  Te  Te164  1  0.56676845  0.07538351  0.91223762  1
  Te  Te165  1  0.57676726  0.40652466  0.29265145  1
  Te  Te166  1  0.57324340  0.39845886  0.57011248  1
  Te  Te167  1  0.59665113  0.40306424  0.93978384  1
  Te  Te168  1  0.58799745  0.75839130  0.24962090  1
  Te  Te169  1  0.57891561  0.74686771  0.57632575  1
  Te  Te170  1  0.59827768  0.72655608  0.93778923  1
  Te  Te171  1  0.94127577  0.09024241  0.22299298  1
  Te  Te172  1  0.92602282  0.08249318  0.59910358  1
  Te  Te173  1  0.91017444  0.08626914  0.92595460  1
  Te  Te174  1  0.90006535  0.44286347  0.29387827  1
  Te  Te175  1  0.93137001  0.43284535  0.54683129  1
  Te  Te176  1  0.92432980  0.41135413  0.90288190  1
  Te  Te177  1  0.92882593  0.77417090  0.23463638  1
  Te  Te178  1  0.93797013  0.76829963  0.55769001  1
  Te  Te179  1  0.94130753  0.74762167  0.95653987  1
