# generated using pymatgen
data_In2Te3
_symmetry_space_group_name_H-M   'P 1'
_cell_length_a   18.73584736
_cell_length_b   18.74645863
_cell_length_c   18.74120927
_cell_angle_alpha   89.88280440
_cell_angle_beta   89.98063939
_cell_angle_gamma   89.96244157
_symmetry_Int_Tables_number   1
_chemical_formula_structural   In2Te3
_chemical_formula_sum   'In72 Te108'
_cell_volume   6582.47413011
_cell_formula_units_Z   36
loop_
 _symmetry_equiv_pos_site_id
 _symmetry_equiv_pos_as_xyz
  1  'x, y, z'
loop_
 _atom_site_type_symbol
 _atom_site_label
 _atom_site_symmetry_multiplicity
 _atom_site_fract_x
 _atom_site_fract_y
 _atom_site_fract_z
 _atom_site_occupancy
  In  In0  1  -0.00945775  0.49878496  0.84614144  1
  In  In1  1  0.00342504  0.33546738  0.65439682  1
  In  In2  1  0.47557868  0.67211561  0.48219134  1
  In  In3  1  0.82447971  0.31645344  0.51709669  1
  In  In4  1  0.03039538  0.19926001  0.19946982  1
  In  In5  1  0.51512917  0.66315232  0.82278653  1
  In  In6  1  0.64343944  -0.02247984  0.33786793  1
  In  In7  1  0.18738578  0.68748262  0.18322142  1
  In  In8  1  0.83280816  0.68830605  0.81238007  1
  In  In9  1  0.01225276  -0.01445109  0.00237204  1
  In  In10  1  0.81445185  0.82126816  0.68481944  1
  In  In11  1  0.49762481  0.18590814  0.65970226  1
  In  In12  1  0.18813594  0.66151397  0.51339844  1
  In  In13  1  0.00982342  0.83220395  0.17268581  1
  In  In14  1  0.67809741  0.48916795  0.79856675  1
  In  In15  1  0.33817096  0.50134066  0.50842997  1
  In  In16  1  0.02885567  0.85228074  0.83425338  1
  In  In17  1  0.01862523  0.66072055  0.01977058  1
  In  In18  1  0.32809971  0.31048795  -0.00294504  1
  In  In19  1  0.50547642  -0.00154572  0.86732156  1
  In  In20  1  0.51751914  0.32889386  0.17820544  1
  In  In21  1  0.33240367  0.69167124  -0.00517569  1
  In  In22  1  0.68147982  0.32214999  0.00517094  1
  In  In23  1  0.16517413  0.47921290  -0.00044928  1
  In  In24  1  0.48379783  0.33614760  0.82555646  1
  In  In25  1  0.68762537  0.19159325  0.50175320  1
  In  In26  1  0.00473538  0.66168876  0.33675822  1
  In  In27  1  0.84957286  0.34639723  0.16706188  1
  In  In28  1  0.20891187  -0.01729747  0.14474806  1
  In  In29  1  0.01071764  0.03342844  0.65519496  1
  In  In30  1  0.51739058  0.17951019  0.34624230  1
  In  In31  1  0.02236384  0.17397784  0.51091734  1
  In  In32  1  0.64447808  0.51847906  0.55000548  1
  In  In33  1  0.83066298  0.49692417  0.31135386  1
  In  In34  1  0.65574821  0.00258209  0.68851381  1
  In  In35  1  -0.02222858  0.81904046  0.51444117  1
  In  In36  1  0.82460854  0.49150195  0.00608560  1
  In  In37  1  0.65863315  0.33957761  0.33852924  1
  In  In38  1  0.18255201  0.00738805  0.48143006  1
  In  In39  1  0.00301263  0.48607784  0.47608739  1
  In  In40  1  0.64340206  0.67054026  -0.01167868  1
  In  In41  1  0.82430445  0.00005022  0.83478364  1
  In  In42  1  0.50185088  -0.02076974  0.49719562  1
  In  In43  1  0.82213943  0.82721255  -0.00496659  1
  In  In44  1  0.16735607  0.49147336  0.34207968  1
  In  In45  1  0.35563442  -0.01674693  0.30426508  1
  In  In46  1  -0.02417715  0.67989213  0.66525239  1
  In  In47  1  0.65094506  0.16324856  0.15568112  1
  In  In48  1  0.80471907  0.17249792  -0.00835021  1
  In  In49  1  0.35176675  0.13387028  0.14217873  1
  In  In50  1  0.00535148  0.17739924  0.81392460  1
  In  In51  1  0.65665126  0.80880220  0.82152383  1
  In  In52  1  0.80872315  0.83757889  0.35444251  1
  In  In53  1  0.65766321  0.81315184  0.49770578  1
  In  In54  1  -0.00030378  0.33328909  -0.00181223  1
  In  In55  1  0.30568258  0.18124654  0.80313760  1
  In  In56  1  0.18231519  0.82583524  0.65733286  1
  In  In57  1  0.84788510  0.17030901  0.34485031  1
  In  In58  1  0.33330614  0.49179420  0.80397841  1
  In  In59  1  0.34939410  -0.01009427  0.64965668  1
  In  In60  1  0.17900429  0.49364950  0.66299198  1
  In  In61  1  0.17203502  0.15869539  -0.00045310  1
  In  In62  1  0.85908822  -0.00420610  0.50948365  1
  In  In63  1  0.49904324  0.68832575  0.17817098  1
  In  In64  1  0.81344634  0.03389674  0.17511303  1
  In  In65  1  0.19271259  0.83715818  0.32763517  1
  In  In66  1  0.33513746  0.18750004  0.50641283  1
  In  In67  1  0.34218075  0.83141906  0.83640307  1
  In  In68  1  0.35162810  0.52167803  0.18742241  1
  In  In69  1  0.81567112  0.66254540  0.14993034  1
  In  In70  1  0.50315229  0.50626803  0.00881869  1
  In  In71  1  0.32822093  0.34194882  0.35470000  1
  Te  Te72  1  0.08101771  0.08337205  0.09939313  1
  Te  Te73  1  0.07011681  0.07341773  0.41302206  1
  Te  Te74  1  0.09752253  0.07206691  0.76692123  1
  Te  Te75  1  0.07960891  0.40806684  0.09695194  1
  Te  Te76  1  0.10796500  0.38821590  0.43368676  1
  Te  Te77  1  0.08482210  0.41734890  0.75794169  1
  Te  Te78  1  0.11056469  0.76872914  0.07716970  1
  Te  Te79  1  0.09197334  0.75637710  0.42131979  1
  Te  Te80  1  0.08906242  0.74129501  0.74703731  1
  Te  Te81  1  0.45460607  0.06191044  0.05841912  1
  Te  Te82  1  0.41423165  0.08308063  0.41998283  1
  Te  Te83  1  0.42711773  0.07966492  0.74898990  1
  Te  Te84  1  0.41079565  0.41019372  0.08473476  1
  Te  Te85  1  0.42988056  0.43166873  0.41174304  1
  Te  Te86  1  0.42977464  0.42114151  0.71430769  1
  Te  Te87  1  0.41253565  0.77819685  0.08817395  1
  Te  Te88  1  0.36955581  0.75367002  0.40940836  1
  Te  Te89  1  0.41476410  0.73909926  0.74525062  1
  Te  Te90  1  0.71636266  0.06040988  0.05434335  1
  Te  Te91  1  0.74716828  0.07271981  0.40975910  1
  Te  Te92  1  0.75140579  0.09615598  0.74917427  1
  Te  Te93  1  0.73183132  0.42437735  0.10803030  1
  Te  Te94  1  0.75493373  0.41889078  0.42360153  1
  Te  Te95  1  0.76058360  0.39404025  0.72464246  1
  Te  Te96  1  0.71777674  0.76419718  0.08669331  1
  Te  Te97  1  0.72474739  0.72249700  0.39781025  1
  Te  Te98  1  0.70890076  0.70662678  0.71488792  1
  Te  Te99  1  0.11021674  0.26327725  0.30437240  1
  Te  Te100  1  0.11474450  0.23907498  0.61311906  1
  Te  Te101  1  0.09653890  0.25724553  0.90838004  1
  Te  Te102  1  0.09083873  0.58267573  0.23990572  1
  Te  Te103  1  0.06991610  0.58756694  0.57814154  1
  Te  Te104  1  0.09771721  0.58648970  0.91154777  1
  Te  Te105  1  0.09990321  0.92750372  0.24849611  1
  Te  Te106  1  0.08241843  0.91428138  0.57666632  1
  Te  Te107  1  0.12121229  0.92263680  0.92557014  1
  Te  Te108  1  0.41325516  0.24248211  0.25124605  1
  Te  Te109  1  0.40154719  0.28463972  0.59902410  1
  Te  Te110  1  0.41583662  0.22630256  0.90838069  1
  Te  Te111  1  0.44608041  0.58883454  0.27775254  1
  Te  Te112  1  0.41564373  0.59301542  0.59496679  1
  Te  Te113  1  0.40983417  0.58064523  0.91422307  1
  Te  Te114  1  0.44013159  0.89317303  0.21866007  1
  Te  Te115  1  0.43998425  0.88320154  0.59430358  1
  Te  Te116  1  0.38492944  0.93860753  0.93941153  1
  Te  Te117  1  0.74733836  0.24375312  0.24844813  1
  Te  Te118  1  0.71462437  0.28470039  0.61959692  1
  Te  Te119  1  0.73672786  0.25120751  0.88626521  1
  Te  Te120  1  0.73556390  0.59838412  0.25678446  1
  Te  Te121  1  0.75200950  0.60278536  0.60530052  1
  Te  Te122  1  0.75169690  0.59239565  0.91344823  1
  Te  Te123  1  0.74108499  0.91325640  0.23746870  1
  Te  Te124  1  0.74383706  0.92036117  0.57967564  1
  Te  Te125  1  0.72586942  0.91221025  0.91220159  1
  Te  Te126  1  0.24482274  0.24346633  0.10481612  1
  Te  Te127  1  0.23476324  0.23077552  0.40051437  1
  Te  Te128  1  0.23698367  0.27268542  0.70851672  1
  Te  Te129  1  0.25493298  0.58267670  0.08174629  1
  Te  Te130  1  0.26271389  0.59302860  0.40034698  1
  Te  Te131  1  0.25370756  0.59701189  0.73719988  1
  Te  Te132  1  0.29417061  0.89193897  0.06536857  1
  Te  Te133  1  0.28672437  0.90914003  0.42708124  1
  Te  Te134  1  0.25060063  0.92679111  0.74782337  1
  Te  Te135  1  0.56113108  0.24315263  0.05910619  1
  Te  Te136  1  0.56393344  0.27964159  0.45473270  1
  Te  Te137  1  0.58528881  0.24534021  0.76383872  1
  Te  Te138  1  0.59081595  0.58421922  0.10278535  1
  Te  Te139  1  0.59225443  0.59234810  0.43050834  1
  Te  Te140  1  0.56433452  0.55551562  0.72966998  1
  Te  Te141  1  0.54195511  0.95463917  0.12288602  1
  Te  Te142  1  0.54661523  0.86940038  0.39328158  1
  Te  Te143  1  0.55953465  0.90611923  0.75203959  1
  Te  Te144  1  0.91130101  0.23114654  0.08677130  1
  Te  Te145  1  0.93319364  0.26747507  0.42047187  1
  Te  Te146  1  0.90780140  0.26304330  0.74417273  1
  Te  Te147  1  0.92422699  0.56705246  0.09535753  1
  Te  Te148  1  0.90227994  0.58576316  0.41759981  1
  Te  Te149  1  0.90191501  0.56875995  0.74297085  1
  Te  Te150  1  0.90273745  0.91718640  0.09059175  1
  Te  Te151  1  0.93253755  0.91498528  0.40199806  1
  Te  Te152  1  0.92254172  0.91694121  0.73976259  1
  Te  Te153  1  0.25367219  0.08335441  0.25182408  1
  Te  Te154  1  0.24933520  0.09026487  0.59005174  1
  Te  Te155  1  0.27046969  0.08831500  0.91387211  1
  Te  Te156  1  0.25482438  0.41576080  0.24099123  1
  Te  Te157  1  0.24548991  0.39862300  0.57002927  1
  Te  Te158  1  0.25217146  0.40143269  0.90055732  1
  Te  Te159  1  0.29873637  0.74840493  0.26610248  1
  Te  Te160  1  0.28530236  0.75399210  0.57746485  1
  Te  Te161  1  0.23500731  0.74841307  0.90054338  1
  Te  Te162  1  0.56115439  0.07136931  0.24485578  1
  Te  Te163  1  0.58666592  0.08523044  0.56869085  1
  Te  Te164  1  0.59749029  0.08272891  0.94462710  1
  Te  Te165  1  0.56895211  0.43432192  0.26774854  1
  Te  Te166  1  0.56786712  0.39330021  0.56165134  1
  Te  Te167  1  0.58980431  0.42188727  0.91632143  1
  Te  Te168  1  0.57237718  0.78602682  0.26219179  1
  Te  Te169  1  0.55367214  0.75549480  0.58642949  1
  Te  Te170  1  0.55067796  0.77436734  0.92908525  1
  Te  Te171  1  0.93351454  0.08391605  0.25292408  1
  Te  Te172  1  0.89801566  0.11530754  0.59313824  1
  Te  Te173  1  0.92024381  0.08240314  0.92368050  1
  Te  Te174  1  0.94202137  0.41327997  0.25950427  1
  Te  Te175  1  0.90729105  0.43055219  0.58118102  1
  Te  Te176  1  0.89309143  0.39668980  0.90840605  1
  Te  Te177  1  0.90830147  0.74775813  0.25008963  1
  Te  Te178  1  0.86738238  0.72900872  0.56519924  1
  Te  Te179  1  0.93230356  0.75023853  0.91995928  1
