# generated using pymatgen
data_In2Te3
_symmetry_space_group_name_H-M   'P 1'
_cell_length_a   18.77740364
_cell_length_b   18.77754544
_cell_length_c   18.77810021
_cell_angle_alpha   90.04590818
_cell_angle_beta   89.94228094
_cell_angle_gamma   89.97205625
_symmetry_Int_Tables_number   1
_chemical_formula_structural   In2Te3
_chemical_formula_sum   'In72 Te108'
_cell_volume   6621.03074126
_cell_formula_units_Z   36
loop_
 _symmetry_equiv_pos_site_id
 _symmetry_equiv_pos_as_xyz
  1  'x, y, z'
loop_
 _atom_site_type_symbol
 _atom_site_label
 _atom_site_symmetry_multiplicity
 _atom_site_fract_x
 _atom_site_fract_y
 _atom_site_fract_z
 _atom_site_occupancy
  In  In0  1  0.67657208  0.80321523  0.15025649  1
  In  In1  1  0.66806134  0.86143719  0.50060729  1
  In  In2  1  0.84982223  0.16753190  0.31814066  1
  In  In3  1  0.48404522  0.65860810  0.48521225  1
  In  In4  1  0.85609032  -0.00335090  0.16048640  1
  In  In5  1  0.01804367  0.84282135  0.85469441  1
  In  In6  1  0.18500084  0.01177320  0.47638951  1
  In  In7  1  0.33264951  0.52024265  0.16918607  1
  In  In8  1  0.66564038  0.00498273  0.33389059  1
  In  In9  1  0.17610667  0.30611818  0.49497346  1
  In  In10  1  0.66994996  0.47062128  0.53339895  1
  In  In11  1  -0.01587863  0.48110932  0.84043961  1
  In  In12  1  0.34433654  0.48701974  0.50581358  1
  In  In13  1  0.65830410  0.67492653  0.68132351  1
  In  In14  1  0.34848250  0.52743893  0.84633881  1
  In  In15  1  0.15611513  0.66882082  0.50165273  1
  In  In16  1  0.83409949  0.18595420  -0.01597353  1
  In  In17  1  0.48678430  0.32233291  0.18078408  1
  In  In18  1  0.00915625  0.02234520  0.66992163  1
  In  In19  1  0.83776056  0.32517691  0.86740902  1
  In  In20  1  0.30424922  0.30714542  0.30479913  1
  In  In21  1  0.47442841  0.00984761  0.17325830  1
  In  In22  1  0.49883043  0.84288930  0.69124651  1
  In  In23  1  0.64559017  0.17522912  0.47937642  1
  In  In24  1  0.18338147  0.83061544  0.66286636  1
  In  In25  1  0.65014635  0.84339918  0.84682720  1
  In  In26  1  0.83525679  0.83264483  0.63690544  1
  In  In27  1  0.02247715  0.16806165  0.83791716  1
  In  In28  1  0.02903619  0.16612723  0.18343484  1
  In  In29  1  0.84128344  0.68866213  0.48455564  1
  In  In30  1  0.01974437  0.32189885  0.65066148  1
  In  In31  1  0.51020612  0.34635248  0.83920152  1
  In  In32  1  0.48142943  0.16425193  0.65947913  1
  In  In33  1  0.47065152  0.02656209  0.47117916  1
  In  In34  1  0.48755815  0.49003404  0.32331438  1
  In  In35  1  0.01097044  0.48322165  0.16486120  1
  In  In36  1  0.32376935  -0.00238260  0.65710341  1
  In  In37  1  0.84189563  0.50518401  0.67886046  1
  In  In38  1  0.84245084  0.31172227  0.47422477  1
  In  In39  1  0.30811298  0.85450997  0.47643776  1
  In  In40  1  0.86933185  0.84296105  0.32972312  1
  In  In41  1  0.82605023  0.33885104  0.16462026  1
  In  In42  1  0.00546516  0.67201799  0.32222007  1
  In  In43  1  0.00292105  0.84145576  0.48010695  1
  In  In44  1  0.01201551  0.67489979  0.02651380  1
  In  In45  1  0.64956802  0.16671873  0.16376600  1
  In  In46  1  0.66096159  0.33663789  0.66447065  1
  In  In47  1  0.48531805  0.15653374  0.02061534  1
  In  In48  1  0.33259865  0.84441339  0.86403086  1
  In  In49  1  0.16768443  0.50070122  0.01456642  1
  In  In50  1  0.32091589  0.68496352  0.30508777  1
  In  In51  1  0.02788961  0.85316981  0.18550267  1
  In  In52  1  0.64724822  0.66114696  0.31127530  1
  In  In53  1  0.31693716  0.30733342  0.02890748  1
  In  In54  1  0.49214023  0.84250753  0.00777448  1
  In  In55  1  0.82109832  0.49076696  0.31502773  1
  In  In56  1  0.66923831  0.51617147  0.87162333  1
  In  In57  1  0.19104060  0.67755918  0.84770641  1
  In  In58  1  0.30813615  0.14651675  0.85173879  1
  In  In59  1  0.52520242  0.48727175  0.64523353  1
  In  In60  1  0.02684900  0.49923750  0.50330193  1
  In  In61  1  0.81733882  -0.01201003  0.82644642  1
  In  In62  1  0.48515972  0.68804585  0.85750071  1
  In  In63  1  0.32131825  0.85366424  0.16069135  1
  In  In64  1  0.16397868  0.32434953  0.84390454  1
  In  In65  1  0.33160043  0.32130122  0.65329165  1
  In  In66  1  0.01281606  -0.00380590  0.01264531  1
  In  In67  1  0.15944717  0.49582995  0.33367369  1
  In  In68  1  0.66013800  0.00623303  -0.01471014  1
  In  In69  1  0.82810843  0.64712467  0.85004394  1
  In  In70  1  0.84480879  0.14274209  0.67372776  1
  In  In71  1  0.64919151  0.50773064  0.13887914  1
  Te  Te72  1  0.10639893  0.05527326  0.11419608  1
  Te  Te73  1  0.08240533  0.06209647  0.37992128  1
  Te  Te74  1  0.11056164  0.07985760  0.75944340  1
  Te  Te75  1  0.08511108  0.39280945  0.07180897  1
  Te  Te76  1  0.07905853  0.39162329  0.41000574  1
  Te  Te77  1  0.08880929  0.41728332  0.74792936  1
  Te  Te78  1  0.10755476  0.77391505  0.08742640  1
  Te  Te79  1  0.10423952  0.76384540  0.39487627  1
  Te  Te80  1  0.09184224  0.75203885  0.75554053  1
  Te  Te81  1  0.37315529  0.07367834  0.07944015  1
  Te  Te82  1  0.38704133  0.11509257  0.38566493  1
  Te  Te83  1  0.40886404  0.07371806  0.75871820  1
  Te  Te84  1  0.40939798  0.41403415  0.08820232  1
  Te  Te85  1  0.39742362  0.39377235  0.39860409  1
  Te  Te86  1  0.41579830  0.41743048  0.74055123  1
  Te  Te87  1  0.40327993  0.75383416  0.08454710  1
  Te  Te88  1  0.41081678  0.76172476  0.40217245  1
  Te  Te89  1  0.39665911  0.75012999  0.75141791  1
  Te  Te90  1  0.75778163  0.08642382  0.08623270  1
  Te  Te91  1  0.75762976  0.09150686  0.41785927  1
  Te  Te92  1  0.73832653  0.09516088  0.76368309  1
  Te  Te93  1  0.74223271  0.41279577  0.06840991  1
  Te  Te94  1  0.73948696  0.40468208  0.41079302  1
  Te  Te95  1  0.74170784  0.42554907  0.76222864  1
  Te  Te96  1  0.75219223  0.72361698  0.05407251  1
  Te  Te97  1  0.73768582  0.75973481  0.40012848  1
  Te  Te98  1  0.76130106  0.75777214  0.75729814  1
  Te  Te99  1  0.12631916  0.25534919  0.25694268  1
  Te  Te100  1  0.08707451  0.21561367  0.57485966  1
  Te  Te101  1  0.08793625  0.24655821  0.94468016  1
  Te  Te102  1  0.09843383  0.59184423  0.23242609  1
  Te  Te103  1  0.09265866  0.58371894  0.60319042  1
  Te  Te104  1  0.08068556  0.58214507  0.91372788  1
  Te  Te105  1  0.09069947  0.93273640  0.29637943  1
  Te  Te106  1  0.09602584  0.92082131  0.57585142  1
  Te  Te107  1  0.11597953  0.92782729  0.92607706  1
  Te  Te108  1  0.40867124  0.21286775  0.24742058  1
  Te  Te109  1  0.39501577  0.22744917  0.55677863  1
  Te  Te110  1  0.40673206  0.24999831  0.91357587  1
  Te  Te111  1  0.43775747  0.60667488  0.23922480  1
  Te  Te112  1  0.41465259  0.58511641  0.59974416  1
  Te  Te113  1  0.43147211  0.58699556  0.95721980  1
  Te  Te114  1  0.39362845  0.93007478  0.27075284  1
  Te  Te115  1  0.42167214  0.90987258  0.57444694  1
  Te  Te116  1  0.44413011  0.93499367  0.90253585  1
  Te  Te117  1  0.73843764  0.25112065  0.25527073  1
  Te  Te118  1  0.75567413  0.24574886  0.58527577  1
  Te  Te119  1  0.72132241  0.24523949  0.91058131  1
  Te  Te120  1  0.75353805  0.59211901  0.22655341  1
  Te  Te121  1  0.75716767  0.59892920  0.58377351  1
  Te  Te122  1  0.75859017  0.58972682  0.97116594  1
  Te  Te123  1  0.75376407  0.91615992  0.24441639  1
  Te  Te124  1  0.74769096  0.94299882  0.59409681  1
  Te  Te125  1  0.76035976  0.90146064  0.93809158  1
  Te  Te126  1  0.23638748  0.22562487  0.12220133  1
  Te  Te127  1  0.26212120  0.20786425  0.41445891  1
  Te  Te128  1  0.24272802  0.23707977  0.74592120  1
  Te  Te129  1  0.25640780  0.60428901  0.07208541  1
  Te  Te130  1  0.26306691  0.57983926  0.40981014  1
  Te  Te131  1  0.25369624  0.58448493  0.75003016  1
  Te  Te132  1  0.27264951  0.95296278  0.05818105  1
  Te  Te133  1  0.25912512  0.94150771  0.36274300  1
  Te  Te134  1  0.24451943  0.92419377  0.76533085  1
  Te  Te135  1  0.58116753  0.26358575  0.07074136  1
  Te  Te136  1  0.57047536  0.28416819  0.41946884  1
  Te  Te137  1  0.57847541  0.24140269  0.75140862  1
  Te  Te138  1  0.55353563  0.58345969  0.05703192  1
  Te  Te139  1  0.58795233  0.56323763  0.42451211  1
  Te  Te140  1  0.57070813  0.58143845  0.76481336  1
  Te  Te141  1  0.58684969  0.93319944  0.09992081  1
  Te  Te142  1  0.56301626  0.91805002  0.40554352  1
  Te  Te143  1  0.60323804  0.93351618  0.74003180  1
  Te  Te144  1  0.92147485  0.23977079  0.09539892  1
  Te  Te145  1  0.94777762  0.23349550  0.40834245  1
  Te  Te146  1  0.91949489  0.26067063  0.75329781  1
  Te  Te147  1  0.92291519  0.57200644  0.08479691  1
  Te  Te148  1  0.91869178  0.57489070  0.41184158  1
  Te  Te149  1  0.93550729  0.59850385  0.75022655  1
  Te  Te150  1  0.92069547  0.89140770  0.07579576  1
  Te  Te151  1  0.89134276  0.93190817  0.44444989  1
  Te  Te152  1  0.92626360  0.91335624  0.74371056  1
  Te  Te153  1  0.19772580  0.12307593  0.23499671  1
  Te  Te154  1  0.25412093  0.09872627  0.57537526  1
  Te  Te155  1  0.23608156  0.06054207  0.94776770  1
  Te  Te156  1  0.23391191  0.41788890  0.22535531  1
  Te  Te157  1  0.23360121  0.41813648  0.58480854  1
  Te  Te158  1  0.26533622  0.41572230  0.91701899  1
  Te  Te159  1  0.22158498  0.75837047  0.22275475  1
  Te  Te160  1  0.26965025  0.74170976  0.57391068  1
  Te  Te161  1  0.26915957  0.74488054  0.95615645  1
  Te  Te162  1  0.56349916  0.09601242  0.26660587  1
  Te  Te163  1  0.57524667  0.07737733  0.57301476  1
  Te  Te164  1  0.55726746  0.08241525  0.91316590  1
  Te  Te165  1  0.59329113  0.41227221  0.24599039  1
  Te  Te166  1  0.55048417  0.36402160  0.55220897  1
  Te  Te167  1  0.56907472  0.43263830  0.94447767  1
  Te  Te168  1  0.56762035  0.76197135  0.24010890  1
  Te  Te169  1  0.57923867  0.74894481  0.57419042  1
  Te  Te170  1  0.59978772  0.74014996  0.94480218  1
  Te  Te171  1  0.94459390  0.05766470  0.26604645  1
  Te  Te172  1  0.93273866  0.09355459  0.56543101  1
  Te  Te173  1  0.91774498  0.07424389  0.91328803  1
  Te  Te174  1  0.92911248  0.39755737  0.26287693  1
  Te  Te175  1  0.91039578  0.41575191  0.57603604  1
  Te  Te176  1  0.90569741  0.42462944  0.95241837  1
  Te  Te177  1  0.91399264  0.74400562  0.22614075  1
  Te  Te178  1  0.94516128  0.74027183  0.58276218  1
  Te  Te179  1  0.92228437  0.74651327  0.92260104  1
