# generated using pymatgen
data_In2Te3
_symmetry_space_group_name_H-M   'P 1'
_cell_length_a   18.79672328
_cell_length_b   18.79218466
_cell_length_c   18.78649182
_cell_angle_alpha   90.09031651
_cell_angle_beta   90.03856690
_cell_angle_gamma   90.08193747
_symmetry_Int_Tables_number   1
_chemical_formula_structural   In2Te3
_chemical_formula_sum   'In72 Te108'
_cell_volume   6635.96404327
_cell_formula_units_Z   36
loop_
 _symmetry_equiv_pos_site_id
 _symmetry_equiv_pos_as_xyz
  1  'x, y, z'
loop_
 _atom_site_type_symbol
 _atom_site_label
 _atom_site_symmetry_multiplicity
 _atom_site_fract_x
 _atom_site_fract_y
 _atom_site_fract_z
 _atom_site_occupancy
  In  In0  1  0.67963872  0.82033014  0.83845515  1
  In  In1  1  0.83850349  0.67772079  0.50169894  1
  In  In2  1  0.50792104  0.33798129  0.50832528  1
  In  In3  1  0.36154331  0.65329459  0.33937335  1
  In  In4  1  -0.02627777  -0.05033697  0.36137233  1
  In  In5  1  0.82849223  0.67363731  0.82830881  1
  In  In6  1  -0.00598485  -0.00765298  0.68004588  1
  In  In7  1  0.83242460  0.52475807  0.65829020  1
  In  In8  1  0.49915618  0.18397100  0.65042984  1
  In  In9  1  0.50249605  0.34695257  0.15162642  1
  In  In10  1  0.31391720  0.82000173  0.48208014  1
  In  In11  1  0.15188813  0.81488702  0.68813900  1
  In  In12  1  0.49310041  0.51514996  0.64904112  1
  In  In13  1  0.49230098  0.36661655  0.81984394  1
  In  In14  1  0.14586658  0.82023485  -0.01186556  1
  In  In15  1  0.35729956  0.17973169  0.49733211  1
  In  In16  1  0.16483563  0.17713127  -0.01196855  1
  In  In17  1  0.00250590  0.52024131  0.15953060  1
  In  In18  1  0.79869846  0.81379266  0.02121641  1
  In  In19  1  0.31462025  0.19456119  0.81162031  1
  In  In20  1  0.80994671  0.50690646  0.33412940  1
  In  In21  1  0.17634256  0.34581790  0.18554305  1
  In  In22  1  0.49981134  0.50683242  0.01162050  1
  In  In23  1  0.67691450  0.50066662  0.83496644  1
  In  In24  1  0.16795003  0.81466557  0.33426643  1
  In  In25  1  0.02849137  0.34476973  0.67759707  1
  In  In26  1  0.02499587  0.49039928  0.51307160  1
  In  In27  1  0.82958938  0.16407163  0.34313753  1
  In  In28  1  0.02913579  0.16631724  0.82171111  1
  In  In29  1  0.16241653  0.15373883  0.33280665  1
  In  In30  1  0.82973652  0.51546104  0.02239406  1
  In  In31  1  0.34524079  0.81452946  0.83019716  1
  In  In32  1  0.35786022  0.67039494  0.01642905  1
  In  In33  1  0.16818337  0.33305065  0.55790852  1
  In  In34  1  -0.01329278  -0.02517181  -0.00290601  1
  In  In35  1  0.86379771  -0.02074997  0.81682662  1
  In  In36  1  0.15462631  0.66166847  0.49787516  1
  In  In37  1  0.84056271  0.17152828  0.64203964  1
  In  In38  1  0.17325916  0.51002331  -0.04632404  1
  In  In39  1  0.66318830  0.52712605  0.15488419  1
  In  In40  1  0.16878547  -0.01701370  0.17017911  1
  In  In41  1  0.19033649  0.52630292  0.68399590  1
  In  In42  1  0.50329077  0.15055000  0.33381228  1
  In  In43  1  0.33888862  -0.00699134  0.00601895  1
  In  In44  1  0.84280943  0.36085438  0.84176635  1
  In  In45  1  0.50108148  0.80286013  0.29539182  1
  In  In46  1  0.68886672  -0.00712254  0.33717316  1
  In  In47  1  0.67905256  -0.02817144  0.65888678  1
  In  In48  1  0.67255983  0.81486105  0.49268828  1
  In  In49  1  0.00438832  0.32764568  -0.01091821  1
  In  In50  1  0.65826773  0.16807625  0.82527589  1
  In  In51  1  0.49644242  0.17130591  -0.00702608  1
  In  In52  1  0.51319624  0.79964443  0.67632442  1
  In  In53  1  -0.02968824  0.15818759  0.15299051  1
  In  In54  1  0.47996833  0.00417249  0.85334167  1
  In  In55  1  0.32151482  0.16471234  0.14200468  1
  In  In56  1  0.18354214  0.49808622  0.33061702  1
  In  In57  1  0.81509105  0.33919622  0.47806283  1
  In  In58  1  0.17717838  0.67234103  0.14972598  1
  In  In59  1  -0.03389748  0.68924647  0.32312245  1
  In  In60  1  0.81116640  -0.02462908  0.17003213  1
  In  In61  1  0.17871645  0.00670027  0.50845876  1
  In  In62  1  0.50931322  -0.00160840  0.51003359  1
  In  In63  1  0.31879969  -0.00618887  0.64871667  1
  In  In64  1  0.82430522  0.17937841  -0.00317371  1
  In  In65  1  0.66063457  0.17125519  0.19110607  1
  In  In66  1  0.50185941  0.66715284  0.85060440  1
  In  In67  1  -0.02194179  0.34900878  0.33264807  1
  In  In68  1  0.64762058  -0.05793590  0.04705957  1
  In  In69  1  0.00137182  0.83225643  0.83289201  1
  In  In70  1  0.65993057  0.34202351  0.33326753  1
  In  In71  1  0.35558129  0.34619614  0.34520420  1
  Te  Te72  1  0.08614671  0.08124528  0.08245812  1
  Te  Te73  1  0.07138046  0.06181365  0.41198179  1
  Te  Te74  1  0.10494420  0.07313152  0.73806854  1
  Te  Te75  1  0.09228698  0.42301224  0.08146102  1
  Te  Te76  1  0.10060307  0.39731049  0.41233065  1
  Te  Te77  1  0.07507391  0.46185239  0.75709058  1
  Te  Te78  1  0.06427343  0.73765336  0.08064251  1
  Te  Te79  1  0.06181864  0.75810233  0.42744621  1
  Te  Te80  1  0.08901686  0.71731720  0.78589682  1
  Te  Te81  1  0.43506429  0.07446260  0.09372859  1
  Te  Te82  1  0.40815118  0.06155256  0.41359811  1
  Te  Te83  1  0.41788560  0.08717693  0.74091004  1
  Te  Te84  1  0.39985665  0.41428481  0.07164698  1
  Te  Te85  1  0.43251136  0.44127792  0.42880203  1
  Te  Te86  1  0.39712205  0.44847699  0.74252024  1
  Te  Te87  1  0.42002769  0.76370076  0.11606761  1
  Te  Te88  1  0.44019545  0.75505994  0.43223273  1
  Te  Te89  1  0.39747656  0.70962334  0.72908188  1
  Te  Te90  1  0.74305777  0.08383837  0.08724631  1
  Te  Te91  1  0.74825579  0.08467493  0.43576567  1
  Te  Te92  1  0.75757388  0.07574819  0.75154342  1
  Te  Te93  1  0.73744167  0.41950078  0.08604362  1
  Te  Te94  1  0.71186290  0.44623255  0.43326080  1
  Te  Te95  1  0.75204175  0.41614550  0.73292971  1
  Te  Te96  1  0.71115755  0.74512484  0.11829631  1
  Te  Te97  1  0.73357550  0.71335033  0.40187830  1
  Te  Te98  1  0.74603300  0.74918762  0.72926056  1
  Te  Te99  1  0.07322152  0.24377031  0.23948766  1
  Te  Te100  1  0.06789739  0.23159196  0.58996400  1
  Te  Te101  1  0.10913646  0.27983555  0.88521282  1
  Te  Te102  1  0.08997650  0.59949569  0.26633565  1
  Te  Te103  1  0.06890046  0.60031872  0.60592359  1
  Te  Te104  1  0.07483119  0.59713539  0.88767046  1
  Te  Te105  1  0.07183935  0.89914703  0.25099366  1
  Te  Te106  1  0.09021228  0.91032550  0.58472335  1
  Te  Te107  1  0.09527978  0.93535889  0.89979159  1
  Te  Te108  1  0.41913424  0.24282184  0.24424360  1
  Te  Te109  1  0.39686487  0.28447860  0.60118615  1
  Te  Te110  1  0.41301328  0.26346041  0.90744369  1
  Te  Te111  1  0.46314382  0.57897302  0.25938317  1
  Te  Te112  1  0.45702874  0.61387716  0.54178722  1
  Te  Te113  1  0.40296276  0.56816605  0.90836799  1
  Te  Te114  1  0.40925381  0.89103795  0.21795913  1
  Te  Te115  1  0.42320253  0.89845677  0.59057780  1
  Te  Te116  1  0.42836211  0.88830363  0.93612732  1
  Te  Te117  1  0.76480092  0.26624157  0.25101798  1
  Te  Te118  1  0.74155979  0.25821377  0.57693768  1
  Te  Te119  1  0.73885797  0.26863648  0.91024675  1
  Te  Te120  1  0.75686231  0.61067846  0.24054032  1
  Te  Te121  1  0.73611448  0.59100696  0.56860119  1
  Te  Te122  1  0.74071498  0.60025770  0.92985117  1
  Te  Te123  1  0.75894111  0.87626927  0.27101437  1
  Te  Te124  1  0.76695003  0.91914499  0.54985334  1
  Te  Te125  1  0.76046274  0.92917164  0.92145044  1
  Te  Te126  1  0.25042394  0.27590896  0.06793022  1
  Te  Te127  1  0.25071586  0.25340187  0.41035849  1
  Te  Te128  1  0.23347428  0.30195578  0.75364034  1
  Te  Te129  1  0.25568266  0.56854340  0.07362725  1
  Te  Te130  1  0.26370301  0.57676458  0.43371687  1
  Te  Te131  1  0.27675869  0.61469098  0.76520963  1
  Te  Te132  1  0.24862868  0.89275555  0.07863715  1
  Te  Te133  1  0.25148713  0.92730686  0.39721793  1
  Te  Te134  1  0.25188851  0.91220303  0.75862306  1
  Te  Te135  1  0.59590903  0.25221859  0.07788347  1
  Te  Te136  1  0.59010388  0.23859533  0.42107341  1
  Te  Te137  1  0.58588179  0.27137348  0.74047786  1
  Te  Te138  1  0.57513175  0.61932122  0.07541422  1
  Te  Te139  1  0.51959915  0.58125521  0.39969266  1
  Te  Te140  1  0.58844187  0.59111492  0.75294318  1
  Te  Te141  1  0.53716292  0.87367787  0.12284730  1
  Te  Te142  1  0.57767694  0.90906177  0.40658601  1
  Te  Te143  1  0.57177627  0.92035618  0.75825764  1
  Te  Te144  1  0.89917818  0.27616406  0.08860095  1
  Te  Te145  1  0.93025970  0.24242999  0.42759582  1
  Te  Te146  1  0.91373938  0.24944763  0.76225972  1
  Te  Te147  1  0.91840232  0.61724984  0.08772393  1
  Te  Te148  1  0.93129463  0.56450421  0.41612106  1
  Te  Te149  1  0.92442549  0.58667618  0.75530788  1
  Te  Te150  1  0.91750111  0.89051410  0.09911530  1
  Te  Te151  1  0.89593842  0.86541147  0.45807517  1
  Te  Te152  1  0.90111978  0.86591232  0.72090940  1
  Te  Te153  1  0.26301149  0.07347098  0.24982906  1
  Te  Te154  1  0.25053249  0.11556604  0.58974510  1
  Te  Te155  1  0.26134885  0.08868577  0.91075261  1
  Te  Te156  1  0.28893732  0.43600593  0.23978111  1
  Te  Te157  1  0.25594793  0.44837475  0.57368835  1
  Te  Te158  1  0.23991557  0.40821963  0.86787583  1
  Te  Te159  1  0.27034489  0.74174073  0.24935935  1
  Te  Te160  1  0.24854570  0.74092795  0.59122019  1
  Te  Te161  1  0.25339384  0.73333341  0.92156465  1
  Te  Te162  1  0.58009161  0.05405924  0.24486457  1
  Te  Te163  1  0.60179359  0.08852302  0.58987864  1
  Te  Te164  1  0.59603247  0.07016591  0.92837315  1
  Te  Te165  1  0.57316459  0.43682916  0.25222537  1
  Te  Te166  1  0.59473319  0.42184545  0.59326436  1
  Te  Te167  1  0.59019860  0.41576028  0.92686224  1
  Te  Te168  1  0.60862185  0.72018127  0.23432971  1
  Te  Te169  1  0.59963537  0.71955969  0.58491841  1
  Te  Te170  1  0.58744644  0.75530947  0.93386144  1
  Te  Te171  1  0.91502033  0.05983120  0.25693751  1
  Te  Te172  1  0.91411112  0.06243063  0.57694349  1
  Te  Te173  1  0.92664093  0.09509322  0.92084756  1
  Te  Te174  1  0.90088870  0.43174700  0.23359460  1
  Te  Te175  1  0.91500565  0.40757279  0.58093499  1
  Te  Te176  1  0.93214895  0.44768699  0.92728124  1
  Te  Te177  1  0.88878058  0.78960662  0.24772558  1
  Te  Te178  1  0.93090252  0.76649255  0.57486320  1
  Te  Te179  1  0.90807142  0.75772868  0.92839757  1
