# generated using pymatgen
data_In2Te3
_symmetry_space_group_name_H-M   'P 1'
_cell_length_a   18.77179971
_cell_length_b   18.77906628
_cell_length_c   18.77627823
_cell_angle_alpha   90.09878106
_cell_angle_beta   90.01005477
_cell_angle_gamma   90.04195807
_symmetry_Int_Tables_number   1
_chemical_formula_structural   In2Te3
_chemical_formula_sum   'In72 Te108'
_cell_volume   6618.94313717
_cell_formula_units_Z   36
loop_
 _symmetry_equiv_pos_site_id
 _symmetry_equiv_pos_as_xyz
  1  'x, y, z'
loop_
 _atom_site_type_symbol
 _atom_site_label
 _atom_site_symmetry_multiplicity
 _atom_site_fract_x
 _atom_site_fract_y
 _atom_site_fract_z
 _atom_site_occupancy
  In  In0  1  0.83111866  0.82359828  0.33273822  1
  In  In1  1  0.33654356  0.14658111  0.84718681  1
  In  In2  1  0.63879406  -0.00890563  0.36621491  1
  In  In3  1  0.48006806  0.51691665  -0.00763495  1
  In  In4  1  0.19273143  0.32927099  0.84179028  1
  In  In5  1  0.34988605  -0.00048417  0.65673065  1
  In  In6  1  0.81248356  0.67497861  0.50484102  1
  In  In7  1  0.33491326  0.50659677  0.16096509  1
  In  In8  1  0.82028303  0.00243725  0.49056344  1
  In  In9  1  0.63634507  0.81375175  0.86367125  1
  In  In10  1  0.50920396  0.50277856  0.34204512  1
  In  In11  1  -0.01478275  0.83116103  0.49460338  1
  In  In12  1  0.34809959  0.00030819  0.33085716  1
  In  In13  1  -0.00808444  0.34197984  0.66718340  1
  In  In14  1  -0.00060874  -0.00235688  0.67527275  1
  In  In15  1  0.33799479  0.83571704  0.83822396  1
  In  In16  1  0.35398452  0.33298395  0.33267581  1
  In  In17  1  0.66161316  0.50706224  0.82953260  1
  In  In18  1  0.19652322  0.83801885  0.00473831  1
  In  In19  1  0.79326361  0.32497071  0.49207770  1
  In  In20  1  0.83790849  0.00596181  0.15895968  1
  In  In21  1  0.81550853  0.49349999  -0.03260414  1
  In  In22  1  0.49862647  0.67398116  0.47855429  1
  In  In23  1  0.64286821  0.02122064  0.64294152  1
  In  In24  1  0.33586986  0.66276422  0.66601649  1
  In  In25  1  0.65863482  0.48446059  0.18502541  1
  In  In26  1  -0.00961379  0.50656498  0.83038029  1
  In  In27  1  -0.01507828  0.51477436  0.49511723  1
  In  In28  1  0.64714581  0.83746657  0.16998304  1
  In  In29  1  0.17804164  0.53144962  0.34828133  1
  In  In30  1  0.17677311  0.17080340  0.31501583  1
  In  In31  1  0.83325516  0.67601158  0.17583226  1
  In  In32  1  -0.00288827  -0.00728000  0.00604324  1
  In  In33  1  -0.00641344  0.16843215  0.84847311  1
  In  In34  1  0.34070316  0.83008282  0.16109296  1
  In  In35  1  0.00706672  0.83509928  0.81778789  1
  In  In36  1  0.00713229  0.14692709  0.49668194  1
  In  In37  1  0.83548169  0.65758087  0.82849969  1
  In  In38  1  0.18405066  0.81398827  0.68480951  1
  In  In39  1  0.32725902  0.34119348  0.00529918  1
  In  In40  1  0.49191320  0.83362796  0.64566018  1
  In  In41  1  0.00304750  0.49959771  0.16984568  1
  In  In42  1  0.69537600  0.16323160  0.16283897  1
  In  In43  1  0.32979931  0.50267743  0.50137757  1
  In  In44  1  0.18643026  -0.00339117  0.49932283  1
  In  In45  1  0.16274636  0.14406036  0.00500395  1
  In  In46  1  0.66350887  0.34087270  0.65941049  1
  In  In47  1  0.81698056  0.32998520  0.82955663  1
  In  In48  1  0.49899189  0.15380695  0.01331542  1
  In  In49  1  0.16627286  0.17221401  0.68411017  1
  In  In50  1  0.00309400  0.33370650  0.32344635  1
  In  In51  1  0.82394365  0.50126918  0.35500981  1
  In  In52  1  0.17507423  0.65710110  0.15996297  1
  In  In53  1  0.48950702  -0.01118029  0.84154481  1
  In  In54  1  0.17075044  0.32042230  0.15703882  1
  In  In55  1  0.50218206  -0.00367276  0.15587598  1
  In  In56  1  0.51082880  0.19161110  0.35076946  1
  In  In57  1  0.19774098  0.50204301  0.64731918  1
  In  In58  1  0.48260644  0.35738242  0.80427008  1
  In  In59  1  0.50097158  0.67745072  0.17034867  1
  In  In60  1  0.66758017  0.17217379  0.82032544  1
  In  In61  1  0.19002022  0.50331701  -0.00622243  1
  In  In62  1  -0.04777434  0.27252537  0.04208112  1
  In  In63  1  0.82780392  0.15008473  0.32298770  1
  In  In64  1  0.17207479  0.68710146  0.51192481  1
  In  In65  1  0.20215682  0.34938592  0.50597601  1
  In  In66  1  0.66652049  0.31471242  0.00716559  1
  In  In67  1  0.82622337  0.85245648  0.66336946  1
  In  In68  1  0.66433273  0.64349468  0.66670489  1
  In  In69  1  0.81103296  0.84573613  0.00057023  1
  In  In70  1  0.01502281  0.67400958  0.01580646  1
  In  In71  1  0.15601256  0.85944512  0.30324040  1
  Te  Te72  1  0.08493371  0.06329689  0.10856448  1
  Te  Te73  1  0.09504514  0.06971984  0.40104084  1
  Te  Te74  1  0.08922973  0.07593813  0.77209701  1
  Te  Te75  1  0.08857316  0.41826189  0.07264937  1
  Te  Te76  1  0.08745188  0.42191335  0.42023640  1
  Te  Te77  1  0.10020939  0.41305046  0.74986145  1
  Te  Te78  1  0.09310708  0.77148198  0.10047150  1
  Te  Te79  1  0.08862532  0.76125525  0.40819453  1
  Te  Te80  1  0.07869661  0.73022859  0.74371735  1
  Te  Te81  1  0.39744791  0.06660184  0.07655129  1
  Te  Te82  1  0.42257675  0.09239627  0.42790567  1
  Te  Te83  1  0.43570165  0.09191379  0.74267203  1
  Te  Te84  1  0.43087834  0.40980921  0.09440577  1
  Te  Te85  1  0.43264214  0.40548531  0.44134206  1
  Te  Te86  1  0.41752549  0.45119310  0.71360182  1
  Te  Te87  1  0.43510844  0.76253677  0.06409556  1
  Te  Te88  1  0.45330954  0.78126296  0.38612416  1
  Te  Te89  1  0.43165730  0.74621178  0.75401274  1
  Te  Te90  1  0.73842240  0.06166042  0.06474285  1
  Te  Te91  1  0.72603587  0.10370443  0.42687267  1
  Te  Te92  1  0.74537308  0.08310946  0.73012519  1
  Te  Te93  1  0.75389936  0.41492032  0.08227680  1
  Te  Te94  1  0.71268993  0.42004055  0.41163119  1
  Te  Te95  1  0.76041844  0.43549352  0.73808751  1
  Te  Te96  1  0.73315353  0.74299947  0.08223359  1
  Te  Te97  1  0.72904345  0.76175124  0.41878214  1
  Te  Te98  1  0.74245805  0.75588690  0.75241970  1
  Te  Te99  1  0.06535496  0.23462248  0.22611160  1
  Te  Te100  1  0.08814409  0.25408727  0.57468321  1
  Te  Te101  1  0.08996542  0.25868528  0.93056242  1
  Te  Te102  1  0.07256340  0.59943794  0.26063869  1
  Te  Te103  1  0.08376520  0.58695546  0.58671807  1
  Te  Te104  1  0.08995581  0.58852720  0.91352333  1
  Te  Te105  1  0.07853582  0.96171147  0.22873123  1
  Te  Te106  1  0.08796169  0.91131460  0.58506863  1
  Te  Te107  1  0.09168584  0.91379850  0.91549676  1
  Te  Te108  1  0.41585286  0.23385788  0.24403680  1
  Te  Te109  1  0.44292362  0.20653100  0.53938292  1
  Te  Te110  1  0.42682810  0.25542579  0.91785590  1
  Te  Te111  1  0.41115612  0.59023317  0.26160694  1
  Te  Te112  1  0.43495355  0.57991393  0.58387926  1
  Te  Te113  1  0.43629307  0.61843640  0.89612835  1
  Te  Te114  1  0.44004300  0.89889440  0.25826710  1
  Te  Te115  1  0.43432003  0.93450057  0.54968697  1
  Te  Te116  1  0.41626189  0.90959323  0.94166118  1
  Te  Te117  1  0.75225536  0.26368162  0.25994066  1
  Te  Te118  1  0.75506080  0.23633974  0.60367112  1
  Te  Te119  1  0.76348327  0.22771014  0.92874369  1
  Te  Te120  1  0.74053953  0.59090733  0.26130963  1
  Te  Te121  1  0.73560736  0.56194067  0.56508237  1
  Te  Te122  1  0.72572127  0.60880914  0.92423403  1
  Te  Te123  1  0.74047274  0.93072473  0.25899450  1
  Te  Te124  1  0.72523750  0.91168492  0.56665198  1
  Te  Te125  1  0.73193816  0.91977611  0.90123665  1
  Te  Te126  1  0.26662968  0.22772188  0.08613072  1
  Te  Te127  1  0.26492551  0.24129755  0.41958630  1
  Te  Te128  1  0.28241418  0.25029702  0.74686202  1
  Te  Te129  1  0.28033597  0.60762938  0.06032935  1
  Te  Te130  1  0.27725902  0.62065375  0.41950245  1
  Te  Te131  1  0.24541296  0.58867317  0.75659930  1
  Te  Te132  1  0.25543696  0.93598339  0.10084336  1
  Te  Te133  1  0.26085853  0.90004558  0.40952434  1
  Te  Te134  1  0.25103872  0.93255140  0.75211731  1
  Te  Te135  1  0.57601652  0.24629041  0.10716352  1
  Te  Te136  1  0.57636094  0.26270656  0.47521483  1
  Te  Te137  1  0.56474666  0.24895343  0.73669177  1
  Te  Te138  1  0.58367921  0.57662822  0.08796478  1
  Te  Te139  1  0.60193266  0.57483786  0.43391661  1
  Te  Te140  1  0.55879492  0.56980593  0.74362841  1
  Te  Te141  1  0.58704561  0.91833044  0.06216233  1
  Te  Te142  1  0.54374806  0.89965332  0.43671274  1
  Te  Te143  1  0.58408316  0.91163939  0.74412186  1
  Te  Te144  1  0.85008185  0.21999538  0.13624605  1
  Te  Te145  1  0.91943877  0.24851105  0.41985397  1
  Te  Te146  1  0.90804811  0.24019961  0.74363135  1
  Te  Te147  1  0.90917314  0.57457518  0.07084543  1
  Te  Te148  1  0.91594532  0.61371029  0.40510566  1
  Te  Te149  1  0.90670789  0.57362550  0.73021749  1
  Te  Te150  1  0.91981762  0.89319261  0.09532541  1
  Te  Te151  1  0.92122014  0.93163078  0.40135466  1
  Te  Te152  1  0.89936499  0.93327223  0.77126609  1
  Te  Te153  1  0.26045459  0.07604889  0.23752599  1
  Te  Te154  1  0.25808641  0.10077249  0.58343607  1
  Te  Te155  1  0.24723123  0.05666529  0.92088859  1
  Te  Te156  1  0.23749137  0.42108186  0.25422246  1
  Te  Te157  1  0.30415801  0.39058956  0.61434811  1
  Te  Te158  1  0.28688542  0.43854143  0.89421933  1
  Te  Te159  1  0.25335699  0.74671358  0.25541761  1
  Te  Te160  1  0.28169269  0.77440779  0.57500116  1
  Te  Te161  1  0.24573723  0.74030551  0.90525954  1
  Te  Te162  1  0.58249917  0.08383530  0.25703636  1
  Te  Te163  1  0.56339427  0.11142986  0.55343092  1
  Te  Te164  1  0.58881079  0.07984342  0.91529269  1
  Te  Te165  1  0.56931847  0.39439504  0.26028681  1
  Te  Te166  1  0.55991859  0.38781433  0.56318611  1
  Te  Te167  1  0.58243013  0.40851001  0.91889951  1
  Te  Te168  1  0.58826875  0.74497435  0.27167441  1
  Te  Te169  1  0.59527689  0.74614438  0.57671673  1
  Te  Te170  1  0.53920729  0.72630830  0.93714581  1
  Te  Te171  1  0.93333602  0.07029806  0.25543675  1
  Te  Te172  1  0.90580043  0.08353434  0.59045798  1
  Te  Te173  1  0.90634245  0.08516586  0.93337893  1
  Te  Te174  1  0.90108151  0.41830217  0.24822378  1
  Te  Te175  1  0.90043806  0.41350210  0.56956094  1
  Te  Te176  1  0.92676983  0.39779052  0.91926218  1
  Te  Te177  1  0.93223428  0.76094651  0.24377190  1
  Te  Te178  1  0.91561228  0.74636078  0.59878003  1
  Te  Te179  1  0.91707758  0.75014221  0.92250948  1
