# generated using pymatgen
data_In2Te3
_symmetry_space_group_name_H-M   'P 1'
_cell_length_a   18.93432386
_cell_length_b   18.93808926
_cell_length_c   18.94860725
_cell_angle_alpha   90.06305144
_cell_angle_beta   89.84278697
_cell_angle_gamma   90.03775853
_symmetry_Int_Tables_number   1
_chemical_formula_structural   In2Te3
_chemical_formula_sum   'In72 Te108'
_cell_volume   6794.55883064
_cell_formula_units_Z   36
loop_
 _symmetry_equiv_pos_site_id
 _symmetry_equiv_pos_as_xyz
  1  'x, y, z'
loop_
 _atom_site_type_symbol
 _atom_site_label
 _atom_site_symmetry_multiplicity
 _atom_site_fract_x
 _atom_site_fract_y
 _atom_site_fract_z
 _atom_site_occupancy
  In  In0  1  0.65761189  0.51088832  0.47165570  1
  In  In1  1  0.35903994  0.50473497  0.83945016  1
  In  In2  1  0.53483942  0.36472590  0.16638545  1
  In  In3  1  0.83201500  0.17835478  0.30929055  1
  In  In4  1  -0.00509577  0.53123203  0.15160516  1
  In  In5  1  0.36673424  0.33159854  0.33116992  1
  In  In6  1  0.54436530  0.64883284  0.14782453  1
  In  In7  1  0.34587270  0.00049347  0.01087011  1
  In  In8  1  0.33161155  0.35677236  0.70163365  1
  In  In9  1  0.16454876  0.14821118  0.33880258  1
  In  In10  1  -0.03408044  0.48821519  0.84963947  1
  In  In11  1  0.84876707  0.24436603  -0.02246240  1
  In  In12  1  0.16281571  -0.00646853  0.18340526  1
  In  In13  1  0.83811863  0.81614355  0.31701204  1
  In  In14  1  0.81472401  0.63603735  0.16648179  1
  In  In15  1  0.69699409  0.01377982  0.70618819  1
  In  In16  1  0.01343981  -0.01464410  0.34226020  1
  In  In17  1  0.35471530  0.83799894  0.17611639  1
  In  In18  1  0.14647007  0.49629669  0.69173922  1
  In  In19  1  0.12335329  0.14959100  0.66771733  1
  In  In20  1  0.14983533  0.51168155  -0.02463454  1
  In  In21  1  0.15072345  0.68030106  0.14706215  1
  In  In22  1  0.81211947  0.50243696  0.66837531  1
  In  In23  1  0.32819727  0.65706933  0.00521860  1
  In  In24  1  0.30595784  0.66947305  0.65243703  1
  In  In25  1  0.33168727  0.17689883  0.83151444  1
  In  In26  1  0.93029145  0.83558129  0.65400874  1
  In  In27  1  0.67961016  0.19544167  0.15027225  1
  In  In28  1  0.85640061  0.01377699  0.53057383  1
  In  In29  1  0.64608320  0.17664297  0.49782631  1
  In  In30  1  0.47086783  -0.03182771  0.51865832  1
  In  In31  1  0.15495605  0.31138124  0.52066792  1
  In  In32  1  0.82138101  0.38749171  0.15405707  1
  In  In33  1  0.00298289  0.33795907  0.34350996  1
  In  In34  1  0.51244853  0.15696069  0.67439197  1
  In  In35  1  0.12344575  -0.06026759  0.86754938  1
  In  In36  1  0.63954692  0.66628371  0.66894682  1
  In  In37  1  0.14811010  0.68803413  0.50240239  1
  In  In38  1  0.70973709  0.46119606  0.88472827  1
  In  In39  1  0.14015527  0.83663146  -0.01272592  1
  In  In40  1  0.50097554  0.68513677  0.48818360  1
  In  In41  1  0.32341897  0.16033407  0.51260943  1
  In  In42  1  0.84800321  0.68755862  0.83438534  1
  In  In43  1  0.51200807  0.02125988  0.84098113  1
  In  In44  1  0.15544811  0.51387582  0.32017413  1
  In  In45  1  0.34205969  0.15820222  0.14689976  1
  In  In46  1  0.68939639  0.82773951  0.48897998  1
  In  In47  1  0.51136944  0.66405471  0.84174594  1
  In  In48  1  0.48905524  0.50066800  0.68540895  1
  In  In49  1  0.33235188  0.48832017  0.47721569  1
  In  In50  1  0.49481681  0.33195117  0.49860538  1
  In  In51  1  0.69166032  -0.00230861  0.32942724  1
  In  In52  1  0.51916038  0.16481829  0.34723953  1
  In  In53  1  0.68907504  -0.01739668  -0.00727275  1
  In  In54  1  0.53210560  0.83086162  -0.01490150  1
  In  In55  1  0.16198339  0.16137536  -0.02207022  1
  In  In56  1  0.66404551  0.33093380  0.69288585  1
  In  In57  1  0.36758411  0.65822005  0.31758645  1
  In  In58  1  0.15449387  0.82468103  0.34401794  1
  In  In59  1  0.00585144  -0.01366390  0.00007523  1
  In  In60  1  0.85591372  -0.00922108  0.16531901  1
  In  In61  1  0.67848071  0.84258054  0.82514726  1
  In  In62  1  0.81385476  0.34048712  0.49392618  1
  In  In63  1  0.37316650  0.32880747  0.01121544  1
  In  In64  1  0.15048418  0.35725197  0.83864810  1
  In  In65  1  0.16789302  0.34600684  0.17879701  1
  In  In66  1  0.14000881  0.81388183  0.67254151  1
  In  In67  1  0.50821924  0.83233646  0.30955161  1
  In  In68  1  -0.00422764  0.16458022  0.84087110  1
  In  In69  1  0.15355536  -0.01897872  0.50859484  1
  In  In70  1  -0.02278939  0.53164526  0.48862617  1
  In  In71  1  0.32709834  0.81621481  0.81915864  1
  Te  Te72  1  0.08787182  0.08245301  0.08634320  1
  Te  Te73  1  0.06993926  0.08961650  0.43939548  1
  Te  Te74  1  0.07544602  0.05508447  0.77403810  1
  Te  Te75  1  0.08166884  0.42568008  0.08313171  1
  Te  Te76  1  0.09564431  0.42704238  0.43083255  1
  Te  Te77  1  0.04342113  0.39994682  0.74221819  1
  Te  Te78  1  0.05564595  0.72980750  0.04661815  1
  Te  Te79  1  0.04720569  0.77157503  0.43409690  1
  Te  Te80  1  0.07415427  0.72765232  0.77130406  1
  Te  Te81  1  0.44655036  0.09053669  0.06762661  1
  Te  Te82  1  0.41832307  0.08134943  0.42517666  1
  Te  Te83  1  0.40532169  0.07513535  0.74341707  1
  Te  Te84  1  0.41665270  0.43149464  0.10615110  1
  Te  Te85  1  0.45020121  0.44052111  0.39573609  1
  Te  Te86  1  0.44960374  0.39312477  0.78750752  1
  Te  Te87  1  0.42670420  0.75442139  0.07141430  1
  Te  Te88  1  0.40737114  0.77280013  0.40709209  1
  Te  Te89  1  0.42153832  0.72822891  0.73921718  1
  Te  Te90  1  0.75969297  0.08095969  0.08939813  1
  Te  Te91  1  0.75647506  0.10017200  0.42336962  1
  Te  Te92  1  0.76256405  0.12641193  0.77666117  1
  Te  Te93  1  0.71932103  0.41524510  0.04155169  1
  Te  Te94  1  0.77316029  0.44829916  0.39863106  1
  Te  Te95  1  0.78057220  0.39175936  0.76831600  1
  Te  Te96  1  0.68855802  0.69992265  0.10972905  1
  Te  Te97  1  0.74990572  0.72635648  0.39939730  1
  Te  Te98  1  0.75184272  0.74819213  0.73095444  1
  Te  Te99  1  0.08339197  0.24398576  0.25308556  1
  Te  Te100  1  0.04438045  0.24667449  0.59054666  1
  Te  Te101  1  0.06730178  0.27018851  0.93187255  1
  Te  Te102  1  0.06687824  0.61789411  0.26004381  1
  Te  Te103  1  0.07677690  0.58793219  0.59068827  1
  Te  Te104  1  0.06406308  0.59405034  0.88874923  1
  Te  Te105  1  0.06715669  0.88915161  0.23542322  1
  Te  Te106  1  0.05035202  0.91391132  0.60268696  1
  Te  Te107  1  0.00092111  0.84015510  0.84701255  1
  Te  Te108  1  0.44057175  0.24183268  0.23474944  1
  Te  Te109  1  0.40389165  0.26033884  0.59794353  1
  Te  Te110  1  0.42976347  0.21783719  0.93329024  1
  Te  Te111  1  0.42576734  0.57872306  0.20972661  1
  Te  Te112  1  0.41377944  0.57922413  0.57780522  1
  Te  Te113  1  0.44269895  0.57530234  0.94402238  1
  Te  Te114  1  0.43906253  0.93979194  0.23672228  1
  Te  Te115  1  0.37513935  0.88877461  0.59081943  1
  Te  Te116  1  0.41754550  0.90530322  0.90527064  1
  Te  Te117  1  0.74793841  0.28781869  0.24966843  1
  Te  Te118  1  0.74185099  0.24676289  0.59142381  1
  Te  Te119  1  0.72677589  0.21484088  0.90057307  1
  Te  Te120  1  0.75327891  0.54166127  0.26508798  1
  Te  Te121  1  0.73342757  0.59318595  0.57536968  1
  Te  Te122  1  0.78679914  0.58208661  0.92628968  1
  Te  Te123  1  0.74825663  0.90258381  0.22758368  1
  Te  Te124  1  0.75065818  0.92578907  0.59390915  1
  Te  Te125  1  0.78268028  0.93109334  0.88546064  1
  Te  Te126  1  0.24193405  0.25160133  0.07910472  1
  Te  Te127  1  0.25536807  0.26004044  0.41042106  1
  Te  Te128  1  0.22458637  0.25245391  0.74659942  1
  Te  Te129  1  0.23620297  0.56936702  0.08781822  1
  Te  Te130  1  0.24883223  0.60095424  0.41679414  1
  Te  Te131  1  0.25139924  0.58043459  0.76361482  1
  Te  Te132  1  0.24436473  0.90654523  0.08049528  1
  Te  Te133  1  0.23755033  0.93136421  0.39922228  1
  Te  Te134  1  0.22723916  0.90786840  0.75613303  1
  Te  Te135  1  0.59017208  0.27403840  0.06023533  1
  Te  Te136  1  0.60035932  0.28262933  0.39958499  1
  Te  Te137  1  0.57623714  0.24416877  0.77226104  1
  Te  Te138  1  0.63533226  0.54467329  0.08009472  1
  Te  Te139  1  0.57686896  0.60460297  0.39263743  1
  Te  Te140  1  0.60185532  0.55838500  0.77016733  1
  Te  Te141  1  0.58963548  0.92093479  0.08307301  1
  Te  Te142  1  0.58950752  0.92202397  0.41311582  1
  Te  Te143  1  0.57808583  0.92389585  0.74538448  1
  Te  Te144  1  0.90311550  0.27186537  0.11184371  1
  Te  Te145  1  0.91007136  0.24683694  0.42122512  1
  Te  Te146  1  0.89473955  0.20739516  0.74223000  1
  Te  Te147  1  0.88754095  0.56453677  0.05429016  1
  Te  Te148  1  0.89075500  0.63590044  0.43089190  1
  Te  Te149  1  0.91387414  0.58743133  0.73990927  1
  Te  Te150  1  0.90929622  0.89344783  0.06506544  1
  Te  Te151  1  0.89446891  0.92603516  0.41328676  1
  Te  Te152  1  0.89182784  0.92236464  0.76641004  1
  Te  Te153  1  0.26875738  0.07684498  0.25355907  1
  Te  Te154  1  0.23780465  0.07233312  0.59907235  1
  Te  Te155  1  0.25301284  0.06378239  0.90734793  1
  Te  Te156  1  0.26510202  0.42614376  0.26200720  1
  Te  Te157  1  0.24821009  0.42353973  0.58941477  1
  Te  Te158  1  0.26588524  0.40958966  0.92366050  1
  Te  Te159  1  0.25430016  0.74445926  0.24395320  1
  Te  Te160  1  0.25763335  0.78513757  0.56549782  1
  Te  Te161  1  0.23912854  0.73976278  0.91624480  1
  Te  Te162  1  0.60900291  0.09531070  0.24766785  1
  Te  Te163  1  0.58189143  0.06440889  0.57687471  1
  Te  Te164  1  0.61611003  0.09172836  0.91816131  1
  Te  Te165  1  0.61956249  0.47342078  0.22335520  1
  Te  Te166  1  0.58292904  0.41939081  0.58807983  1
  Te  Te167  1  0.59129737  0.40494565  0.95324664  1
  Te  Te168  1  0.60898716  0.74437841  0.24505291  1
  Te  Te169  1  0.57856448  0.77433686  0.58164633  1
  Te  Te170  1  0.62430847  0.73216749  0.91607687  1
  Te  Te171  1  0.93701593  0.08398229  0.25249483  1
  Te  Te172  1  0.91611613  0.10558288  0.62563410  1
  Te  Te173  1  0.91797335  0.09719300  0.95068006  1
  Te  Te174  1  0.93227560  0.43571559  0.25501091  1
  Te  Te175  1  0.90837697  0.42785869  0.57562963  1
  Te  Te176  1  0.91730331  0.37414717  0.92849850  1
  Te  Te177  1  0.91115225  0.73634089  0.21741200  1
  Te  Te178  1  0.91942363  0.74023828  0.54325451  1
  Te  Te179  1  0.90227192  0.76892683  0.94720689  1
