# generated using pymatgen
data_In2Te3
_symmetry_space_group_name_H-M   'P 1'
_cell_length_a   18.90134346
_cell_length_b   18.89564842
_cell_length_c   18.87535130
_cell_angle_alpha   89.96401957
_cell_angle_beta   90.13851375
_cell_angle_gamma   90.05150672
_symmetry_Int_Tables_number   1
_chemical_formula_structural   In2Te3
_chemical_formula_sum   'In72 Te108'
_cell_volume   6741.36725363
_cell_formula_units_Z   36
loop_
 _symmetry_equiv_pos_site_id
 _symmetry_equiv_pos_as_xyz
  1  'x, y, z'
loop_
 _atom_site_type_symbol
 _atom_site_label
 _atom_site_symmetry_multiplicity
 _atom_site_fract_x
 _atom_site_fract_y
 _atom_site_fract_z
 _atom_site_occupancy
  In  In0  1  0.13294773  0.68201929  0.82793782  1
  In  In1  1  0.83433841  0.49616811  0.34816946  1
  In  In2  1  0.00008924  0.15494186  0.82388804  1
  In  In3  1  0.67928641  -0.00216288  0.65506208  1
  In  In4  1  0.17635133  0.51061212  0.65587992  1
  In  In5  1  0.68385191  0.84456326  0.14572839  1
  In  In6  1  0.21855843  0.31757907  0.79031277  1
  In  In7  1  -0.03765559  0.86047122  0.13262917  1
  In  In8  1  0.36365438  0.44456078  0.51905823  1
  In  In9  1  0.84028993  0.14806429  0.34650161  1
  In  In10  1  0.34415393  0.31353092  -0.02956674  1
  In  In11  1  0.35085382  0.64989349  0.33409107  1
  In  In12  1  -0.01007267  0.50901863  0.49562627  1
  In  In13  1  0.01295556  0.14846331  0.20256833  1
  In  In14  1  0.36002978  0.17898115  0.52695086  1
  In  In15  1  0.00777101  0.34999688  0.64525771  1
  In  In16  1  0.51187002  0.63465705  0.82022183  1
  In  In17  1  0.01625932  -0.02022489  0.63309947  1
  In  In18  1  0.16386966  0.66021854  0.48150769  1
  In  In19  1  0.69193907  0.64863625  -0.04696749  1
  In  In20  1  0.64887183  0.35063300  -0.02568515  1
  In  In21  1  0.17720083  0.81840573  0.37908117  1
  In  In22  1  0.53756350  0.81825215  0.37081890  1
  In  In23  1  0.50062431  0.81166087  0.00215989  1
  In  In24  1  0.67956255  0.15384648  0.16206100  1
  In  In25  1  0.51936290  0.06002615  0.78256673  1
  In  In26  1  0.49899789  -0.01641405  0.17995349  1
  In  In27  1  0.01154055  0.16975111  0.50168426  1
  In  In28  1  -0.04760762  0.70128983  0.66948741  1
  In  In29  1  0.13655859  0.65777242  0.15671782  1
  In  In30  1  0.85045615  0.15706496  0.66672656  1
  In  In31  1  0.15390236  -0.01184009  0.18233250  1
  In  In32  1  0.68410302  -0.00323885  0.37013435  1
  In  In33  1  0.34656839  -0.00974264  -0.00517779  1
  In  In34  1  -0.01237817  0.85688005  0.83545553  1
  In  In35  1  -0.00759809  0.51377004  0.83188774  1
  In  In36  1  0.20626814  0.15873812  0.36444951  1
  In  In37  1  0.64650576  0.50093264  0.15341106  1
  In  In38  1  0.80998531  0.16648021  -0.00678442  1
  In  In39  1  0.35548165  0.47769959  0.81957161  1
  In  In40  1  0.31007307  0.85169041  0.18850403  1
  In  In41  1  0.82417668  0.34733343  0.50409729  1
  In  In42  1  -0.01787744  0.68194159  -0.02088687  1
  In  In43  1  0.16271828  0.14865005  0.00519054  1
  In  In44  1  0.18834632  0.33198497  0.16987307  1
  In  In45  1  0.34803835  0.02933259  0.34682604  1
  In  In46  1  0.00949726  0.51296845  0.16501760  1
  In  In47  1  -0.02463234  0.71272559  0.34661826  1
  In  In48  1  0.00355660  0.30743250  -0.00454360  1
  In  In49  1  0.50233714  0.85426292  0.66699887  1
  In  In50  1  0.50149997  0.48066209  0.34090420  1
  In  In51  1  0.31508640  0.84466733  0.81148568  1
  In  In52  1  0.80583270  0.32582781  0.13701503  1
  In  In53  1  0.33157804  0.85333676  0.53110742  1
  In  In54  1  0.49114333  0.15674931  -0.01200642  1
  In  In55  1  0.49957756  0.47343113  -0.01390767  1
  In  In56  1  0.62971880  0.20490778  0.53713946  1
  In  In57  1  0.81303737  0.00363186  0.84373592  1
  In  In58  1  0.81672443  0.37213513  0.81580777  1
  In  In59  1  0.64874798  0.48684758  0.52381229  1
  In  In60  1  0.01277275  0.37333699  0.33652211  1
  In  In61  1  0.71202948  0.70526423  0.67406963  1
  In  In62  1  0.84873025  0.65998080  0.17114292  1
  In  In63  1  0.49226276  0.65971472  0.17735660  1
  In  In64  1  -0.01602626  -0.03380234  0.35552371  1
  In  In65  1  0.29061147  0.65547740  0.00524680  1
  In  In66  1  0.34225207  0.64607600  0.65177393  1
  In  In67  1  0.17427262  0.00847439  0.81138698  1
  In  In68  1  0.48411384  0.30186145  0.18550244  1
  In  In69  1  0.50104802  0.65464554  0.52441079  1
  In  In70  1  0.18704540  0.49516475  0.32392362  1
  In  In71  1  0.69528702  0.69413550  0.36155604  1
  Te  Te72  1  0.06417708  0.06449268  0.08584925  1
  Te  Te73  1  0.07982466  0.08196978  0.39883564  1
  Te  Te74  1  0.08372583  0.09184402  0.71673176  1
  Te  Te75  1  0.08338630  0.40368519  0.08564239  1
  Te  Te76  1  0.10761139  0.43017808  0.43999191  1
  Te  Te77  1  0.08885570  0.42159287  0.75510502  1
  Te  Te78  1  0.06729030  0.76460431  0.07571606  1
  Te  Te79  1  0.05424551  0.77289378  0.46647790  1
  Te  Te80  1  0.07078950  0.77665430  0.72827289  1
  Te  Te81  1  0.41504051  0.08012374  0.09667544  1
  Te  Te82  1  0.45213022  0.12336248  0.40876793  1
  Te  Te83  1  0.37975471  0.07484120  0.73397054  1
  Te  Te84  1  0.41437129  0.39464363  0.08137058  1
  Te  Te85  1  0.45935081  0.36748208  0.43137219  1
  Te  Te86  1  0.41857608  0.35900969  0.75846221  1
  Te  Te87  1  0.39600527  0.75389018  0.09866407  1
  Te  Te88  1  0.40785519  0.74884516  0.43643153  1
  Te  Te89  1  0.41895391  0.74062463  0.74428100  1
  Te  Te90  1  0.76069375  0.06054484  0.08190419  1
  Te  Te91  1  0.73444009  0.11843799  0.44700258  1
  Te  Te92  1  0.73936337  0.10152438  0.75321275  1
  Te  Te93  1  0.74484792  0.43899029  0.05572503  1
  Te  Te94  1  0.72445310  0.41213297  0.41013283  1
  Te  Te95  1  0.71211371  0.45612350  0.75101690  1
  Te  Te96  1  0.74996137  0.72618831  0.07339131  1
  Te  Te97  1  0.76626176  0.79791880  0.44407941  1
  Te  Te98  1  0.76863694  0.78906883  0.78698444  1
  Te  Te99  1  0.09177135  0.26060126  0.27033957  1
  Te  Te100  1  0.09942643  0.25491862  0.58240369  1
  Te  Te101  1  0.10525548  0.24655832  0.89868076  1
  Te  Te102  1  0.06372956  0.59532474  0.28405859  1
  Te  Te103  1  0.06754443  0.59877602  0.59444724  1
  Te  Te104  1  0.08733431  0.58034823  0.93194918  1
  Te  Te105  1  0.08795944  0.88646686  0.27092672  1
  Te  Te106  1  0.09322537  0.91242684  0.52886938  1
  Te  Te107  1  0.08922155  0.93538424  0.90773675  1
  Te  Te108  1  0.42437013  0.20762619  0.27918702  1
  Te  Te109  1  0.44183849  0.26939587  0.62703008  1
  Te  Te110  1  0.44611582  0.25295151  0.88049997  1
  Te  Te111  1  0.40937611  0.54770516  0.23686086  1
  Te  Te112  1  0.44214673  0.54116328  0.60858679  1
  Te  Te113  1  0.40305595  0.58999110  0.92569896  1
  Te  Te114  1  0.41785800  0.90119817  0.28425232  1
  Te  Te115  1  0.44189545  0.94589459  0.56574461  1
  Te  Te116  1  0.42461681  0.90126605  0.90126040  1
  Te  Te117  1  0.75862036  0.24515362  0.25707907  1
  Te  Te118  1  0.75780976  0.26291312  0.60897457  1
  Te  Te119  1  0.74386856  0.26056937  0.89570378  1
  Te  Te120  1  0.74324520  0.57813815  0.24926332  1
  Te  Te121  1  0.73672428  0.59538055  0.56708025  1
  Te  Te122  1  0.76205049  0.55432272  0.85912975  1
  Te  Te123  1  0.74612152  0.92050910  0.25674698  1
  Te  Te124  1  0.76142945  0.90402821  0.57087054  1
  Te  Te125  1  0.76206397  0.88202638  0.91614572  1
  Te  Te126  1  0.26277315  0.23736813  0.07824192  1
  Te  Te127  1  0.26225440  0.26282206  0.45051005  1
  Te  Te128  1  0.27554529  0.19257003  0.73256897  1
  Te  Te129  1  0.23557707  0.56329828  0.10492327  1
  Te  Te130  1  0.27999717  0.56350059  0.44029812  1
  Te  Te131  1  0.24688622  0.59360735  0.76485319  1
  Te  Te132  1  0.23799271  0.91678139  0.07284968  1
  Te  Te133  1  0.25349744  0.94155374  0.43122914  1
  Te  Te134  1  0.24080822  0.92039825  0.71060420  1
  Te  Te135  1  0.58977874  0.25042191  0.07602312  1
  Te  Te136  1  0.55686932  0.24482179  0.41025056  1
  Te  Te137  1  0.57573904  0.24682890  0.69013927  1
  Te  Te138  1  0.57196208  0.59714751  0.06247818  1
  Te  Te139  1  0.57807350  0.59551820  0.40561919  1
  Te  Te140  1  0.61341332  0.59882929  0.71738970  1
  Te  Te141  1  0.58094980  0.92477508  0.06520961  1
  Te  Te142  1  0.57216353  0.93713244  0.44963195  1
  Te  Te143  1  0.59282004  0.92707902  0.76408961  1
  Te  Te144  1  0.92308491  0.23283393  0.10294465  1
  Te  Te145  1  0.92343687  0.27270761  0.41498964  1
  Te  Te146  1  0.92282381  0.26662352  0.75328247  1
  Te  Te147  1  0.91232606  0.57468744  0.06338989  1
  Te  Te148  1  0.89612130  0.60928687  0.42893115  1
  Te  Te149  1  0.89276276  0.59159372  0.75260518  1
  Te  Te150  1  0.85892187  0.90192467  0.03977072  1
  Te  Te151  1  0.87258732  0.91265417  0.43925573  1
  Te  Te152  1  0.91098293  0.94775226  0.74108328  1
  Te  Te153  1  0.25393360  0.08721653  0.23883182  1
  Te  Te154  1  0.27734533  0.08708013  0.61308324  1
  Te  Te155  1  0.26639183  0.08807417  0.91227812  1
  Te  Te156  1  0.27512673  0.39019757  0.27426856  1
  Te  Te157  1  0.26553201  0.39886717  0.62174666  1
  Te  Te158  1  0.25024911  0.41630360  0.90934510  1
  Te  Te159  1  0.24152875  0.72969737  0.26215536  1
  Te  Te160  1  0.24393192  0.74042679  0.58609482  1
  Te  Te161  1  0.23339178  0.76151557  0.91348414  1
  Te  Te162  1  0.60016364  0.06592620  0.25652857  1
  Te  Te163  1  0.56735373  0.08511460  0.60553888  1
  Te  Te164  1  0.59120234  0.08367440  0.90990316  1
  Te  Te165  1  0.58987134  0.39674469  0.24641467  1
  Te  Te166  1  0.58491071  0.37375728  0.59739467  1
  Te  Te167  1  0.58002937  0.43215657  0.86947979  1
  Te  Te168  1  0.59262216  0.75440690  0.24147041  1
  Te  Te169  1  0.59014090  0.75910118  0.58812592  1
  Te  Te170  1  0.58763050  0.74478429  0.89570601  1
  Te  Te171  1  0.90693857  0.05087843  0.25081971  1
  Te  Te172  1  0.91227749  0.07136387  0.55968631  1
  Te  Te173  1  0.91940665  0.08209494  0.92696454  1
  Te  Te174  1  0.90241326  0.41654963  0.23131315  1
  Te  Te175  1  0.89701646  0.44302420  0.59746247  1
  Te  Te176  1  0.91914671  0.41093230  0.92251401  1
  Te  Te177  1  0.88909418  0.78646817  0.24544860  1
  Te  Te178  1  0.87346102  0.79438491  0.58316371  1
  Te  Te179  1  0.88979170  0.74589619  0.87867404  1
