# generated using pymatgen
data_In2Te3
_symmetry_space_group_name_H-M   'P 1'
_cell_length_a   18.94331575
_cell_length_b   18.92769613
_cell_length_c   18.92810417
_cell_angle_alpha   89.88832604
_cell_angle_beta   90.00870931
_cell_angle_gamma   89.73237124
_symmetry_Int_Tables_number   1
_chemical_formula_structural   In2Te3
_chemical_formula_sum   'In72 Te108'
_cell_volume   6786.64765514
_cell_formula_units_Z   36
loop_
 _symmetry_equiv_pos_site_id
 _symmetry_equiv_pos_as_xyz
  1  'x, y, z'
loop_
 _atom_site_type_symbol
 _atom_site_label
 _atom_site_symmetry_multiplicity
 _atom_site_fract_x
 _atom_site_fract_y
 _atom_site_fract_z
 _atom_site_occupancy
  In  In0  1  0.84702062  0.31532932  0.15341287  1
  In  In1  1  0.64982338  -0.00585557  0.34407082  1
  In  In2  1  0.17622764  0.31772510  0.48988073  1
  In  In3  1  0.52392930  0.34194899  0.52000695  1
  In  In4  1  0.17262908  0.15263867  0.66053143  1
  In  In5  1  0.34500307  0.53120490  0.20769265  1
  In  In6  1  0.63792768  0.68866023  0.34783866  1
  In  In7  1  0.85362092  0.86357321  -0.02201704  1
  In  In8  1  0.02234073  0.85776799  0.16672348  1
  In  In9  1  0.29494971  0.85777471  0.15006300  1
  In  In10  1  -0.00559959  0.15405558  0.49619447  1
  In  In11  1  0.34819425  0.48811171  0.49278342  1
  In  In12  1  -0.02274399  0.83831232  0.50679530  1
  In  In13  1  0.19123805  0.66895663  0.52574973  1
  In  In14  1  0.66960437  0.16994840  0.15086020  1
  In  In15  1  0.02058223  0.02254667  0.00917132  1
  In  In16  1  0.48922828  0.17259890  0.64762692  1
  In  In17  1  0.17194600  0.47109482  0.34852016  1
  In  In18  1  0.65561983  0.49197862  0.81271975  1
  In  In19  1  0.83167224  0.44350312  -0.01365081  1
  In  In20  1  0.48963620  0.17347526  0.35808991  1
  In  In21  1  0.83181509  0.67792516  0.51617017  1
  In  In22  1  0.84158628  0.35137157  0.82314789  1
  In  In23  1  -0.00676380  0.48707985  0.85024195  1
  In  In24  1  0.02223124  0.90759817  0.78119579  1
  In  In25  1  0.83147420  0.16683438  0.32826069  1
  In  In26  1  0.29838588  0.13217171  0.84747247  1
  In  In27  1  0.64961770  0.85692457  0.49861991  1
  In  In28  1  0.15748173  0.27280931  0.18663039  1
  In  In29  1  0.15027015  0.68143816  0.16709337  1
  In  In30  1  0.82360166  0.47611965  0.35181804  1
  In  In31  1  0.31759025  0.31538209  0.66427091  1
  In  In32  1  0.66372472  0.62776106  0.02679836  1
  In  In33  1  0.33423630  0.33368393  0.00691292  1
  In  In34  1  0.47280176  0.67367228  0.50582163  1
  In  In35  1  0.00403338  0.35768982  0.68451470  1
  In  In36  1  0.17552622  0.66475539  0.82544310  1
  In  In37  1  0.84008194  0.67081167  0.84205506  1
  In  In38  1  0.03450790  0.49395772  0.50643286  1
  In  In39  1  0.18160423  0.01136959  0.48864748  1
  In  In40  1  0.79266605  0.32781859  0.51837295  1
  In  In41  1  0.18646211  0.83691867  0.34393746  1
  In  In42  1  0.32827921  0.86506253  0.82076012  1
  In  In43  1  0.85038658  0.86339954  0.33518544  1
  In  In44  1  0.84442158  0.17724708  0.00012887  1
  In  In45  1  0.80142831  0.67283994  0.17606652  1
  In  In46  1  0.46915724  0.68407636  0.83108895  1
  In  In47  1  0.49025796  -0.01162204  0.15846160  1
  In  In48  1  0.32346060  0.15098653  0.18073762  1
  In  In49  1  0.66656349  0.65862357  0.66877965  1
  In  In50  1  0.33535402  0.51318015  0.81368085  1
  In  In51  1  0.66284906  0.84565998  0.84457596  1
  In  In52  1  0.51162278  0.82921461  0.00200458  1
  In  In53  1  0.81497847  0.49946912  0.67587788  1
  In  In54  1  0.51136019  0.15631414  -0.00729564  1
  In  In55  1  0.82888290  0.15138723  0.65441695  1
  In  In56  1  0.66640128  0.00079132  0.65885801  1
  In  In57  1  0.34854110  0.67265500  -0.00197140  1
  In  In58  1  0.33531552  0.32586623  0.33848587  1
  In  In59  1  0.84184489  0.00049984  0.50079195  1
  In  In60  1  0.04887771  0.14893578  0.83698470  1
  In  In61  1  0.17010376  0.47998199  0.01380646  1
  In  In62  1  0.00883371  0.68066030  0.03286744  1
  In  In63  1  0.50075653  0.01032286  0.82149734  1
  In  In64  1  0.46112323  -0.01725055  0.51277042  1
  In  In65  1  0.53950660  0.48342487  0.06541118  1
  In  In66  1  0.00171091  0.66681656  0.33411794  1
  In  In67  1  0.50664592  0.31882341  0.81990666  1
  In  In68  1  -0.00812472  0.48700443  0.14499709  1
  In  In69  1  0.68481115  0.83938191  0.16554182  1
  In  In70  1  0.18138143  0.82877304  0.65812398  1
  In  In71  1  0.68794592  0.33740305  0.01516448  1
  Te  Te72  1  0.12429119  0.04528935  0.12105761  1
  Te  Te73  1  0.10453721  0.11274358  0.40632379  1
  Te  Te74  1  0.09952359  0.04607053  0.73953867  1
  Te  Te75  1  0.08956757  0.38324838  0.09761397  1
  Te  Te76  1  0.06317119  0.38483820  0.40528093  1
  Te  Te77  1  0.09815689  0.43924479  0.75951755  1
  Te  Te78  1  0.11130200  0.78769073  0.06538206  1
  Te  Te79  1  0.08549277  0.74966187  0.42692445  1
  Te  Te80  1  0.08421011  0.76345852  0.75522019  1
  Te  Te81  1  0.40657277  0.08059195  0.07064030  1
  Te  Te82  1  0.39751316  0.07342516  0.41311202  1
  Te  Te83  1  0.39850462  0.08910686  0.74115579  1
  Te  Te84  1  0.40019762  0.43343177  0.09948662  1
  Te  Te85  1  0.44160811  0.41092013  0.40278374  1
  Te  Te86  1  0.41473214  0.40626692  0.73644969  1
  Te  Te87  1  0.41274126  0.76589324  0.09725254  1
  Te  Te88  1  0.41295659  0.72632067  0.38182007  1
  Te  Te89  1  0.41281385  0.77810968  0.73091766  1
  Te  Te90  1  0.75581590  0.08500300  0.07050320  1
  Te  Te91  1  0.74245083  0.08423088  0.42321352  1
  Te  Te92  1  0.75649975  0.06884095  0.75391261  1
  Te  Te93  1  0.75036206  0.43417676  0.11492328  1
  Te  Te94  1  0.71479551  0.40452436  0.41892060  1
  Te  Te95  1  0.71743892  0.38607339  0.72062705  1
  Te  Te96  1  0.75841698  0.75736903  0.05446691  1
  Te  Te97  1  0.76094457  0.76999590  0.41282865  1
  Te  Te98  1  0.74864355  0.75312671  0.75403529  1
  Te  Te99  1  0.03699237  0.21438961  0.25136536  1
  Te  Te100  1  0.07445389  0.25291666  0.59052867  1
  Te  Te101  1  0.07678525  0.26293230  0.91961880  1
  Te  Te102  1  0.08207881  0.57002419  0.24826525  1
  Te  Te103  1  0.07987580  0.60167790  0.59254144  1
  Te  Te104  1  0.08351778  0.58459139  0.93646337  1
  Te  Te105  1  0.10612283  0.93599480  0.26139994  1
  Te  Te106  1  0.09153800  0.91429750  0.56720875  1
  Te  Te107  1  0.08627962  0.92505319  0.91480176  1
  Te  Te108  1  0.42275431  0.24992738  0.23947454  1
  Te  Te109  1  0.40003004  0.25389224  0.55499978  1
  Te  Te110  1  0.40487954  0.23970345  0.90626512  1
  Te  Te111  1  0.43527605  0.59714416  0.31382754  1
  Te  Te112  1  0.39921031  0.58062350  0.59513581  1
  Te  Te113  1  0.42711927  0.56725826  0.92241266  1
  Te  Te114  1  0.38265059  0.93257068  0.24180806  1
  Te  Te115  1  0.40130733  0.87768863  0.59744014  1
  Te  Te116  1  0.42362230  0.92519711  0.92260791  1
  Te  Te117  1  0.74106249  0.26086938  0.24810943  1
  Te  Te118  1  0.71988357  0.21995251  0.58423792  1
  Te  Te119  1  0.75238536  0.25822939  0.90366808  1
  Te  Te120  1  0.74328702  0.59019208  0.28457735  1
  Te  Te121  1  0.73656053  0.57138013  0.56576378  1
  Te  Te122  1  0.75943734  0.55863517  0.90843901  1
  Te  Te123  1  0.75870500  0.94540259  0.24762680  1
  Te  Te124  1  0.76435241  0.90218962  0.58724757  1
  Te  Te125  1  0.76398970  0.94095761  0.89073192  1
  Te  Te126  1  0.24542728  0.22780817  0.06958250  1
  Te  Te127  1  0.23237696  0.22927623  0.38589626  1
  Te  Te128  1  0.23046010  0.24521244  0.76701481  1
  Te  Te129  1  0.24782138  0.59196795  0.08301216  1
  Te  Te130  1  0.24871277  0.58017454  0.41533274  1
  Te  Te131  1  0.26605650  0.60748658  0.72336100  1
  Te  Te132  1  0.24025035  0.95995255  0.05365179  1
  Te  Te133  1  0.27996674  0.92461509  0.41598433  1
  Te  Te134  1  0.23676087  0.94367075  0.73509240  1
  Te  Te135  1  0.57075569  0.26332469  0.08166314  1
  Te  Te136  1  0.59353322  0.25546689  0.41946199  1
  Te  Te137  1  0.58134812  0.20895282  0.75756320  1
  Te  Te138  1  0.56868681  0.61426246  0.14301317  1
  Te  Te139  1  0.56722114  0.58519295  0.42620182  1
  Te  Te140  1  0.55873587  0.58716440  0.74739059  1
  Te  Te141  1  0.60184623  0.92853247  0.07154510  1
  Te  Te142  1  0.54306890  0.90443180  0.40302884  1
  Te  Te143  1  0.57472928  0.90749798  0.73748050  1
  Te  Te144  1  0.94744648  0.21360732  0.10554931  1
  Te  Te145  1  0.89838153  0.25286042  0.43357491  1
  Te  Te146  1  0.91670660  0.24806269  0.74075752  1
  Te  Te147  1  0.89786315  0.58955892  0.08268248  1
  Te  Te148  1  0.91939819  0.57974180  0.42536725  1
  Te  Te149  1  0.91997290  0.57873033  0.75129062  1
  Te  Te150  1  0.91790160  0.93889243  0.09225993  1
  Te  Te151  1  0.94839791  0.95242169  0.40272475  1
  Te  Te152  1  0.90420280  0.93104406  0.69889974  1
  Te  Te153  1  0.22900374  0.04887364  0.23407413  1
  Te  Te154  1  0.27303582  0.08851432  0.57616128  1
  Te  Te155  1  0.20897347  0.03922183  0.92245568  1
  Te  Te156  1  0.24350463  0.39949689  0.23758937  1
  Te  Te157  1  0.24034167  0.41838593  0.58033192  1
  Te  Te158  1  0.25600879  0.41814556  0.90665494  1
  Te  Te159  1  0.25810975  0.74085602  0.25219091  1
  Te  Te160  1  0.28351171  0.78574552  0.55342828  1
  Te  Te161  1  0.25951263  0.75827990  0.91001626  1
  Te  Te162  1  0.57596587  0.08635410  0.24707059  1
  Te  Te163  1  0.57100942  0.07340609  0.56497210  1
  Te  Te164  1  0.59991066  0.08554995  0.90031792  1
  Te  Te165  1  0.58525848  0.47196144  0.20278812  1
  Te  Te166  1  0.59073877  0.40901609  0.63094558  1
  Te  Te167  1  0.58434266  0.41251683  0.92139632  1
  Te  Te168  1  0.57960556  0.78717209  0.25373587  1
  Te  Te169  1  0.58331536  0.75352468  0.58337884  1
  Te  Te170  1  0.59045256  0.72535467  0.92056188  1
  Te  Te171  1  0.92688251  0.10726532  0.23187157  1
  Te  Te172  1  0.94211246  0.05474120  0.60722198  1
  Te  Te173  1  0.92889899  0.08824501  0.90423107  1
  Te  Te174  1  0.91847776  0.40915153  0.25232244  1
  Te  Te175  1  0.91044792  0.42463479  0.58088628  1
  Te  Te176  1  0.95393553  0.36085480  0.93578448  1
  Te  Te177  1  0.92230262  0.75406970  0.23750464  1
  Te  Te178  1  0.92137925  0.74725428  0.60739259  1
  Te  Te179  1  0.94038491  0.75544760  0.91611139  1
