# generated using pymatgen
data_In2Te3
_symmetry_space_group_name_H-M   'P 1'
_cell_length_a   18.99120272
_cell_length_b   18.95844111
_cell_length_c   18.95704480
_cell_angle_alpha   89.98614591
_cell_angle_beta   90.05134536
_cell_angle_gamma   90.23524326
_symmetry_Int_Tables_number   1
_chemical_formula_structural   In2Te3
_chemical_formula_sum   'In72 Te108'
_cell_volume   6825.30215989
_cell_formula_units_Z   36
loop_
 _symmetry_equiv_pos_site_id
 _symmetry_equiv_pos_as_xyz
  1  'x, y, z'
loop_
 _atom_site_type_symbol
 _atom_site_label
 _atom_site_symmetry_multiplicity
 _atom_site_fract_x
 _atom_site_fract_y
 _atom_site_fract_z
 _atom_site_occupancy
  In  In0  1  0.67737015  -0.00574796  0.67021504  1
  In  In1  1  0.64134955  0.66770103  0.69983216  1
  In  In2  1  0.14960713  0.51665274  0.68872422  1
  In  In3  1  0.49394152  0.83126277  0.67941827  1
  In  In4  1  -0.03969836  0.83593571  0.13138974  1
  In  In5  1  0.18964024  0.17119035  0.33826363  1
  In  In6  1  0.63274251  0.03432159  -0.01900033  1
  In  In7  1  0.51485635  0.30404975  0.85611686  1
  In  In8  1  0.84488280  0.34138660  0.16017559  1
  In  In9  1  0.49967975  0.65687089  0.83211031  1
  In  In10  1  0.84513713  0.53061953  0.71365965  1
  In  In11  1  0.00520583  0.02030165  0.33071479  1
  In  In12  1  0.15095051  0.16186050  0.00071358  1
  In  In13  1  0.15130816  0.83273314  0.71096267  1
  In  In14  1  0.83720191  0.14501111  0.33509429  1
  In  In15  1  0.67553885  0.33929563  0.01757197  1
  In  In16  1  0.16401334  0.65087878  0.51324000  1
  In  In17  1  0.64736599  0.80801776  0.14158958  1
  In  In18  1  0.00558010  0.14315688  0.15709872  1
  In  In19  1  0.68439582  0.32878739  0.67792169  1
  In  In20  1  0.80510122  0.17150903  -0.01854029  1
  In  In21  1  0.62970746  0.35300744  0.33257721  1
  In  In22  1  0.18398411  0.65566408  0.85353956  1
  In  In23  1  0.47839522  0.33131210  0.47650060  1
  In  In24  1  0.83214433  0.48357463  0.33085209  1
  In  In25  1  0.49553235  0.33608180  0.16374670  1
  In  In26  1  -0.00571619  0.83104127  0.53007207  1
  In  In27  1  0.34903207  0.01682609  0.00163779  1
  In  In28  1  0.83180491  0.14931775  0.67188855  1
  In  In29  1  0.17302481  -0.01646797  0.51550997  1
  In  In30  1  0.65838834  0.57026698  0.08394641  1
  In  In31  1  0.23439508  0.64228559  0.12540869  1
  In  In32  1  0.86117622  0.54257348  -0.05424168  1
  In  In33  1  0.83162185  0.67384803  0.50030155  1
  In  In34  1  0.47829581  0.84570334  -0.01003245  1
  In  In35  1  0.51779187  0.14527075  0.64466148  1
  In  In36  1  0.31778150  -0.01879869  0.67682976  1
  In  In37  1  0.32572698  0.35717036  0.66995105  1
  In  In38  1  0.47366193  0.52910776  0.26730734  1
  In  In39  1  0.68206356  0.84223623  0.82362238  1
  In  In40  1  0.00013407  0.33321237  0.33543515  1
  In  In41  1  0.34537566  0.82271827  0.46983846  1
  In  In42  1  0.12504544  0.82426319  -0.04887519  1
  In  In43  1  -0.00022284  0.16952954  0.82572388  1
  In  In44  1  0.35823162  0.84708640  0.18058338  1
  In  In45  1  0.16866709  0.83678333  0.33290846  1
  In  In46  1  0.51005741  0.68240775  0.49802713  1
  In  In47  1  0.65771129  0.49046586  0.52890978  1
  In  In48  1  0.30481837  0.66536321  0.66066804  1
  In  In49  1  0.00522107  0.67741064  -0.01647976  1
  In  In50  1  0.82538864  -0.00005992  0.52157702  1
  In  In51  1  0.50132158  0.50424312  0.69779077  1
  In  In52  1  0.19839597  0.50604867  0.30293806  1
  In  In53  1  0.14898487  0.18264080  0.67776206  1
  In  In54  1  0.83738987  0.82865697  0.33233399  1
  In  In55  1  0.83661428  0.68411203  0.14480529  1
  In  In56  1  0.32437718  0.17995606  0.81436993  1
  In  In57  1  0.65585427  -0.04727224  0.31604108  1
  In  In58  1  0.01478300  0.47763845  0.51026383  1
  In  In59  1  0.02217553  0.36202458  0.02339041  1
  In  In60  1  0.34072201  0.49397252  0.49502355  1
  In  In61  1  0.68469465  0.18727060  0.17785007  1
  In  In62  1  0.66653315  0.68018789  0.34192966  1
  In  In63  1  0.84548691  0.31418143  0.52083008  1
  In  In64  1  0.33838052  0.16878701  0.48240624  1
  In  In65  1  0.34990232  0.16828116  0.15677365  1
  In  In66  1  0.30829427  0.33697357  -0.00095124  1
  In  In67  1  0.17287867  0.01035148  0.15442736  1
  In  In68  1  0.49714285  0.15555494  0.33157894  1
  In  In69  1  0.03043230  0.63622706  0.32478727  1
  In  In70  1  0.85061716  -0.02593473  0.83332796  1
  In  In71  1  0.00929239  0.34026855  0.67090648  1
  Te  Te72  1  0.06436022  0.04750249  0.05530836  1
  Te  Te73  1  0.09977232  0.08566748  0.42847844  1
  Te  Te74  1  0.09633532  0.07521690  0.76538473  1
  Te  Te75  1  0.13525275  0.40550694  0.11022488  1
  Te  Te76  1  0.10113275  0.42835484  0.39783217  1
  Te  Te77  1  0.05000806  0.44298652  0.76542672  1
  Te  Te78  1  0.08393617  0.76532756  0.08536746  1
  Te  Te79  1  0.07636506  0.74904757  0.42157892  1
  Te  Te80  1  0.08985848  0.70606902  0.74999289  1
  Te  Te81  1  0.44521228  0.07707139  0.09571304  1
  Te  Te82  1  0.42629121  0.06837969  0.42559562  1
  Te  Te83  1  0.41365556  0.08409963  0.73871824  1
  Te  Te84  1  0.42898567  0.41025333  0.05346739  1
  Te  Te85  1  0.42383586  0.43599060  0.38263313  1
  Te  Te86  1  0.42131211  0.40440020  0.77783839  1
  Te  Te87  1  0.43571142  0.74691123  0.09738049  1
  Te  Te88  1  0.42972051  0.73568290  0.38496665  1
  Te  Te89  1  0.39854755  0.74088368  0.75438695  1
  Te  Te90  1  0.74130633  0.08258205  0.08474819  1
  Te  Te91  1  0.74343020  0.04879832  0.40447837  1
  Te  Te92  1  0.75255187  0.07463944  0.77511448  1
  Te  Te93  1  0.74803251  0.44072258  0.10555822  1
  Te  Te94  1  0.74836573  0.40959804  0.43598914  1
  Te  Te95  1  0.75328293  0.42609276  0.76326968  1
  Te  Te96  1  0.72909735  0.72141893  0.04819953  1
  Te  Te97  1  0.73991103  0.77651862  0.43548884  1
  Te  Te98  1  0.75486478  0.72721518  0.77070157  1
  Te  Te99  1  0.08032839  0.23516282  0.25132648  1
  Te  Te100  1  0.08716686  0.26569326  0.57426449  1
  Te  Te101  1  0.07696522  0.26344749  0.91851890  1
  Te  Te102  1  0.11230298  0.59030433  0.20897112  1
  Te  Te103  1  0.05248063  0.59713648  0.59769742  1
  Te  Te104  1  0.10043041  0.56845035  0.94368722  1
  Te  Te105  1  0.08056608  0.92203070  0.24314278  1
  Te  Te106  1  0.07477801  0.92610627  0.61600419  1
  Te  Te107  1  0.07106895  0.93001904  0.86476559  1
  Te  Te108  1  0.41123782  0.25958055  0.26279756  1
  Te  Te109  1  0.41178981  0.25544719  0.59778856  1
  Te  Te110  1  0.40144502  0.23569878  0.93209926  1
  Te  Te111  1  0.34470712  0.56394056  0.20264744  1
  Te  Te112  1  0.42540397  0.58590258  0.59065526  1
  Te  Te113  1  0.42728840  0.58254813  0.93855281  1
  Te  Te114  1  0.44925393  0.92143404  0.26899173  1
  Te  Te115  1  0.40996320  0.90810567  0.57943961  1
  Te  Te116  1  0.41289465  0.93763430  0.89502993  1
  Te  Te117  1  0.76710432  0.27049218  0.27481794  1
  Te  Te118  1  0.73742728  0.22657169  0.57859124  1
  Te  Te119  1  0.76151499  0.28998330  0.90737973  1
  Te  Te120  1  0.77233908  0.60381328  0.26304178  1
  Te  Te121  1  0.74155129  0.59233317  0.60004556  1
  Te  Te122  1  0.71667584  0.58108430  0.94866755  1
  Te  Te123  1  0.75531958  0.88810712  0.22110669  1
  Te  Te124  1  0.78189894  0.90192957  0.62143209  1
  Te  Te125  1  0.73713975  0.93185880  0.93359605  1
  Te  Te126  1  0.23299637  0.24358354  0.09824212  1
  Te  Te127  1  0.26235028  0.27317653  0.41531033  1
  Te  Te128  1  0.22867423  0.28483101  0.76145793  1
  Te  Te129  1  0.28639473  0.56441040  0.00692526  1
  Te  Te130  1  0.26173916  0.59572473  0.41421770  1
  Te  Te131  1  0.27255805  0.56095885  0.76459533  1
  Te  Te132  1  0.26322727  0.91734737  0.07962671  1
  Te  Te133  1  0.26236490  0.93225704  0.40367723  1
  Te  Te134  1  0.26116124  0.89738296  0.78348686  1
  Te  Te135  1  0.57957483  0.23924184  0.08444399  1
  Te  Te136  1  0.58826923  0.24277228  0.42617103  1
  Te  Te137  1  0.59789603  0.22125683  0.75671788  1
  Te  Te138  1  0.52108222  0.62105538  0.05850159  1
  Te  Te139  1  0.58749313  0.57302041  0.42381459  1
  Te  Te140  1  0.60681912  0.55039811  0.79284914  1
  Te  Te141  1  0.57590761  0.92467528  0.07718778  1
  Te  Te142  1  0.54691944  0.86536177  0.36650874  1
  Te  Te143  1  0.57368794  0.92936580  0.76181031  1
  Te  Te144  1  0.91883692  0.23873365  0.07776842  1
  Te  Te145  1  0.92721076  0.23252940  0.42328785  1
  Te  Te146  1  0.90636455  0.25868560  0.74713590  1
  Te  Te147  1  0.92596870  0.58470293  0.07944795  1
  Te  Te148  1  0.92337687  0.57446262  0.42211063  1
  Te  Te149  1  0.91546927  0.60409526  0.81966257  1
  Te  Te150  1  0.88479042  0.88399940  0.01674101  1
  Te  Te151  1  0.92859374  0.91842265  0.41669724  1
  Te  Te152  1  0.94851948  0.86510505  0.80004920  1
  Te  Te153  1  0.26868215  0.07737312  0.24998485  1
  Te  Te154  1  0.24870200  0.09387336  0.59270215  1
  Te  Te155  1  0.24798698  0.08950584  0.91174120  1
  Te  Te156  1  0.26062246  0.41940337  0.20092932  1
  Te  Te157  1  0.23206293  0.43727288  0.58260503  1
  Te  Te158  1  0.20475517  0.44029298  0.95870577  1
  Te  Te159  1  0.24682377  0.75612486  0.23385868  1
  Te  Te160  1  0.23720055  0.77061585  0.57370162  1
  Te  Te161  1  0.25173094  0.75099972  0.94473441  1
  Te  Te162  1  0.60285130  0.08300405  0.25255619  1
  Te  Te163  1  0.58694698  0.04500405  0.56565212  1
  Te  Te164  1  0.58585349  0.14461486  0.89680097  1
  Te  Te165  1  0.59189060  0.44758316  0.22111238  1
  Te  Te166  1  0.56348891  0.39600033  0.60035713  1
  Te  Te167  1  0.56033078  0.40925206  0.95301007  1
  Te  Te168  1  0.57492472  0.71446955  0.23128830  1
  Te  Te169  1  0.59672527  0.76526061  0.59037309  1
  Te  Te170  1  0.57491042  0.76627300  0.90365694  1
  Te  Te171  1  0.89975251  0.05885325  0.22719133  1
  Te  Te172  1  0.92743750  0.08387693  0.58390435  1
  Te  Te173  1  0.91249968  0.08594104  0.91747365  1
  Te  Te174  1  0.94067388  0.43259441  0.23734955  1
  Te  Te175  1  0.89289350  0.43746600  0.59445497  1
  Te  Te176  1  0.90306949  0.39929784  0.94541359  1
  Te  Te177  1  0.93903971  0.74162530  0.25783820  1
  Te  Te178  1  0.89744195  0.75273087  0.60695878  1
  Te  Te179  1  0.90392640  0.76888038  0.92004575  1
