# generated using pymatgen
data_In2Te3
_symmetry_space_group_name_H-M   'P 1'
_cell_length_a   18.78465333
_cell_length_b   18.78777682
_cell_length_c   18.79177609
_cell_angle_alpha   90.06994338
_cell_angle_beta   90.01183636
_cell_angle_gamma   89.94948554
_symmetry_Int_Tables_number   1
_chemical_formula_structural   In2Te3
_chemical_formula_sum   'In72 Te108'
_cell_volume   6632.02118242
_cell_formula_units_Z   36
loop_
 _symmetry_equiv_pos_site_id
 _symmetry_equiv_pos_as_xyz
  1  'x, y, z'
loop_
 _atom_site_type_symbol
 _atom_site_label
 _atom_site_symmetry_multiplicity
 _atom_site_fract_x
 _atom_site_fract_y
 _atom_site_fract_z
 _atom_site_occupancy
  In  In0  1  0.83090130  0.01659028  0.85282223  1
  In  In1  1  0.49747571  0.66516147  0.14873459  1
  In  In2  1  0.70004300  0.36235632  0.67595341  1
  In  In3  1  0.00921204  0.65443385  0.33879622  1
  In  In4  1  0.68634704  0.68170174  0.31586615  1
  In  In5  1  0.31220185  0.00328690  -0.00645491  1
  In  In6  1  0.51934234  0.49192524  -0.00111576  1
  In  In7  1  0.65678705  0.81311138  0.47011159  1
  In  In8  1  0.15559765  0.03776966  0.80745986  1
  In  In9  1  0.16354670  0.14268330  0.35430961  1
  In  In10  1  0.01333251  0.84690790  0.16906814  1
  In  In11  1  0.14826170  0.49085690  0.68107736  1
  In  In12  1  0.32904798  0.69791931  0.66859460  1
  In  In13  1  0.50724149  0.66792389  0.50241778  1
  In  In14  1  0.85132377  0.82804893  0.67096353  1
  In  In15  1  0.00759248  0.48728146  0.83337164  1
  In  In16  1  0.65815764  0.16510504  0.15453073  1
  In  In17  1  0.16184030  0.66586606  0.82830435  1
  In  In18  1  0.03818519  0.00971676  0.65220630  1
  In  In19  1  0.18201385  0.32909719  0.16578226  1
  In  In20  1  0.48053646  0.00052450  0.50909447  1
  In  In21  1  0.48261690  0.16203404  0.34879892  1
  In  In22  1  0.64962652  0.30787485  0.32376536  1
  In  In23  1  0.19374781  0.85597052  0.34823956  1
  In  In24  1  0.50117768  0.34477178  0.83029974  1
  In  In25  1  0.50458602  0.33158213  0.14944738  1
  In  In26  1  0.15625665  0.83233491  -0.00014919  1
  In  In27  1  -0.00539287  0.16472812  0.17159959  1
  In  In28  1  0.83845416  0.16829513  0.32603635  1
  In  In29  1  0.51788676  0.49693570  0.68191792  1
  In  In30  1  0.16093729  0.01959460  0.17426501  1
  In  In31  1  0.86470664  0.20395108  0.67949119  1
  In  In32  1  0.48287504  0.86204363  0.34394908  1
  In  In33  1  0.67678579  0.18156619  0.84126636  1
  In  In34  1  0.66965159  0.47687909  0.50372389  1
  In  In35  1  0.47778628  0.16015165  0.66674438  1
  In  In36  1  0.15992178  0.47748882  0.34315640  1
  In  In37  1  0.83344068  0.65837947  0.14599148  1
  In  In38  1  0.86030793  0.63998196  0.84443938  1
  In  In39  1  0.35317893  0.83440120  0.82520707  1
  In  In40  1  0.01186707  0.32065513  -0.01901186  1
  In  In41  1  -0.01263034  0.83142087  0.84545526  1
  In  In42  1  0.48630406  -0.00204636  0.17486017  1
  In  In43  1  0.00681742  0.84252544  0.51930150  1
  In  In44  1  0.00187792  0.62899994  0.68376256  1
  In  In45  1  0.29368560  0.03873465  0.66154912  1
  In  In46  1  0.83791574  0.17046915  -0.00788920  1
  In  In47  1  0.82503414  0.01785761  0.48858405  1
  In  In48  1  0.66267066  0.01391054  0.00630743  1
  In  In49  1  0.33673423  0.48316643  0.85584504  1
  In  In50  1  0.16983144  0.84274972  0.63703233  1
  In  In51  1  0.00777042  0.50092708  0.18122998  1
  In  In52  1  0.33227589  0.67861552  0.32543640  1
  In  In53  1  0.49666178  0.49203167  0.32542919  1
  In  In54  1  0.32385303  0.31774649  0.33618578  1
  In  In55  1  0.48078805  0.84798233  0.65686154  1
  In  In56  1  -0.01959514  0.00994097  0.01440070  1
  In  In57  1  0.65265933  0.83160728  0.83107744  1
  In  In58  1  0.29880008  0.28064989  0.66445046  1
  In  In59  1  0.66282993  -0.00900470  0.65403874  1
  In  In60  1  -0.00160792  0.65018508  -0.01006338  1
  In  In61  1  0.85833557  0.34077723  0.51923599  1
  In  In62  1  0.32658342  0.48259266  0.49923008  1
  In  In63  1  0.32117827  0.32393621  -0.00542394  1
  In  In64  1  0.68466103  0.82362834  0.17427598  1
  In  In65  1  0.49450173  0.80812495  -0.00647639  1
  In  In66  1  0.84790562  0.51130817  0.34316234  1
  In  In67  1  0.31867733  0.63755692  0.03257621  1
  In  In68  1  0.68027867  0.62954137  0.67749673  1
  In  In69  1  0.49967660  0.17750384  -0.00098272  1
  In  In70  1  -0.00614507  0.34993081  0.34401679  1
  In  In71  1  0.82575147  0.83844515  0.33655916  1
  Te  Te72  1  0.08894775  0.10251362  0.06766358  1
  Te  Te73  1  0.06744402  0.09284047  0.45692554  1
  Te  Te74  1  0.08331760  0.13932759  0.72112209  1
  Te  Te75  1  0.08518324  0.41197665  0.08292245  1
  Te  Te76  1  0.08025628  0.41012705  0.44826311  1
  Te  Te77  1  0.05539448  0.38247327  0.73141714  1
  Te  Te78  1  0.08126337  0.73484674  0.08894612  1
  Te  Te79  1  0.08571852  0.76172580  0.41395190  1
  Te  Te80  1  0.07881217  0.76302029  0.74337444  1
  Te  Te81  1  0.40748192  0.08993372  0.08172476  1
  Te  Te82  1  0.38200879  0.06906489  0.41604150  1
  Te  Te83  1  0.40337399  0.07130470  0.75607840  1
  Te  Te84  1  0.40615691  0.42249903  0.07627718  1
  Te  Te85  1  0.42658506  0.39742205  0.42096888  1
  Te  Te86  1  0.39827864  0.40812395  0.73599341  1
  Te  Te87  1  0.39022108  0.75930953  0.09362592  1
  Te  Te88  1  0.40962599  0.75984292  0.43251738  1
  Te  Te89  1  0.44729661  0.73484977  0.75720346  1
  Te  Te90  1  0.76932573  0.07805295  0.09336682  1
  Te  Te91  1  0.73537348  0.10438878  0.41209547  1
  Te  Te92  1  0.75033809  0.08511313  0.74093130  1
  Te  Te93  1  0.70003962  0.46404169  0.02897493  1
  Te  Te94  1  0.75627131  0.39774316  0.40579234  1
  Te  Te95  1  0.76277481  0.44981152  0.77799531  1
  Te  Te96  1  0.73209593  0.73439585  0.06758392  1
  Te  Te97  1  0.77751649  0.72652997  0.42972831  1
  Te  Te98  1  0.76436643  0.74079442  0.76065319  1
  Te  Te99  1  0.08608492  0.25328295  0.26165141  1
  Te  Te100  1  0.09503315  0.19356898  0.56801819  1
  Te  Te101  1  0.12946447  0.26701226  0.90580962  1
  Te  Te102  1  0.11216678  0.59167156  0.24448018  1
  Te  Te103  1  0.10768080  0.59764628  0.58612514  1
  Te  Te104  1  0.10921604  0.56337738  0.92734641  1
  Te  Te105  1  0.08071879  0.93479833  0.27236761  1
  Te  Te106  1  0.12337661  0.94947360  0.53777131  1
  Te  Te107  1  0.08340474  0.93277790  0.91069270  1
  Te  Te108  1  0.41562567  0.24431764  0.23721097  1
  Te  Te109  1  0.40129896  0.23668754  0.56525027  1
  Te  Te110  1  0.40930431  0.24398280  0.89581087  1
  Te  Te111  1  0.40741387  0.57721624  0.23629864  1
  Te  Te112  1  0.41881955  0.57669048  0.58630732  1
  Te  Te113  1  0.41708445  0.58990473  0.92687381  1
  Te  Te114  1  0.38500429  0.92228965  0.25168559  1
  Te  Te115  1  0.37060779  0.92298365  0.58515906  1
  Te  Te116  1  0.42573121  0.92574068  0.92296031  1
  Te  Te117  1  0.75639519  0.25538419  0.22833015  1
  Te  Te118  1  0.75352548  0.25024578  0.58413064  1
  Te  Te119  1  0.77550129  0.27168893  0.90291262  1
  Te  Te120  1  0.74997416  0.56811214  0.23892308  1
  Te  Te121  1  0.75907029  0.57822942  0.56436771  1
  Te  Te122  1  0.76286949  0.55291288  0.91575156  1
  Te  Te123  1  0.74073635  0.92940033  0.25836147  1
  Te  Te124  1  0.75500809  0.89762408  0.57417359  1
  Te  Te125  1  0.74568043  0.91363736  0.92445288  1
  Te  Te126  1  0.25595286  0.22871663  0.08701111  1
  Te  Te127  1  0.22762330  0.25624677  0.43144770  1
  Te  Te128  1  0.22465707  0.23464739  0.78361659  1
  Te  Te129  1  0.20045307  0.57208297  0.08169798  1
  Te  Te130  1  0.24961113  0.58115592  0.41463063  1
  Te  Te131  1  0.26464994  0.58254554  0.74962235  1
  Te  Te132  1  0.24231530  0.91410255  0.09512739  1
  Te  Te133  1  0.28049451  0.94952019  0.42513570  1
  Te  Te134  1  0.24102959  0.91314910  0.75686559  1
  Te  Te135  1  0.60837286  0.26836358  0.05451755  1
  Te  Te136  1  0.57226590  0.24608169  0.43162161  1
  Te  Te137  1  0.58934441  0.25565137  0.73886359  1
  Te  Te138  1  0.60510611  0.57887711  0.08939067  1
  Te  Te139  1  0.59236357  0.58270647  0.40830824  1
  Te  Te140  1  0.59386240  0.57255483  0.78220008  1
  Te  Te141  1  0.57889635  0.91113523  0.08591078  1
  Te  Te142  1  0.59239623  0.93853417  0.41735788  1
  Te  Te143  1  0.56532363  0.93112694  0.75478232  1
  Te  Te144  1  0.91584239  0.26339974  0.08681711  1
  Te  Te145  1  0.92935094  0.24046432  0.42849547  1
  Te  Te146  1  0.93029802  0.29630395  0.77356966  1
  Te  Te147  1  0.91338202  0.55264534  0.07055738  1
  Te  Te148  1  0.95422459  0.55594613  0.43777324  1
  Te  Te149  1  0.88353495  0.53057022  0.72156482  1
  Te  Te150  1  0.90659693  0.90407791  0.08420535  1
  Te  Te151  1  0.92278853  0.92326031  0.41868084  1
  Te  Te152  1  0.92514361  0.93676878  0.74928002  1
  Te  Te153  1  0.26151894  0.09068923  0.25593342  1
  Te  Te154  1  0.24651619  0.14802153  0.56678286  1
  Te  Te155  1  0.24507471  0.10484150  0.90714319  1
  Te  Te156  1  0.26744768  0.42704580  0.24608745  1
  Te  Te157  1  0.23620026  0.40100520  0.59057216  1
  Te  Te158  1  0.22316093  0.39747349  0.90220173  1
  Te  Te159  1  0.24031961  0.76058900  0.24497827  1
  Te  Te160  1  0.23616505  0.73487470  0.56065072  1
  Te  Te161  1  0.25676314  0.75072683  0.91479246  1
  Te  Te162  1  0.58139580  0.08460027  0.25654547  1
  Te  Te163  1  0.58379605  0.09349367  0.57478007  1
  Te  Te164  1  0.57616788  0.08462438  0.90347901  1
  Te  Te165  1  0.59571793  0.42048541  0.23429601  1
  Te  Te166  1  0.57357361  0.39349450  0.58522981  1
  Te  Te167  1  0.61111344  0.40927278  0.90894942  1
  Te  Te168  1  0.56200465  0.75247037  0.25950477  1
  Te  Te169  1  0.59381593  0.75247012  0.59942440  1
  Te  Te170  1  0.60062672  0.73048751  0.92610759  1
  Te  Te171  1  0.92562428  0.06861678  0.25824584  1
  Te  Te172  1  0.91006449  0.08176571  0.59781956  1
  Te  Te173  1  0.94356150  0.10683593  0.89868404  1
  Te  Te174  1  0.90011229  0.40937569  0.23981845  1
  Te  Te175  1  0.91496851  0.45910329  0.58498503  1
  Te  Te176  1  0.90908544  0.40747688  0.91371527  1
  Te  Te177  1  0.91632586  0.74116852  0.24938951  1
  Te  Te178  1  0.92878956  0.72927708  0.58680952  1
  Te  Te179  1  0.89845621  0.75664400  0.94006283  1
