# generated using pymatgen
data_In2Te3
_symmetry_space_group_name_H-M   'P 1'
_cell_length_a   18.78122656
_cell_length_b   18.78917620
_cell_length_c   18.78637043
_cell_angle_alpha   90.08943022
_cell_angle_beta   89.95631013
_cell_angle_gamma   90.04453406
_symmetry_Int_Tables_number   1
_chemical_formula_structural   In2Te3
_chemical_formula_sum   'In72 Te108'
_cell_volume   6629.39331839
_cell_formula_units_Z   36
loop_
 _symmetry_equiv_pos_site_id
 _symmetry_equiv_pos_as_xyz
  1  'x, y, z'
loop_
 _atom_site_type_symbol
 _atom_site_label
 _atom_site_symmetry_multiplicity
 _atom_site_fract_x
 _atom_site_fract_y
 _atom_site_fract_z
 _atom_site_occupancy
  In  In0  1  0.33212609  0.82692089  0.49888680  1
  In  In1  1  0.31443603  0.49286492  0.84763690  1
  In  In2  1  -0.00055866  0.00596589  0.67234601  1
  In  In3  1  0.31844939  0.66822971  0.30640489  1
  In  In4  1  0.49402069  -0.01522319  0.17338420  1
  In  In5  1  0.51451126  0.82604522  0.67473504  1
  In  In6  1  0.48955509  0.33671554  0.51300943  1
  In  In7  1  0.86419300  0.49458316  0.31815272  1
  In  In8  1  0.13884175  0.17986279  0.33009272  1
  In  In9  1  -0.00943261  0.68033662  0.67903221  1
  In  In10  1  0.14353902  0.30705577  0.50775558  1
  In  In11  1  0.16426515  0.00335323  0.83689494  1
  In  In12  1  0.02064534  0.50324083  0.85568312  1
  In  In13  1  0.50145660  0.49381995  0.68689686  1
  In  In14  1  0.33776342  0.00386332  0.67719958  1
  In  In15  1  0.47936480  0.82932107  -0.00198398  1
  In  In16  1  0.67855925  0.84455486  0.49688792  1
  In  In17  1  0.47709025  0.13986964  0.31922218  1
  In  In18  1  0.67509713  0.65076167  0.00037377  1
  In  In19  1  0.66674121  0.50869177  0.16507554  1
  In  In20  1  0.31472787  0.66418530  0.00857464  1
  In  In21  1  0.16642964  0.82328614  -0.00131871  1
  In  In22  1  0.83689401  -0.01628251  0.51466918  1
  In  In23  1  0.49329789  0.52246679  0.30912495  1
  In  In24  1  0.48964140  0.47835937  0.03256720  1
  In  In25  1  0.66954303  0.51155172  0.84683319  1
  In  In26  1  0.16181744  -0.00732574  0.16342725  1
  In  In27  1  0.31659191  0.34251529  0.67689127  1
  In  In28  1  0.16341339  0.49113276  0.28362654  1
  In  In29  1  0.14626734  0.82170436  0.68559397  1
  In  In30  1  0.68802484  0.82260848  0.79898390  1
  In  In31  1  0.67180028  0.14965408  0.82282557  1
  In  In32  1  0.16840821  0.50620523  0.69613900  1
  In  In33  1  0.66649402  0.32520002  0.32075141  1
  In  In34  1  0.00191077  0.33220092  0.30546946  1
  In  In35  1  0.17423989  0.66867090  0.50344781  1
  In  In36  1  0.67984335  0.33210565  0.67123852  1
  In  In37  1  0.85765621  0.31578816  0.82377602  1
  In  In38  1  0.68657161  0.02460073  0.00096693  1
  In  In39  1  0.68982814  0.16886890  0.14742812  1
  In  In40  1  0.15823388  0.17527136  0.00835115  1
  In  In41  1  0.52925006  0.00943813  0.48720553  1
  In  In42  1  0.86159694  0.52126894  0.00271913  1
  In  In43  1  0.32918039  -0.01866633  -0.00300016  1
  In  In44  1  -0.00747359  0.18279871  0.15902155  1
  In  In45  1  0.15134687  0.33548364  0.84926159  1
  In  In46  1  -0.02784833  0.83268135  0.50064299  1
  In  In47  1  0.86142862  0.02165066  0.85992394  1
  In  In48  1  0.34910868  0.50640753  0.50018364  1
  In  In49  1  0.84800137  0.82426159  0.00274044  1
  In  In50  1  0.49649753  0.16214572  0.67932911  1
  In  In51  1  0.49658839  0.65551746  0.51000421  1
  In  In52  1  0.15060466  0.18817818  0.68130533  1
  In  In53  1  0.67172751  0.67701598  0.33871426  1
  In  In54  1  -0.01076391  0.66939898  0.32689040  1
  In  In55  1  0.65671540  0.18061986  0.52435000  1
  In  In56  1  0.67400266  0.82148705  0.17215529  1
  In  In57  1  0.48225127  0.19615401  -0.02691809  1
  In  In58  1  -0.00568391  0.82998282  0.83615282  1
  In  In59  1  0.71525368  0.53661441  0.52447829  1
  In  In60  1  0.00455321  0.82292837  0.15889074  1
  In  In61  1  0.68494762  -0.02465626  0.33116628  1
  In  In62  1  0.15473097  0.02685253  0.48473041  1
  In  In63  1  0.29810706  0.32935385  0.31426657  1
  In  In64  1  0.17847712  0.82442572  0.30139834  1
  In  In65  1  0.35868546  -0.00506104  0.32607818  1
  In  In66  1  0.82355201  0.33477502  0.51047685  1
  In  In67  1  0.31659659  0.17829725  0.15142646  1
  In  In68  1  0.67159862  0.32910773  -0.00160487  1
  In  In69  1  0.83217209  0.16529947  0.32851757  1
  In  In70  1  -0.01832185  0.48846599  0.49537788  1
  In  In71  1  0.50411095  0.67054793  0.83192830  1
  Te  Te72  1  0.06914102  0.07136618  0.07616270  1
  Te  Te73  1  0.04756284  0.09923669  0.41508504  1
  Te  Te74  1  0.06546577  0.09997272  0.77357473  1
  Te  Te75  1  0.06961783  0.48757780  0.06183538  1
  Te  Te76  1  0.08852037  0.41809857  0.40640085  1
  Te  Te77  1  0.06902280  0.40308451  0.74029335  1
  Te  Te78  1  0.06056378  0.73152371  0.05230322  1
  Te  Te79  1  0.08708076  0.75785416  0.41683284  1
  Te  Te80  1  0.09294852  0.72207713  0.78596472  1
  Te  Te81  1  0.41871631  0.08396194  0.08275679  1
  Te  Te82  1  0.40531197  0.08678525  0.44242691  1
  Te  Te83  1  0.41009567  0.08786855  0.77412851  1
  Te  Te84  1  0.38701257  0.39082592  0.09096656  1
  Te  Te85  1  0.41374906  0.40980003  0.39922828  1
  Te  Te86  1  0.42249737  0.39748005  0.77423893  1
  Te  Te87  1  0.40769252  0.74433089  0.09397093  1
  Te  Te88  1  0.41483283  0.73564312  0.40921636  1
  Te  Te89  1  0.41218702  0.75509641  0.75423913  1
  Te  Te90  1  0.79261283  0.07289030  0.09508005  1
  Te  Te91  1  0.73536091  0.09141852  0.42460819  1
  Te  Te92  1  0.77950682  0.07841591  0.75122700  1
  Te  Te93  1  0.75900663  0.42706876  0.07508364  1
  Te  Te94  1  0.75007913  0.42147064  0.40551760  1
  Te  Te95  1  0.76124877  0.42220204  0.76214447  1
  Te  Te96  1  0.76748311  0.72862231  0.09252069  1
  Te  Te97  1  0.76753113  0.75865175  0.41545790  1
  Te  Te98  1  0.77661767  0.72930351  0.72732865  1
  Te  Te99  1  0.10985042  0.27359405  0.21425615  1
  Te  Te100  1  0.03791006  0.24749806  0.59709744  1
  Te  Te101  1  0.05550783  0.25311629  0.93128327  1
  Te  Te102  1  0.06381347  0.58563188  0.22421231  1
  Te  Te103  1  0.07787136  0.58316816  0.58440217  1
  Te  Te104  1  0.10438012  0.58832856  0.95032577  1
  Te  Te105  1  0.07262546  0.92495319  0.26519659  1
  Te  Te106  1  0.08850178  0.91269180  0.57753173  1
  Te  Te107  1  0.07216218  0.92412879  0.92810874  1
  Te  Te108  1  0.41457546  0.25388557  0.24263416  1
  Te  Te109  1  0.39982797  0.24403198  0.59118428  1
  Te  Te110  1  0.39529408  0.27237018  0.88471572  1
  Te  Te111  1  0.39378023  0.57650365  0.21487081  1
  Te  Te112  1  0.40522702  0.58896095  0.61469961  1
  Te  Te113  1  0.42682464  0.57581944  0.92408299  1
  Te  Te114  1  0.40813257  0.88515161  0.24123149  1
  Te  Te115  1  0.42673830  0.92084256  0.57380463  1
  Te  Te116  1  0.42177851  0.92125720  0.89901215  1
  Te  Te117  1  0.77337004  0.26781415  0.22926245  1
  Te  Te118  1  0.77316945  0.22778955  0.61010459  1
  Te  Te119  1  0.75850412  0.23728987  0.91395306  1
  Te  Te120  1  0.76286784  0.58820375  0.25081057  1
  Te  Te121  1  0.79219560  0.60828491  0.62686752  1
  Te  Te122  1  0.78021992  0.60357181  0.89959991  1
  Te  Te123  1  0.77325465  0.91599689  0.23026556  1
  Te  Te124  1  0.73643280  0.92584588  0.60573763  1
  Te  Te125  1  0.75132679  0.91603488  0.91340521  1
  Te  Te126  1  0.25846090  0.27951403  0.05701799  1
  Te  Te127  1  0.25008835  0.23502658  0.42398823  1
  Te  Te128  1  0.25756681  0.24452052  0.77939754  1
  Te  Te129  1  0.22073142  0.55462874  0.05415207  1
  Te  Te130  1  0.24258799  0.57092099  0.40710843  1
  Te  Te131  1  0.25316303  0.60159017  0.76843893  1
  Te  Te132  1  0.25958033  0.89538730  0.10116422  1
  Te  Te133  1  0.24415422  0.91906909  0.41434729  1
  Te  Te134  1  0.25134768  0.90597650  0.75908831  1
  Te  Te135  1  0.57494778  0.24893047  0.08553384  1
  Te  Te136  1  0.57120535  0.24493034  0.41275055  1
  Te  Te137  1  0.58277639  0.25932217  0.76144706  1
  Te  Te138  1  0.56675123  0.59815589  0.09315135  1
  Te  Te139  1  0.58566339  0.56533518  0.42389493  1
  Te  Te140  1  0.60159402  0.59601336  0.73892373  1
  Te  Te141  1  0.59275189  0.92056413  0.07565943  1
  Te  Te142  1  0.56985737  0.89826841  0.39345442  1
  Te  Te143  1  0.58614881  0.92241540  0.76093236  1
  Te  Te144  1  0.88852806  0.21103614  0.05471667  1
  Te  Te145  1  0.91723590  0.26282435  0.41212927  1
  Te  Te146  1  0.94177643  0.25001898  0.72257270  1
  Te  Te147  1  0.95095083  0.58403547  0.10511208  1
  Te  Te148  1  0.90103766  0.59939366  0.43035856  1
  Te  Te149  1  0.92944877  0.56872144  0.75607033  1
  Te  Te150  1  0.93109199  0.92254526  0.07497171  1
  Te  Te151  1  0.90204817  0.91437639  0.40098486  1
  Te  Te152  1  0.90494723  0.91525063  0.74890034  1
  Te  Te153  1  0.24651505  0.08562444  0.25608703  1
  Te  Te154  1  0.23466131  0.08908458  0.59895524  1
  Te  Te155  1  0.25442113  0.09139136  0.92285422  1
  Te  Te156  1  0.28102130  0.43399197  0.20466614  1
  Te  Te157  1  0.23639485  0.42031104  0.57213294  1
  Te  Te158  1  0.23461897  0.41494822  0.94755909  1
  Te  Te159  1  0.21251116  0.71301988  0.21241070  1
  Te  Te160  1  0.25650967  0.74660459  0.60360253  1
  Te  Te161  1  0.26284853  0.75799623  0.90655926  1
  Te  Te162  1  0.59969915  0.08390751  0.24609243  1
  Te  Te163  1  0.59732446  0.06910705  0.61042200  1
  Te  Te164  1  0.57194166  0.08338287  0.91761013  1
  Te  Te165  1  0.57284880  0.41073972  0.23607818  1
  Te  Te166  1  0.59548311  0.42438417  0.58008472  1
  Te  Te167  1  0.57488625  0.41644241  0.91958335  1
  Te  Te168  1  0.57589830  0.73957803  0.24640574  1
  Te  Te169  1  0.59989266  0.73958399  0.58144545  1
  Te  Te170  1  0.60068904  0.75694458  0.91899412  1
  Te  Te171  1  0.93242210  0.08609239  0.25429800  1
  Te  Te172  1  0.92773508  0.08648585  0.57097883  1
  Te  Te173  1  0.93377106  0.13312333  0.93097484  1
  Te  Te174  1  0.91789994  0.40787676  0.21064565  1
  Te  Te175  1  0.90095259  0.42364751  0.59991542  1
  Te  Te176  1  0.92754187  0.40338439  0.93130760  1
  Te  Te177  1  0.90380557  0.76149149  0.25015297  1
  Te  Te178  1  0.88740190  0.76216907  0.60302804  1
  Te  Te179  1  0.91629369  0.72814517  0.91210482  1
