# generated using pymatgen
data_In2Te3
_symmetry_space_group_name_H-M   'P 1'
_cell_length_a   18.81282641
_cell_length_b   18.80486730
_cell_length_c   18.81284769
_cell_angle_alpha   89.94489904
_cell_angle_beta   90.01266579
_cell_angle_gamma   90.02615467
_symmetry_Int_Tables_number   1
_chemical_formula_structural   In2Te3
_chemical_formula_sum   'In72 Te108'
_cell_volume   6655.46806635
_cell_formula_units_Z   36
loop_
 _symmetry_equiv_pos_site_id
 _symmetry_equiv_pos_as_xyz
  1  'x, y, z'
loop_
 _atom_site_type_symbol
 _atom_site_label
 _atom_site_symmetry_multiplicity
 _atom_site_fract_x
 _atom_site_fract_y
 _atom_site_fract_z
 _atom_site_occupancy
  In  In0  1  -0.01532562  0.18042564  0.85381409  1
  In  In1  1  0.49505693  0.20216369  0.66662615  1
  In  In2  1  0.33603918  0.15049882  0.15696399  1
  In  In3  1  0.01911794  0.50531722  0.16368938  1
  In  In4  1  0.65030569  0.84396824  0.16175807  1
  In  In5  1  0.17640080  0.17271973  0.00929554  1
  In  In6  1  0.46424724  0.35362773  0.52648522  1
  In  In7  1  0.65432584  0.15638424  0.49108292  1
  In  In8  1  0.18452832  0.80983035  -0.01581271  1
  In  In9  1  0.32914397  0.15921000  0.83023139  1
  In  In10  1  0.50938623  0.66878946  0.15052238  1
  In  In11  1  -0.01066820  -0.02706977  0.65474653  1
  In  In12  1  0.01682966  0.67152324  -0.00901740  1
  In  In13  1  0.65990065  0.16730597  0.17339162  1
  In  In14  1  0.50942838  0.33288962  0.16937238  1
  In  In15  1  0.49343028  0.66794512  0.81806012  1
  In  In16  1  0.48761844  -0.01726882  0.48999766  1
  In  In17  1  0.18341246  0.34338173  0.52474296  1
  In  In18  1  0.16865001  0.65562841  0.18070834  1
  In  In19  1  0.31631258  0.50106879  0.16834748  1
  In  In20  1  0.15969308  0.17362550  0.33629185  1
  In  In21  1  0.82900846  0.31874386  0.47688029  1
  In  In22  1  0.83390875  0.47902563  -0.01819939  1
  In  In23  1  0.32947047  0.66633590  0.35689858  1
  In  In24  1  0.82926159  0.50170582  0.67344602  1
  In  In25  1  0.67859765  -0.00079798  0.67900592  1
  In  In26  1  0.80787896  0.17169712  0.32008319  1
  In  In27  1  0.50098290  0.14755909  0.35540661  1
  In  In28  1  0.79340140  0.86714527  -0.02204957  1
  In  In29  1  0.49261637  0.82644193  0.66340054  1
  In  In30  1  0.82965736  0.02467191  0.16207976  1
  In  In31  1  0.50999241  0.52366355  -0.00585624  1
  In  In32  1  0.35687283  0.84763222  0.18360893  1
  In  In33  1  0.83921931  0.69806845  0.15715380  1
  In  In34  1  0.17069883  0.17223128  0.66403393  1
  In  In35  1  0.65659146  0.00058137  0.34115930  1
  In  In36  1  0.02012948  0.32966376  0.67484698  1
  In  In37  1  0.33518587  0.31434409  -0.00907023  1
  In  In38  1  0.50035762  0.47742558  0.33505101  1
  In  In39  1  -0.03452548  0.31351695  0.01088092  1
  In  In40  1  0.84454573  0.81564911  0.33792739  1
  In  In41  1  0.84230595  0.15130250  0.67355257  1
  In  In42  1  0.66357579  0.32951389  0.69635042  1
  In  In43  1  0.01829898  0.50040473  0.51364146  1
  In  In44  1  0.66652249  0.29932779  0.30224643  1
  In  In45  1  0.31700470  -0.00411155  0.66075674  1
  In  In46  1  -0.01853567  0.01508311  -0.01289271  1
  In  In47  1  0.66665906  0.50217608  0.51409839  1
  In  In48  1  0.32518296  0.35343518  0.32600114  1
  In  In49  1  0.00070184  0.32503718  0.32736274  1
  In  In50  1  0.68590786  0.32191295  -0.03216753  1
  In  In51  1  0.15859727  -0.00722732  0.80513072  1
  In  In52  1  0.66795155  0.67802285  0.32454234  1
  In  In53  1  0.17896288  0.36944915  0.81228887  1
  In  In54  1  0.19447990  0.63337053  0.82103959  1
  In  In55  1  0.51899990  0.82637182  -0.01517199  1
  In  In56  1  0.17745906  0.65019746  0.51243706  1
  In  In57  1  0.84598762  0.50832174  0.33734173  1
  In  In58  1  0.64846404  0.51325231  0.83253251  1
  In  In59  1  0.00138662  0.86047145  0.19587444  1
  In  In60  1  0.17641338  0.80800965  0.65765849  1
  In  In61  1  -0.01024124  0.83823741  0.81699625  1
  In  In62  1  0.00121322  0.00237505  0.34716871  1
  In  In63  1  0.52071341  0.00748781  0.85128019  1
  In  In64  1  0.82752047  0.66550827  0.82114927  1
  In  In65  1  0.83453213  0.66019602  0.51892797  1
  In  In66  1  0.14592411  0.00045594  0.18188301  1
  In  In67  1  0.18065232  0.48853207  -0.00418945  1
  In  In68  1  0.01392229  0.81200465  0.50788080  1
  In  In69  1  0.35590058  -0.01497817  0.01400878  1
  In  In70  1  0.82433176  0.83850998  0.67844704  1
  In  In71  1  0.47637003  0.66504120  0.52397839  1
  Te  Te72  1  0.07033434  0.09338278  0.08515473  1
  Te  Te73  1  0.10300742  0.07240220  0.42941564  1
  Te  Te74  1  0.06137684  0.09370448  0.74642104  1
  Te  Te75  1  0.08012973  0.40199766  0.07036679  1
  Te  Te76  1  0.09266759  0.40857464  0.41930306  1
  Te  Te77  1  0.08903503  0.45125256  0.72394635  1
  Te  Te78  1  0.08166914  0.76347773  0.09611257  1
  Te  Te79  1  0.10670159  0.74334802  0.41824950  1
  Te  Te80  1  0.09192549  0.74032372  0.76543907  1
  Te  Te81  1  0.43607282  0.09849989  0.06248859  1
  Te  Te82  1  0.39040725  0.08708596  0.43709413  1
  Te  Te83  1  0.42214436  0.07206942  0.74293488  1
  Te  Te84  1  0.41554692  0.41804891  0.08454971  1
  Te  Te85  1  0.38683901  0.44778095  0.43356220  1
  Te  Te86  1  0.38821075  0.43714949  0.69987474  1
  Te  Te87  1  0.40965594  0.75465845  0.07586066  1
  Te  Te88  1  0.42861219  0.75674411  0.41642264  1
  Te  Te89  1  0.39355033  0.74916382  0.74234370  1
  Te  Te90  1  0.71639799  0.06603542  0.07531079  1
  Te  Te91  1  0.76212479  0.07086834  0.42680203  1
  Te  Te92  1  0.72391365  0.11894835  0.75732099  1
  Te  Te93  1  0.73765782  0.41426465  0.07169747  1
  Te  Te94  1  0.73910944  0.41861390  0.40275859  1
  Te  Te95  1  0.75644178  0.41731276  0.77716748  1
  Te  Te96  1  0.73194950  0.75738559  0.06571133  1
  Te  Te97  1  0.74509077  0.75152847  0.43398656  1
  Te  Te98  1  0.73192445  0.76489798  0.76949300  1
  Te  Te99  1  0.08481333  0.24790152  0.23351304  1
  Te  Te100  1  0.07414604  0.24185619  0.56587211  1
  Te  Te101  1  0.10938219  0.25710516  0.90084285  1
  Te  Te102  1  0.08855014  0.57441245  0.27352092  1
  Te  Te103  1  0.08706260  0.58487114  0.61341069  1
  Te  Te104  1  0.08318105  0.56607658  0.90593415  1
  Te  Te105  1  0.10843033  0.90323727  0.29495698  1
  Te  Te106  1  0.10611949  0.91601976  0.57521521  1
  Te  Te107  1  0.08387789  0.91613882  0.92398251  1
  Te  Te108  1  0.41969641  0.24722032  0.26028747  1
  Te  Te109  1  0.38692962  0.23680474  0.57352198  1
  Te  Te110  1  0.42898507  0.23204277  0.91268405  1
  Te  Te111  1  0.42304845  0.57903117  0.24904634  1
  Te  Te112  1  0.40088729  0.56669664  0.60988117  1
  Te  Te113  1  0.40757664  0.58371410  0.90852714  1
  Te  Te114  1  0.42861677  0.94778467  0.26525671  1
  Te  Te115  1  0.38935553  0.89673839  0.57046057  1
  Te  Te116  1  0.41551166  0.90703463  0.90034208  1
  Te  Te117  1  0.78256567  0.26718061  0.19937980  1
  Te  Te118  1  0.73505798  0.25299065  0.57856214  1
  Te  Te119  1  0.77317797  0.22499056  0.89880034  1
  Te  Te120  1  0.76191658  0.59319107  0.24078324  1
  Te  Te121  1  0.72938073  0.60097451  0.61240248  1
  Te  Te122  1  0.74530187  0.58891017  0.92378329  1
  Te  Te123  1  0.76081406  0.91184854  0.25309755  1
  Te  Te124  1  0.75287667  0.92114375  0.57962769  1
  Te  Te125  1  0.70154265  0.94893674  0.89699188  1
  Te  Te126  1  0.24902427  0.26550261  0.10693471  1
  Te  Te127  1  0.25767152  0.25676235  0.42248594  1
  Te  Te128  1  0.26541088  0.26407241  0.73981691  1
  Te  Te129  1  0.25540697  0.60007412  0.06862791  1
  Te  Te130  1  0.25005681  0.55843839  0.41813778  1
  Te  Te131  1  0.28520543  0.56214402  0.72084149  1
  Te  Te132  1  0.23953136  0.91644913  0.08876227  1
  Te  Te133  1  0.33060186  0.95166720  0.37452921  1
  Te  Te134  1  0.25931433  0.89197997  0.75902512  1
  Te  Te135  1  0.58620314  0.25104541  0.06886445  1
  Te  Te136  1  0.56994276  0.27201014  0.42282078  1
  Te  Te137  1  0.57374632  0.24772101  0.78245735  1
  Te  Te138  1  0.60861637  0.58211437  0.08648484  1
  Te  Te139  1  0.57970342  0.58335123  0.41589529  1
  Te  Te140  1  0.57292347  0.58095503  0.72551004  1
  Te  Te141  1  0.55961779  0.92904694  0.08342701  1
  Te  Te142  1  0.58870883  0.89948618  0.42271402  1
  Te  Te143  1  0.58669820  0.90567377  0.75792462  1
  Te  Te144  1  0.88657461  0.21993488  0.08990095  1
  Te  Te145  1  0.92379119  0.22261785  0.41245078  1
  Te  Te146  1  0.90628942  0.26652362  0.75177753  1
  Te  Te147  1  0.91734972  0.59026461  0.07750643  1
  Te  Te148  1  0.93481283  0.59468747  0.42509163  1
  Te  Te149  1  0.92534333  0.58464877  0.74840379  1
  Te  Te150  1  0.90791004  0.90988018  0.08181052  1
  Te  Te151  1  0.91809496  0.90715075  0.43382860  1
  Te  Te152  1  0.89519055  0.94657933  0.77189078  1
  Te  Te153  1  0.25813383  0.07115036  0.25972469  1
  Te  Te154  1  0.23060222  0.07447769  0.56954617  1
  Te  Te155  1  0.24208390  0.06689591  0.91899702  1
  Te  Te156  1  0.22041531  0.42515878  0.25021874  1
  Te  Te157  1  0.26135780  0.43837996  0.61453571  1
  Te  Te158  1  0.28736704  0.42927692  0.90292172  1
  Te  Te159  1  0.25705622  0.75647171  0.25501355  1
  Te  Te160  1  0.27650501  0.74886307  0.56683348  1
  Te  Te161  1  0.27579760  0.73020078  0.90087133  1
  Te  Te162  1  0.56242990  0.06779386  0.24112995  1
  Te  Te163  1  0.56597926  0.08026973  0.58855703  1
  Te  Te164  1  0.61994830  0.07341428  0.93995397  1
  Te  Te165  1  0.60577797  0.42874945  0.23710471  1
  Te  Te166  1  0.57704396  0.41983781  0.60639353  1
  Te  Te167  1  0.56675708  0.41111244  0.91006980  1
  Te  Te168  1  0.56195557  0.76480192  0.25840342  1
  Te  Te169  1  0.58646979  0.74271449  0.58513806  1
  Te  Te170  1  0.59963003  0.73705108  0.90012071  1
  Te  Te171  1  0.92783132  0.09538966  0.25122131  1
  Te  Te172  1  0.92232496  0.07782160  0.57537377  1
  Te  Te173  1  0.87492457  0.10910216  0.93277393  1
  Te  Te174  1  0.91664404  0.41751089  0.23819392  1
  Te  Te175  1  0.90522823  0.40877889  0.57371130  1
  Te  Te176  1  0.93574109  0.40880454  0.90263467  1
  Te  Te177  1  0.94576375  0.73271561  0.26106214  1
  Te  Te178  1  0.92408254  0.74270709  0.61033657  1
  Te  Te179  1  0.91158898  0.76376618  0.92595865  1
