# generated using pymatgen
data_In2Te3
_symmetry_space_group_name_H-M   'P 1'
_cell_length_a   18.80467056
_cell_length_b   18.79761854
_cell_length_c   18.80124220
_cell_angle_alpha   90.06158897
_cell_angle_beta   89.92360537
_cell_angle_gamma   89.91491117
_symmetry_Int_Tables_number   1
_chemical_formula_structural   In2Te3
_chemical_formula_sum   'In72 Te108'
_cell_volume   6645.90285827
_cell_formula_units_Z   36
loop_
 _symmetry_equiv_pos_site_id
 _symmetry_equiv_pos_as_xyz
  1  'x, y, z'
loop_
 _atom_site_type_symbol
 _atom_site_label
 _atom_site_symmetry_multiplicity
 _atom_site_fract_x
 _atom_site_fract_y
 _atom_site_fract_z
 _atom_site_occupancy
  In  In0  1  0.80585402  -0.00305907  0.47867767  1
  In  In1  1  0.84874032  0.83793087  0.68236974  1
  In  In2  1  0.68035820  0.51780536  0.83843157  1
  In  In3  1  0.32195894  0.81207426  0.82631556  1
  In  In4  1  0.34494998  0.18740062  0.81152510  1
  In  In5  1  0.17394094  0.32257546  0.16583241  1
  In  In6  1  0.81141135  -0.03607221  0.17961825  1
  In  In7  1  0.16977388  0.80949008  0.66258984  1
  In  In8  1  0.36106731  0.17722970  0.49886163  1
  In  In9  1  0.17644518  0.84268257  0.33215519  1
  In  In10  1  0.01716238  0.65772068  0.68481044  1
  In  In11  1  0.00362947  0.51269407  0.51304469  1
  In  In12  1  0.82807872  0.13632663  0.35464193  1
  In  In13  1  0.50384524  0.82556654  -0.01049017  1
  In  In14  1  0.83974989  0.81691357  -0.00271071  1
  In  In15  1  0.32983542  0.67589330  -0.01649716  1
  In  In16  1  0.02725609  0.35537368  0.69786999  1
  In  In17  1  0.50255906  0.16236847  0.65496588  1
  In  In18  1  0.16631762  0.00282058  0.83147922  1
  In  In19  1  0.51164201  0.67777565  0.48941731  1
  In  In20  1  -0.01146082  0.81455484  0.15313276  1
  In  In21  1  0.65316830  0.49570495  0.51928385  1
  In  In22  1  0.67063525  0.33360884  0.66067480  1
  In  In23  1  0.18854060  0.66551943  0.50313061  1
  In  In24  1  -0.01306071  0.83868716  0.50145397  1
  In  In25  1  0.16967734  0.50646247  -0.04032966  1
  In  In26  1  0.01137082  0.17381889  0.15646499  1
  In  In27  1  -0.01059589  0.15131347  0.50197002  1
  In  In28  1  0.48453415  0.14467591  -0.00491668  1
  In  In29  1  0.18339961  0.32857952  0.50412235  1
  In  In30  1  0.32306903  -0.01109817  0.01624836  1
  In  In31  1  0.65278342  0.67537906  0.64775860  1
  In  In32  1  0.32750187  0.49429486  0.51956277  1
  In  In33  1  0.17167651  0.19941427  -0.00684312  1
  In  In34  1  0.65742237  0.31327513  0.34133116  1
  In  In35  1  0.85477047  0.65464693  0.84446995  1
  In  In36  1  0.17518044  -0.00165696  0.49900050  1
  In  In37  1  0.64855786  0.17184519  0.19258953  1
  In  In38  1  0.64922322  -0.00186643  -0.00500431  1
  In  In39  1  0.49943379  0.83347262  0.33008293  1
  In  In40  1  0.02125660  0.17319935  0.84523676  1
  In  In41  1  0.33049950  0.82986243  0.15938434  1
  In  In42  1  0.32543152  0.64998426  0.68152082  1
  In  In43  1  0.63958127  0.82456527  0.82868991  1
  In  In44  1  0.85044104  -0.02330263  0.80671350  1
  In  In45  1  0.49598014  0.65867138  0.83831464  1
  In  In46  1  0.48170071  0.35614978  0.80970322  1
  In  In47  1  0.65469383  -0.00468016  0.66251295  1
  In  In48  1  0.64709233  0.54617709  0.14632743  1
  In  In49  1  0.79705490  0.68338367  0.48717734  1
  In  In50  1  0.36180690  0.51079539  0.17219505  1
  In  In51  1  0.31357254  0.02104435  0.32526492  1
  In  In52  1  -0.02163637  0.67393749  0.31834881  1
  In  In53  1  0.34437892  0.32978854  0.33109472  1
  In  In54  1  0.64702569  0.82428593  0.17386881  1
  In  In55  1  0.48900111  0.33092359  0.16864312  1
  In  In56  1  0.66806140  0.35462529  -0.00192715  1
  In  In57  1  0.49809661  0.16017067  0.34038002  1
  In  In58  1  0.83707912  0.32602696  0.51303162  1
  In  In59  1  0.67124237  0.15782693  0.86187077  1
  In  In60  1  0.84604118  0.17244814  0.64962998  1
  In  In61  1  0.85777850  0.33953514  0.14906395  1
  In  In62  1  0.83487857  0.17579645  0.01761384  1
  In  In63  1  0.17649693  0.16455758  0.67961479  1
  In  In64  1  -0.00503611  0.51991294  0.13596629  1
  In  In65  1  0.50536208  0.50158134  0.34223630  1
  In  In66  1  0.02739417  0.02980454  -0.00301262  1
  In  In67  1  0.82269882  0.49462524  0.29978461  1
  In  In68  1  0.16161441  0.50879119  0.36127973  1
  In  In69  1  0.16319900  0.69168376  0.14748588  1
  In  In70  1  0.87856558  0.39033542  0.84934960  1
  In  In71  1  0.00288720  -0.00940318  0.33179302  1
  Te  Te72  1  0.12894937  0.08570983  0.10132206  1
  Te  Te73  1  0.09215726  0.08831454  0.40748059  1
  Te  Te74  1  0.06704385  0.07498869  0.73839369  1
  Te  Te75  1  0.10505163  0.43131684  0.07995594  1
  Te  Te76  1  0.07327960  0.40494889  0.42793980  1
  Te  Te77  1  0.09377875  0.45611684  0.78322655  1
  Te  Te78  1  0.04813815  0.71653600  0.05766983  1
  Te  Te79  1  0.08328102  0.74359271  0.42087194  1
  Te  Te80  1  0.11895477  0.72281318  0.77305980  1
  Te  Te81  1  0.41020145  0.07387728  0.09985255  1
  Te  Te82  1  0.42462349  0.05758684  0.42797036  1
  Te  Te83  1  0.41527060  0.06820183  0.73834071  1
  Te  Te84  1  0.41833568  0.41764743  0.07352437  1
  Te  Te85  1  0.42483350  0.40915093  0.43199089  1
  Te  Te86  1  0.37914137  0.45027943  0.75688251  1
  Te  Te87  1  0.42630161  0.73506757  0.08577544  1
  Te  Te88  1  0.40810402  0.76030417  0.42214005  1
  Te  Te89  1  0.42923808  0.75002271  0.73721184  1
  Te  Te90  1  0.74013556  0.07913501  0.08963043  1
  Te  Te91  1  0.70363935  0.08592387  0.41559024  1
  Te  Te92  1  0.75278238  0.08983883  0.74929529  1
  Te  Te93  1  0.74710020  0.43176462  0.10094964  1
  Te  Te94  1  0.75323804  0.41478232  0.41935549  1
  Te  Te95  1  0.75841457  0.41643681  0.75330255  1
  Te  Te96  1  0.75102056  0.75066046  0.09454093  1
  Te  Te97  1  0.71533572  0.77320290  0.40337589  1
  Te  Te98  1  0.74864262  0.74365954  0.75778783  1
  Te  Te99  1  0.08484945  0.25042318  0.25831522  1
  Te  Te100  1  0.07136970  0.24591885  0.58947325  1
  Te  Te101  1  0.08993977  0.28882234  0.90673157  1
  Te  Te102  1  0.08882628  0.59023719  0.25244398  1
  Te  Te103  1  0.11508818  0.57270681  0.59841325  1
  Te  Te104  1  0.04334949  0.55316218  0.89340455  1
  Te  Te105  1  0.08381393  0.90831025  0.23155793  1
  Te  Te106  1  0.08410053  0.91487616  0.58905785  1
  Te  Te107  1  0.09241643  0.91727026  0.92760868  1
  Te  Te108  1  0.40411351  0.22551363  0.23720036  1
  Te  Te109  1  0.40318509  0.26319317  0.61132104  1
  Te  Te110  1  0.42349068  0.26204584  0.91900054  1
  Te  Te111  1  0.44347495  0.60558415  0.25337476  1
  Te  Te112  1  0.42794180  0.58605431  0.58606553  1
  Te  Te113  1  0.40867916  0.56679358  0.91748788  1
  Te  Te114  1  0.40733614  0.92665090  0.24675296  1
  Te  Te115  1  0.38827351  0.94934233  0.64971904  1
  Te  Te116  1  0.40427338  0.90934482  0.91121002  1
  Te  Te117  1  0.76815369  0.25344538  0.24494643  1
  Te  Te118  1  0.73137600  0.22923688  0.56599662  1
  Te  Te119  1  0.76750751  0.27081674  0.91433216  1
  Te  Te120  1  0.74602689  0.60480224  0.23989801  1
  Te  Te121  1  0.75907233  0.57813895  0.59152355  1
  Te  Te122  1  0.77179958  0.57634751  0.94374842  1
  Te  Te123  1  0.72003067  0.90301250  0.28204834  1
  Te  Te124  1  0.74945809  0.90016193  0.58681437  1
  Te  Te125  1  0.74442981  0.91438791  0.90904350  1
  Te  Te126  1  0.27500110  0.26749929  0.07325721  1
  Te  Te127  1  0.25203771  0.23436551  0.40614657  1
  Te  Te128  1  0.22670029  0.26799316  0.77223981  1
  Te  Te129  1  0.24828576  0.58130693  0.08391446  1
  Te  Te130  1  0.28141136  0.58993915  0.40849938  1
  Te  Te131  1  0.27362566  0.56440700  0.79507663  1
  Te  Te132  1  0.22928388  0.88618863  0.06687501  1
  Te  Te133  1  0.27333046  0.90613151  0.42892816  1
  Te  Te134  1  0.25964979  0.92528495  0.72953410  1
  Te  Te135  1  0.59004201  0.24157094  0.06899014  1
  Te  Te136  1  0.55508440  0.26151449  0.43258533  1
  Te  Te137  1  0.58952500  0.24706697  0.76711467  1
  Te  Te138  1  0.56235844  0.60539881  0.04347762  1
  Te  Te139  1  0.60994600  0.59026295  0.40872408  1
  Te  Te140  1  0.57979387  0.57658420  0.73891429  1
  Te  Te141  1  0.56102754  0.92429940  0.09246169  1
  Te  Te142  1  0.60814871  0.88341865  0.41962186  1
  Te  Te143  1  0.55892596  0.91092727  0.74107157  1
  Te  Te144  1  0.95154479  0.26818568  0.05164125  1
  Te  Te145  1  0.91764176  0.24843203  0.40807923  1
  Te  Te146  1  0.91694191  0.25471679  0.75657981  1
  Te  Te147  1  0.89261245  0.59354017  0.05754115  1
  Te  Te148  1  0.90473868  0.57847861  0.41385588  1
  Te  Te149  1  0.91650601  0.56481902  0.74328487  1
  Te  Te150  1  0.92076355  0.93574253  0.07211760  1
  Te  Te151  1  0.89928283  0.89925890  0.39558575  1
  Te  Te152  1  0.96179855  0.88736966  0.76511660  1
  Te  Te153  1  0.21400131  0.07353737  0.23357100  1
  Te  Te154  1  0.26460134  0.08816247  0.58285879  1
  Te  Te155  1  0.25888648  0.09532270  0.91026370  1
  Te  Te156  1  0.25411293  0.43142934  0.26161112  1
  Te  Te157  1  0.24621233  0.40938526  0.60932705  1
  Te  Te158  1  0.27181079  0.42969996  0.87949950  1
  Te  Te159  1  0.25832363  0.73723136  0.25843233  1
  Te  Te160  1  0.28413219  0.75774306  0.57648432  1
  Te  Te161  1  0.21839281  0.74245776  0.90915675  1
  Te  Te162  1  0.58313610  0.06335005  0.26493438  1
  Te  Te163  1  0.57354866  0.06959024  0.56302332  1
  Te  Te164  1  0.55721599  0.05970400  0.89030399  1
  Te  Te165  1  0.59210190  0.41490864  0.24386019  1
  Te  Te166  1  0.56257536  0.41363966  0.60042618  1
  Te  Te167  1  0.57386697  0.43233381  0.90974868  1
  Te  Te168  1  0.55693439  0.72474204  0.24148527  1
  Te  Te169  1  0.57349986  0.77977277  0.58055920  1
  Te  Te170  1  0.60587143  0.71619845  0.94051735  1
  Te  Te171  1  0.91238355  0.07901433  0.23699441  1
  Te  Te172  1  0.90933231  0.05036177  0.58262334  1
  Te  Te173  1  0.90290406  0.08518230  0.91161583  1
  Te  Te174  1  0.94447328  0.42094257  0.24487475  1
  Te  Te175  1  0.92251158  0.41660116  0.60038286  1
  Te  Te176  1  0.92923314  0.47096886  0.96604326  1
  Te  Te177  1  0.88305553  0.74918904  0.23502662  1
  Te  Te178  1  0.91744948  0.72998593  0.58277343  1
  Te  Te179  1  0.93941031  0.76344826  0.90119193  1
