# generated using pymatgen
data_In2Te3
_symmetry_space_group_name_H-M   'P 1'
_cell_length_a   19.01688361
_cell_length_b   19.01973992
_cell_length_c   19.03684617
_cell_angle_alpha   89.84777075
_cell_angle_beta   90.23926580
_cell_angle_gamma   90.07457451
_symmetry_Int_Tables_number   1
_chemical_formula_structural   In2Te3
_chemical_formula_sum   'In72 Te108'
_cell_volume   6885.46447563
_cell_formula_units_Z   36
loop_
 _symmetry_equiv_pos_site_id
 _symmetry_equiv_pos_as_xyz
  1  'x, y, z'
loop_
 _atom_site_type_symbol
 _atom_site_label
 _atom_site_symmetry_multiplicity
 _atom_site_fract_x
 _atom_site_fract_y
 _atom_site_fract_z
 _atom_site_occupancy
  In  In0  1  0.83473148  0.51080548  0.35335069  1
  In  In1  1  0.35285206  -0.01018873  -0.01008135  1
  In  In2  1  0.19813532  0.66019851  0.83069957  1
  In  In3  1  0.82678009  0.19693459  0.67133208  1
  In  In4  1  0.84425882  0.78549027  0.62669447  1
  In  In5  1  0.65364118  0.79174409  0.84986559  1
  In  In6  1  0.82184029  0.13324036  0.33866006  1
  In  In7  1  0.48658954  -0.00339985  0.50679233  1
  In  In8  1  0.65426841  0.00374220  0.65664639  1
  In  In9  1  0.34447138  0.52602126  0.82816588  1
  In  In10  1  0.53286710  0.67373937  0.17957492  1
  In  In11  1  0.65762148  0.33445878  -0.01810029  1
  In  In12  1  0.00458951  0.17237837  0.50421962  1
  In  In13  1  0.64893205  0.33938021  0.31898928  1
  In  In14  1  0.01119729  0.15755401  0.84257732  1
  In  In15  1  -0.00049527  0.82651482  0.84364127  1
  In  In16  1  0.82527024  0.63817312  0.13647470  1
  In  In17  1  0.13297335  0.66594529  0.18888082  1
  In  In18  1  0.82237207  0.81465167  0.00005195  1
  In  In19  1  0.32763764  0.83321187  0.17763688  1
  In  In20  1  0.33981307  0.17639897  0.82060886  1
  In  In21  1  0.15960312  0.84697161  0.65894225  1
  In  In22  1  0.15277650  0.86420591  0.34017305  1
  In  In23  1  0.31752209  0.31383720  0.33981160  1
  In  In24  1  0.32144570  0.01330643  0.65636275  1
  In  In25  1  0.50483036  0.33652840  0.80880378  1
  In  In26  1  0.01535749  0.33747459  0.65658810  1
  In  In27  1  0.65230499  0.15832024  0.15485858  1
  In  In28  1  0.67348373  0.00942559  -0.00254184  1
  In  In29  1  0.64787797  0.53031798  0.81218099  1
  In  In30  1  0.33060028  0.37859032  0.62691232  1
  In  In31  1  0.49142851  -0.00221114  0.83215449  1
  In  In32  1  0.35174365  0.82788594  0.80662739  1
  In  In33  1  0.52772715  0.80870172  0.64286756  1
  In  In34  1  0.48935625  0.16755597  0.30774514  1
  In  In35  1  0.15650244  0.49118672  0.00467922  1
  In  In36  1  -0.01684750  0.83520763  0.19289236  1
  In  In37  1  0.15982330  0.16202347  0.34034472  1
  In  In38  1  0.35506405  0.65400386  0.02476862  1
  In  In39  1  0.66715136  0.49477771  0.17124937  1
  In  In40  1  -0.02493884  0.64636565  0.36386593  1
  In  In41  1  0.16468917  0.02000054  0.49996275  1
  In  In42  1  0.50905952  0.51668674  0.34948648  1
  In  In43  1  0.51322019  -0.00958861  0.16014241  1
  In  In44  1  0.83746230  0.31713819  0.14759207  1
  In  In45  1  0.00512164  0.50064975  0.16529048  1
  In  In46  1  -0.00596281  0.50294133  0.82550906  1
  In  In47  1  0.83565076  0.34575004  0.87041559  1
  In  In48  1  -0.01431195  -0.02015375  0.00664464  1
  In  In49  1  0.16870694  0.32362555  0.82144778  1
  In  In50  1  0.82944817  0.34910892  0.48891685  1
  In  In51  1  0.32883291  0.66089158  0.36847847  1
  In  In52  1  0.50384326  0.15823763  0.00589033  1
  In  In53  1  0.52645015  0.81366179  0.33421954  1
  In  In54  1  -0.01746961  0.16206861  0.17324068  1
  In  In55  1  0.15954134  0.65768667  0.49912126  1
  In  In56  1  0.66781894  0.37220241  0.66184977  1
  In  In57  1  0.32089225  0.33772505  0.02021415  1
  In  In58  1  0.51065978  0.67405913  0.49555567  1
  In  In59  1  0.34877156  0.66809102  0.64062327  1
  In  In60  1  0.51002222  0.34346830  0.50135629  1
  In  In61  1  0.67430890  0.81974078  0.49600065  1
  In  In62  1  -0.00805458  0.50723769  0.49702757  1
  In  In63  1  0.01380973  0.35337797  0.34257660  1
  In  In64  1  0.83761741  -0.01102563  0.80097632  1
  In  In65  1  0.16259198  0.83419386  -0.00114008  1
  In  In66  1  0.32218813  0.01759004  0.33373266  1
  In  In67  1  0.81837504  -0.04207414  0.44882592  1
  In  In68  1  0.17365606  0.16772144  -0.00108098  1
  In  In69  1  0.32401477  0.49053009  0.18962563  1
  In  In70  1  0.82938828  0.65071361  0.84254103  1
  In  In71  1  0.01541543  0.01528125  0.67608949  1
  Te  Te72  1  0.07303739  0.08214281  0.07469479  1
  Te  Te73  1  0.05641528  0.07026025  0.40660359  1
  Te  Te74  1  0.10789726  0.10742050  0.74338451  1
  Te  Te75  1  0.09168585  0.40365867  0.10021473  1
  Te  Te76  1  0.09239757  0.39992817  0.46070408  1
  Te  Te77  1  0.09888034  0.43061662  0.74097163  1
  Te  Te78  1  0.06786293  0.75716610  0.08701499  1
  Te  Te79  1  0.08051762  0.75114255  0.40809573  1
  Te  Te80  1  0.09841360  0.75043904  0.75796273  1
  Te  Te81  1  0.41076231  0.08183726  0.09586145  1
  Te  Te82  1  0.41317895  0.09935779  0.42060691  1
  Te  Te83  1  0.42834457  0.09174860  0.73275969  1
  Te  Te84  1  0.40169779  0.44531381  0.07594298  1
  Te  Te85  1  0.41589679  0.41517766  0.40715255  1
  Te  Te86  1  0.42436124  0.43976616  0.73486273  1
  Te  Te87  1  0.43193579  0.76096961  0.09808347  1
  Te  Te88  1  0.41477407  0.76965511  0.42752472  1
  Te  Te89  1  0.44888469  0.72256359  0.74942384  1
  Te  Te90  1  0.75740831  0.08203042  0.09131133  1
  Te  Te91  1  0.74629414  0.08476684  0.45153338  1
  Te  Te92  1  0.74329851  0.09179562  0.74474609  1
  Te  Te93  1  0.74966924  0.41500415  0.07361568  1
  Te  Te94  1  0.72180647  0.42856242  0.41650998  1
  Te  Te95  1  0.75798889  0.43138123  0.77418555  1
  Te  Te96  1  0.73421796  0.74844706  0.09745349  1
  Te  Te97  1  0.78017332  0.77888772  0.39964165  1
  Te  Te98  1  0.76028471  0.75208966  0.75259623  1
  Te  Te99  1  0.07723056  0.25503293  0.25101643  1
  Te  Te100  1  0.09343774  0.22147900  0.61176445  1
  Te  Te101  1  0.08002719  0.26451274  0.92652186  1
  Te  Te102  1  0.07713978  0.56347253  0.28352071  1
  Te  Te103  1  0.06055792  0.59956074  0.59481064  1
  Te  Te104  1  0.09216604  0.59049721  0.91160862  1
  Te  Te105  1  0.09116852  0.92846134  0.22613402  1
  Te  Te106  1  0.06738903  0.92385380  0.56685745  1
  Te  Te107  1  0.08934816  0.93024173  0.90687569  1
  Te  Te108  1  0.40081165  0.25579971  0.23371220  1
  Te  Te109  1  0.42359732  0.27094501  0.59397838  1
  Te  Te110  1  0.42071584  0.25575350  0.92159837  1
  Te  Te111  1  0.41309515  0.60542175  0.25604752  1
  Te  Te112  1  0.42663463  0.57062267  0.56142236  1
  Te  Te113  1  0.43438080  0.60426125  0.91398562  1
  Te  Te114  1  0.42282758  0.91507324  0.26459453  1
  Te  Te115  1  0.41728067  0.90376691  0.60416689  1
  Te  Te116  1  0.43763165  0.88641151  0.91899149  1
  Te  Te117  1  0.74827630  0.24716282  0.25250159  1
  Te  Te118  1  0.73737238  0.26295512  0.57034235  1
  Te  Te119  1  0.74810152  0.24052015  0.91889669  1
  Te  Te120  1  0.74586207  0.58875209  0.25882711  1
  Te  Te121  1  0.69762403  0.50119574  0.59825896  1
  Te  Te122  1  0.72161005  0.59390559  0.93029694  1
  Te  Te123  1  0.78855462  0.90570434  0.30932108  1
  Te  Te124  1  0.75681242  0.91068935  0.59373953  1
  Te  Te125  1  0.75332414  0.90741603  0.89836269  1
  Te  Te126  1  0.24924875  0.24149833  0.10062657  1
  Te  Te127  1  0.24137582  0.23471590  0.43906267  1
  Te  Te128  1  0.27159361  0.27178325  0.72671341  1
  Te  Te129  1  0.23065606  0.59839306  0.09183732  1
  Te  Te130  1  0.25263606  0.55713514  0.44180992  1
  Te  Te131  1  0.25285428  0.57914999  0.71689870  1
  Te  Te132  1  0.25186124  0.92333413  0.08279267  1
  Te  Te133  1  0.25769508  0.92141572  0.43122058  1
  Te  Te134  1  0.24809417  0.92483169  0.75627502  1
  Te  Te135  1  0.57107340  0.26549237  0.08810070  1
  Te  Te136  1  0.57706943  0.24280974  0.40755282  1
  Te  Te137  1  0.60446461  0.26182640  0.73627670  1
  Te  Te138  1  0.58240988  0.57679477  0.08127259  1
  Te  Te139  1  0.60478161  0.61384106  0.40125724  1
  Te  Te140  1  0.57175903  0.62696473  0.73210882  1
  Te  Te141  1  0.58831056  0.91226441  0.06419627  1
  Te  Te142  1  0.58855137  0.91917695  0.42302957  1
  Te  Te143  1  0.58512486  0.90105846  0.75487962  1
  Te  Te144  1  0.92027971  0.23571666  0.06224529  1
  Te  Te145  1  0.91521200  0.25372722  0.40688484  1
  Te  Te146  1  0.92661509  0.26436228  0.76506354  1
  Te  Te147  1  0.92167753  0.55912788  0.05734123  1
  Te  Te148  1  0.87057564  0.60293486  0.46814992  1
  Te  Te149  1  0.91429475  0.59110204  0.73951494  1
  Te  Te150  1  0.88869521  0.90999437  0.09819910  1
  Te  Te151  1  0.91490538  0.86202434  0.39111494  1
  Te  Te152  1  0.92787809  0.89296926  0.72742493  1
  Te  Te153  1  0.23147100  0.08171124  0.24097384  1
  Te  Te154  1  0.26115862  0.11116494  0.56414039  1
  Te  Te155  1  0.26266118  0.08221522  0.90960744  1
  Te  Te156  1  0.23392934  0.41701936  0.27429927  1
  Te  Te157  1  0.21817860  0.43241636  0.54851978  1
  Te  Te158  1  0.25678583  0.42451979  0.90221132  1
  Te  Te159  1  0.24040978  0.74399401  0.26517869  1
  Te  Te160  1  0.24708158  0.75864439  0.57351972  1
  Te  Te161  1  0.27032994  0.75741036  0.92305610  1
  Te  Te162  1  0.59573521  0.06708359  0.26066334  1
  Te  Te163  1  0.57589744  0.09229236  0.57267383  1
  Te  Te164  1  0.58795338  0.09155060  0.90130623  1
  Te  Te165  1  0.55249879  0.42207925  0.23892198  1
  Te  Te166  1  0.55557109  0.46805207  0.57965391  1
  Te  Te167  1  0.57151183  0.43129171  0.90515894  1
  Te  Te168  1  0.62407866  0.77884687  0.23141493  1
  Te  Te169  1  0.63024791  0.70900939  0.59246963  1
  Te  Te170  1  0.60638980  0.69316085  0.94719142  1
  Te  Te171  1  0.91046512  0.06031217  0.25149564  1
  Te  Te172  1  0.91258761  0.09517762  0.59800754  1
  Te  Te173  1  0.90834431  0.06843935  0.90829351  1
  Te  Te174  1  0.90000096  0.41674452  0.25405702  1
  Te  Te175  1  0.90751127  0.42281163  0.59451384  1
  Te  Te176  1  0.92397759  0.44119727  0.94071452  1
  Te  Te177  1  0.91307740  0.70997440  0.23943681  1
  Te  Te178  1  0.96332874  0.72016801  0.57710392  1
  Te  Te179  1  0.92580953  0.73032782  0.93152081  1
