# generated using pymatgen
data_In2Te3
_symmetry_space_group_name_H-M   'P 1'
_cell_length_a   18.99825754
_cell_length_b   18.96500883
_cell_length_c   18.99486684
_cell_angle_alpha   90.03880355
_cell_angle_beta   90.03505044
_cell_angle_gamma   89.93708492
_symmetry_Int_Tables_number   1
_chemical_formula_structural   In2Te3
_chemical_formula_sum   'In72 Te108'
_cell_volume   6843.88385694
_cell_formula_units_Z   36
loop_
 _symmetry_equiv_pos_site_id
 _symmetry_equiv_pos_as_xyz
  1  'x, y, z'
loop_
 _atom_site_type_symbol
 _atom_site_label
 _atom_site_symmetry_multiplicity
 _atom_site_fract_x
 _atom_site_fract_y
 _atom_site_fract_z
 _atom_site_occupancy
  In  In0  1  0.00266915  0.33678504  0.67073576  1
  In  In1  1  0.34491239  0.49024984  0.49225125  1
  In  In2  1  0.17488358  0.66047674  0.50132960  1
  In  In3  1  0.31511211  0.66589038  0.29770596  1
  In  In4  1  0.64434474  0.46882823  0.17839744  1
  In  In5  1  0.84058917  0.16268620  0.32181599  1
  In  In6  1  0.33286423  0.59872381  0.03413369  1
  In  In7  1  0.47631666  0.17792319  0.01847426  1
  In  In8  1  0.49181156  0.02387712  0.86398200  1
  In  In9  1  0.66840779  0.33396571  0.63835515  1
  In  In10  1  0.83205978  0.33916397  0.17330083  1
  In  In11  1  0.50275233  0.81848177  0.02540109  1
  In  In12  1  0.48799964  0.82031543  0.67978167  1
  In  In13  1  0.02688282  -0.02046214  0.01767843  1
  In  In14  1  0.01759395  0.02543765  0.36832459  1
  In  In15  1  0.49649296  0.65949421  0.48220655  1
  In  In16  1  0.66200888  0.66892047  0.33414381  1
  In  In17  1  0.65907547  0.68426037  0.66084514  1
  In  In18  1  0.15862050  0.33910903  0.84245983  1
  In  In19  1  -0.02329426  0.02306414  0.63854995  1
  In  In20  1  0.15291838  0.34338037  0.48856471  1
  In  In21  1  0.68149894  0.87874648  0.80062766  1
  In  In22  1  0.62882782  0.17733237  0.16853871  1
  In  In23  1  0.34895040  0.02348326  0.67017701  1
  In  In24  1  0.83327199  0.50230242  0.32162879  1
  In  In25  1  0.65977275  0.01636089  -0.02219009  1
  In  In26  1  -0.01651979  0.31619729  -0.01296257  1
  In  In27  1  0.02452488  0.83408569  0.16434158  1
  In  In28  1  0.01271298  0.65832269  0.00675314  1
  In  In29  1  0.52420313  0.30268693  0.46220151  1
  In  In30  1  0.73516771  0.02421368  0.63042898  1
  In  In31  1  0.14465539  0.83540580  0.67541472  1
  In  In32  1  0.15896905  0.18885782  0.64634543  1
  In  In33  1  0.30754111  0.19023136  0.50920753  1
  In  In34  1  0.30374670  0.82436980  0.85534903  1
  In  In35  1  0.00244205  0.49469405  0.84662766  1
  In  In36  1  -0.02378919  0.16970997  0.82928887  1
  In  In37  1  0.51428651  -0.01806583  0.21094479  1
  In  In38  1  0.49271314  0.32300906  0.85811140  1
  In  In39  1  0.31623546  0.83171671  0.48773829  1
  In  In40  1  0.64208482  0.47980161  0.83778169  1
  In  In41  1  0.18078435  0.32388912  0.16542732  1
  In  In42  1  0.66740987  0.03669422  0.33910220  1
  In  In43  1  0.02144972  0.17196551  0.16213931  1
  In  In44  1  0.49490636  0.64022487  0.17739917  1
  In  In45  1  0.85386286  0.65957897  0.14318628  1
  In  In46  1  0.18316439  -0.00430005  0.18164197  1
  In  In47  1  0.51353841  0.15242357  0.66466049  1
  In  In48  1  0.50601824  0.00363579  0.48063140  1
  In  In49  1  0.01860520  0.65119901  0.34603486  1
  In  In50  1  0.00895499  0.50538789  0.15420089  1
  In  In51  1  0.17128911  0.66052700  0.83791479  1
  In  In52  1  0.81996713  0.50603145  0.68648005  1
  In  In53  1  0.00888410  0.50311765  0.50152238  1
  In  In54  1  0.83009040  0.04058271  0.82011906  1
  In  In55  1  0.86481408  0.84864044  0.65329520  1
  In  In56  1  0.67499886  0.80567059  0.16425850  1
  In  In57  1  0.32491499  0.34202443  0.65883529  1
  In  In58  1  0.48162919  0.67832839  0.86948600  1
  In  In59  1  0.84328563  0.31923823  0.47815231  1
  In  In60  1  0.00978858  0.81849109  0.49206487  1
  In  In61  1  0.31634967  -0.00240945  0.01898443  1
  In  In62  1  0.83066956  0.83265202  0.33093996  1
  In  In63  1  0.34009417  -0.00684739  0.33919161  1
  In  In64  1  0.34659073  0.17689300  0.18626503  1
  In  In65  1  0.31846614  0.50228366  0.86195595  1
  In  In66  1  0.49393859  0.50981420  0.66610266  1
  In  In67  1  0.85110622  0.67694343  0.85188095  1
  In  In68  1  0.82034943  0.01682620  0.14533649  1
  In  In69  1  0.15325634  0.00164366  0.84405107  1
  In  In70  1  0.68154661  0.51108156  0.48578111  1
  In  In71  1  0.66505657  0.66509526  -0.01372188  1
  Te  Te72  1  0.11485417  0.08602735  0.07967833  1
  Te  Te73  1  0.07903971  0.11882598  0.45991831  1
  Te  Te74  1  0.08374281  0.08941857  0.73385371  1
  Te  Te75  1  0.07657570  0.39521829  0.07566437  1
  Te  Te76  1  0.08913106  0.43972626  0.39819216  1
  Te  Te77  1  0.09451365  0.43232769  0.74100691  1
  Te  Te78  1  0.10123256  0.72407954  0.10626575  1
  Te  Te79  1  0.11294988  0.75602576  0.40001859  1
  Te  Te80  1  0.07741456  0.75910202  0.77979899  1
  Te  Te81  1  0.43017140  0.05863766  0.10103562  1
  Te  Te82  1  0.40324824  0.09975944  0.42826442  1
  Te  Te83  1  0.41158724  0.11558723  0.77226642  1
  Te  Te84  1  0.37389481  0.47762083  0.12279060  1
  Te  Te85  1  0.40702050  0.37981804  0.41484290  1
  Te  Te86  1  0.41472787  0.41823437  0.75600244  1
  Te  Te87  1  0.40652668  0.72590009  0.08943278  1
  Te  Te88  1  0.40397083  0.74539410  0.40051724  1
  Te  Te89  1  0.39411967  0.73787546  0.76254487  1
  Te  Te90  1  0.73035394  0.11398255  0.07235080  1
  Te  Te91  1  0.78378963  0.06848350  0.42162980  1
  Te  Te92  1  0.70927822  0.09605957  0.75551651  1
  Te  Te93  1  0.74185854  0.41281457  0.08441184  1
  Te  Te94  1  0.74378681  0.40665714  0.39754130  1
  Te  Te95  1  0.74190173  0.39799117  0.75596342  1
  Te  Te96  1  0.76766660  0.75148444  0.05768982  1
  Te  Te97  1  0.74871497  0.74929853  0.41895515  1
  Te  Te98  1  0.75757520  0.75661877  0.75145202  1
  Te  Te99  1  0.09676308  0.24812552  0.26032171  1
  Te  Te100  1  0.04801381  0.23991279  0.55372099  1
  Te  Te101  1  0.08625402  0.22960610  0.91663888  1
  Te  Te102  1  0.09796204  0.59597564  0.23320970  1
  Te  Te103  1  0.06666561  0.60887642  0.58694551  1
  Te  Te104  1  0.10399824  0.56248590  0.93405204  1
  Te  Te105  1  0.08343052  0.92400931  0.26970476  1
  Te  Te106  1  0.07727922  0.92688394  0.57588992  1
  Te  Te107  1  0.10803279  0.89273740  0.93031548  1
  Te  Te108  1  0.43142981  0.28756034  0.23620769  1
  Te  Te109  1  0.42840455  0.25734014  0.58516594  1
  Te  Te110  1  0.38555499  0.27111026  0.94575160  1
  Te  Te111  1  0.41356763  0.55692905  0.26831854  1
  Te  Te112  1  0.40359143  0.59835993  0.58441973  1
  Te  Te113  1  0.44388124  0.55003707  0.93345770  1
  Te  Te114  1  0.39713503  0.89400100  0.23970751  1
  Te  Te115  1  0.41518118  0.91907846  0.57943063  1
  Te  Te116  1  0.41888484  0.90285668  0.92706067  1
  Te  Te117  1  0.73814231  0.24751777  0.25000777  1
  Te  Te118  1  0.75411532  0.24099525  0.56499949  1
  Te  Te119  1  0.82734528  0.18882406  0.86436255  1
  Te  Te120  1  0.74832137  0.59143112  0.23160443  1
  Te  Te121  1  0.75648044  0.59893740  0.58293715  1
  Te  Te122  1  0.74670830  0.57461664  0.89822103  1
  Te  Te123  1  0.74472008  0.92254789  0.23999530  1
  Te  Te124  1  0.74701474  0.88826473  0.57745025  1
  Te  Te125  1  0.76316640  0.92827125  0.91444844  1
  Te  Te126  1  0.26791825  0.23939530  0.07863491  1
  Te  Te127  1  0.25717133  0.27972032  0.40505257  1
  Te  Te128  1  0.24776958  0.25154629  0.75131978  1
  Te  Te129  1  0.23214562  0.54729458  0.13503381  1
  Te  Te130  1  0.25196908  0.57321284  0.40579132  1
  Te  Te131  1  0.25489676  0.57464604  0.75306144  1
  Te  Te132  1  0.24831732  0.89155805  0.09667452  1
  Te  Te133  1  0.23428411  0.92869101  0.41729818  1
  Te  Te134  1  0.26077521  0.92408934  0.74640263  1
  Te  Te135  1  0.53587217  0.28344743  0.11155836  1
  Te  Te136  1  0.60737634  0.20585533  0.39280139  1
  Te  Te137  1  0.57625832  0.26786928  0.73878730  1
  Te  Te138  1  0.58893070  0.57426512  0.07864813  1
  Te  Te139  1  0.57229040  0.56213856  0.39361617  1
  Te  Te140  1  0.57482858  0.60163318  0.75630442  1
  Te  Te141  1  0.59973129  0.92161265  0.08417941  1
  Te  Te142  1  0.58566629  0.92334572  0.38687383  1
  Te  Te143  1  0.55362048  0.93806022  0.74998075  1
  Te  Te144  1  0.90567961  0.23535685  0.08874134  1
  Te  Te145  1  0.93587317  0.25603987  0.38348619  1
  Te  Te146  1  0.90165506  0.24192305  0.72133297  1
  Te  Te147  1  0.90612686  0.55254355  0.05312904  1
  Te  Te148  1  0.90409868  0.58940536  0.42132442  1
  Te  Te149  1  0.92627881  0.58869519  0.75406420  1
  Te  Te150  1  0.91365516  0.90710234  0.09157264  1
  Te  Te151  1  0.92042085  0.91683507  0.41899218  1
  Te  Te152  1  0.92802103  0.93872153  0.75407105  1
  Te  Te153  1  0.24995266  0.09804866  0.27038595  1
  Te  Te154  1  0.23961340  0.07560129  0.58040360  1
  Te  Te155  1  0.26078848  0.07625718  0.90982687  1
  Te  Te156  1  0.26839842  0.42817325  0.22892043  1
  Te  Te157  1  0.23447020  0.43293240  0.58137733  1
  Te  Te158  1  0.24729625  0.40221626  0.94163586  1
  Te  Te159  1  0.27704733  0.79367473  0.23212472  1
  Te  Te160  1  0.24677794  0.75410115  0.59756154  1
  Te  Te161  1  0.26555927  0.71265311  0.94593520  1
  Te  Te162  1  0.54320204  0.11732148  0.28201958  1
  Te  Te163  1  0.60061639  0.08306615  0.56578182  1
  Te  Te164  1  0.58305237  0.13276877  0.91857327  1
  Te  Te165  1  0.55794322  0.37670952  0.25252445  1
  Te  Te166  1  0.57348236  0.43080089  0.56492623  1
  Te  Te167  1  0.60292732  0.37999655  0.93618702  1
  Te  Te168  1  0.56565026  0.75334118  0.25241440  1
  Te  Te169  1  0.57159600  0.76249458  0.56596187  1
  Te  Te170  1  0.59504285  0.77508256  0.90346395  1
  Te  Te171  1  0.93037519  0.06453641  0.23860685  1
  Te  Te172  1  0.85988331  0.08475760  0.57220492  1
  Te  Te173  1  0.93388878  0.06625312  0.93766426  1
  Te  Te174  1  0.93569611  0.41625195  0.25294726  1
  Te  Te175  1  0.90057689  0.42284723  0.58540958  1
  Te  Te176  1  0.90755919  0.39259423  0.88824906  1
  Te  Te177  1  0.92468457  0.74009643  0.25146249  1
  Te  Te178  1  0.93843629  0.73690985  0.59120517  1
  Te  Te179  1  0.94339584  0.76055447  0.92676465  1
