# generated using pymatgen
data_In2Te3
_symmetry_space_group_name_H-M   'P 1'
_cell_length_a   18.96784705
_cell_length_b   18.96604975
_cell_length_c   18.96843313
_cell_angle_alpha   89.98581472
_cell_angle_beta   89.85658279
_cell_angle_gamma   90.01291377
_symmetry_Int_Tables_number   1
_chemical_formula_structural   In2Te3
_chemical_formula_sum   'In72 Te108'
_cell_volume   6823.77969518
_cell_formula_units_Z   36
loop_
 _symmetry_equiv_pos_site_id
 _symmetry_equiv_pos_as_xyz
  1  'x, y, z'
loop_
 _atom_site_type_symbol
 _atom_site_label
 _atom_site_symmetry_multiplicity
 _atom_site_fract_x
 _atom_site_fract_y
 _atom_site_fract_z
 _atom_site_occupancy
  In  In0  1  0.83303987  -0.04515846  0.16682105  1
  In  In1  1  0.80607658  0.36136384  0.82406109  1
  In  In2  1  0.65830432  0.83133429  0.16275383  1
  In  In3  1  0.48366424  0.36867040  0.50907858  1
  In  In4  1  0.49568962  0.16912545  0.70499787  1
  In  In5  1  0.13524688  0.66486705  0.83108641  1
  In  In6  1  0.63804149  0.33815352  0.32969121  1
  In  In7  1  0.68483398  0.14259647  0.18503278  1
  In  In8  1  0.50494786  -0.00751571  0.50772108  1
  In  In9  1  -0.00590179  0.84829874  0.83637954  1
  In  In10  1  0.32877253  0.49034869  0.83629973  1
  In  In11  1  0.80780247  0.65761319  0.51811824  1
  In  In12  1  0.45164218  0.18246869  -0.04073439  1
  In  In13  1  0.34123554  0.49761399  0.17219609  1
  In  In14  1  0.01405970  0.16826211  0.16596792  1
  In  In15  1  0.53490102  0.68685293  0.52619986  1
  In  In16  1  0.21261463  0.13735859  -0.01141007  1
  In  In17  1  -0.00358473  0.50176973  0.17175611  1
  In  In18  1  0.82732848  0.51316328  0.33799283  1
  In  In19  1  0.51048360  0.49059149  0.00236511  1
  In  In20  1  0.81465762  0.84438324  -0.02751166  1
  In  In21  1  0.66231877  0.33194629  0.00607726  1
  In  In22  1  0.00045235  0.66342436  0.66217565  1
  In  In23  1  0.52400010  0.16122602  0.32307348  1
  In  In24  1  0.17808902  0.83215993  0.32559536  1
  In  In25  1  0.18288495  0.67094474  0.50230177  1
  In  In26  1  0.82802607  0.15190390  0.69141409  1
  In  In27  1  0.33443872  0.83197602  0.15446360  1
  In  In28  1  -0.01196993  0.34566869  0.64436106  1
  In  In29  1  0.16925558  0.50435324  0.35698074  1
  In  In30  1  0.32106926  0.31602792  0.67144767  1
  In  In31  1  0.00015529  -0.03843264  0.31925746  1
  In  In32  1  0.17906737  0.82991722  -0.00280233  1
  In  In33  1  -0.02463118  0.70617980  0.32070073  1
  In  In34  1  0.68196507  0.66373353  0.33608422  1
  In  In35  1  0.34099276  0.68290986  0.65332118  1
  In  In36  1  0.16153965  0.33794463  0.50425511  1
  In  In37  1  0.33086927  0.15231197  0.49605161  1
  In  In38  1  0.49992583  0.53161302  0.33812877  1
  In  In39  1  0.18012325  0.31898581  0.84642896  1
  In  In40  1  0.02487165  0.17743689  0.50601061  1
  In  In41  1  0.47836262  0.82854935  0.33970381  1
  In  In42  1  -0.01036478  0.66172210  0.01185635  1
  In  In43  1  0.81658506  -0.01620686  0.51207332  1
  In  In44  1  0.65446460  0.82164247  0.83043089  1
  In  In45  1  0.81295466  0.36520621  0.17106593  1
  In  In46  1  0.34292685  0.15613761  0.16217479  1
  In  In47  1  0.85577015  0.16184720  0.34993206  1
  In  In48  1  0.18313455  0.15704281  0.32141877  1
  In  In49  1  0.81128743  0.81836249  0.67459110  1
  In  In50  1  0.00057118  0.00169279  0.65484262  1
  In  In51  1  0.17272878  0.31473878  0.17152405  1
  In  In52  1  0.01584821  0.02256322  -0.00113826  1
  In  In53  1  0.82601413  0.35395625  0.51909012  1
  In  In54  1  0.67797057  0.14697053  0.52569285  1
  In  In55  1  0.35563512  0.66546943  0.01069378  1
  In  In56  1  0.50443090  0.34087456  0.17464571  1
  In  In57  1  0.52721694  -0.01537725  0.84242160  1
  In  In58  1  0.64758489  0.51770243  0.83302036  1
  In  In59  1  0.34260431  -0.02340017  0.65484823  1
  In  In60  1  0.63322267  0.66667555  -0.01203501  1
  In  In61  1  -0.00405267  0.34466476  -0.01435493  1
  In  In62  1  0.17028924  0.66752069  0.15908172  1
  In  In63  1  0.50857144  0.51573683  0.66907223  1
  In  In64  1  0.66466631  -0.01469878  0.29748125  1
  In  In65  1  0.84461856  0.14813405  0.01769460  1
  In  In66  1  -0.02031671  0.50826128  0.82706019  1
  In  In67  1  0.01023759  0.16045561  0.82469026  1
  In  In68  1  0.67425961  0.16260951  0.82761949  1
  In  In69  1  0.17646913  -0.01016370  0.49804537  1
  In  In70  1  0.34549452  0.82936721  0.81570310  1
  In  In71  1  0.17552080  0.47544903  0.66614904  1
  Te  Te72  1  0.11497034  0.08109995  0.09803004  1
  Te  Te73  1  0.07479203  0.08022812  0.40085146  1
  Te  Te74  1  0.09170890  0.06788359  0.74747319  1
  Te  Te75  1  0.08558598  0.41079222  0.08955665  1
  Te  Te76  1  0.07086010  0.42694245  0.43351648  1
  Te  Te77  1  0.08124783  0.40588979  0.76578264  1
  Te  Te78  1  0.07708973  0.76098645  0.08662100  1
  Te  Te79  1  0.08455714  0.75223319  0.41446124  1
  Te  Te80  1  0.08036352  0.77015223  0.73845507  1
  Te  Te81  1  0.39838882  0.07736865  0.04803896  1
  Te  Te82  1  0.42738126  0.07784438  0.40775315  1
  Te  Te83  1  0.41218128  0.05804112  0.76903461  1
  Te  Te84  1  0.41017472  0.40171196  0.07346937  1
  Te  Te85  1  0.42593296  0.41287821  0.38494520  1
  Te  Te86  1  0.41447490  0.41491535  0.73727202  1
  Te  Te87  1  0.44249354  0.76282056  0.07754545  1
  Te  Te88  1  0.42443849  0.73034129  0.43682161  1
  Te  Te89  1  0.43735218  0.72995123  0.75571440  1
  Te  Te90  1  0.74183269  0.05124418  0.07519350  1
  Te  Te91  1  0.73882039  0.07872011  0.40123518  1
  Te  Te92  1  0.73507503  0.05338081  0.75004936  1
  Te  Te93  1  0.73522556  0.44007773  0.07317754  1
  Te  Te94  1  0.73590067  0.41825825  0.41436463  1
  Te  Te95  1  0.74588788  0.45956801  0.72995234  1
  Te  Te96  1  0.74209623  0.75239331  0.06683330  1
  Te  Te97  1  0.73556701  0.75582499  0.43722491  1
  Te  Te98  1  0.73185155  0.72115208  0.75318671  1
  Te  Te99  1  0.07489173  0.25602536  0.27121507  1
  Te  Te100  1  0.10210611  0.25025506  0.61393085  1
  Te  Te101  1  0.08351331  0.22802731  0.94170932  1
  Te  Te102  1  0.07725954  0.59900992  0.25935688  1
  Te  Te103  1  0.09271345  0.57096027  0.58415886  1
  Te  Te104  1  0.07598917  0.56730534  0.93070792  1
  Te  Te105  1  0.10060391  0.91105017  0.22799233  1
  Te  Te106  1  0.05949193  0.91714744  0.55141086  1
  Te  Te107  1  0.09802413  0.92917773  0.91144113  1
  Te  Te108  1  0.41814406  0.24744808  0.25847865  1
  Te  Te109  1  0.42551431  0.23776872  0.58175312  1
  Te  Te110  1  0.38839371  0.27025912  0.86193806  1
  Te  Te111  1  0.43759231  0.59923287  0.22117201  1
  Te  Te112  1  0.42000479  0.58675842  0.56876893  1
  Te  Te113  1  0.42814585  0.57860790  0.90909773  1
  Te  Te114  1  0.39942372  0.91928824  0.25498137  1
  Te  Te115  1  0.41473176  0.88907877  0.56172019  1
  Te  Te116  1  0.43015411  0.90018846  0.91614385  1
  Te  Te117  1  0.75775216  0.25132570  0.26783864  1
  Te  Te118  1  0.75150069  0.25320523  0.60580013  1
  Te  Te119  1  0.77128705  0.24971280  0.93014325  1
  Te  Te120  1  0.77744648  0.60867260  0.23663237  1
  Te  Te121  1  0.75881531  0.54542423  0.59948151  1
  Te  Te122  1  0.73573664  0.57630454  0.93403971  1
  Te  Te123  1  0.76922036  0.87332251  0.27768639  1
  Te  Te124  1  0.71719491  0.90058808  0.58729925  1
  Te  Te125  1  0.73453972  0.93355052  0.88737771  1
  Te  Te126  1  0.26612265  0.25254183  0.07112902  1
  Te  Te127  1  0.25303006  0.25330627  0.41571565  1
  Te  Te128  1  0.26688825  0.21788886  0.77490185  1
  Te  Te129  1  0.25198524  0.57347119  0.07482659  1
  Te  Te130  1  0.27008343  0.59244027  0.41426196  1
  Te  Te131  1  0.24495174  0.58670782  0.74133367  1
  Te  Te132  1  0.27205668  0.92463763  0.05714900  1
  Te  Te133  1  0.26535277  0.91572639  0.41027395  1
  Te  Te134  1  0.24468068  0.89385406  0.72948434  1
  Te  Te135  1  0.59438973  0.23920528  0.10509611  1
  Te  Te136  1  0.59163976  0.23826465  0.43763895  1
  Te  Te137  1  0.59963731  0.26164222  0.75102109  1
  Te  Te138  1  0.55636148  0.59655839  0.09550643  1
  Te  Te139  1  0.60080931  0.58225702  0.43742103  1
  Te  Te140  1  0.57978546  0.61987228  0.74721709  1
  Te  Te141  1  0.60636582  0.95244334  0.10118435  1
  Te  Te142  1  0.58663216  0.91428232  0.40650311  1
  Te  Te143  1  0.55789525  0.88311049  0.73094384  1
  Te  Te144  1  0.91317142  0.26318207  0.09672686  1
  Te  Te145  1  0.92168993  0.26696312  0.43556427  1
  Te  Te146  1  0.91620398  0.26731996  0.75901553  1
  Te  Te147  1  0.90128609  0.59786501  0.11235409  1
  Te  Te148  1  0.91596998  0.60501083  0.41758778  1
  Te  Te149  1  0.90400149  0.61371517  0.76175318  1
  Te  Te150  1  0.92545941  0.91352487  0.05560697  1
  Te  Te151  1  0.91747310  0.91231257  0.43131431  1
  Te  Te152  1  0.90363678  0.92337222  0.74028943  1
  Te  Te153  1  0.26961382  0.06293323  0.25109008  1
  Te  Te154  1  0.24435844  0.08276462  0.59651458  1
  Te  Te155  1  0.28191023  0.08423507  0.87206347  1
  Te  Te156  1  0.24645989  0.41531639  0.25737148  1
  Te  Te157  1  0.27330574  0.41873167  0.56739977  1
  Te  Te158  1  0.23724881  0.42414595  0.92849907  1
  Te  Te159  1  0.26731251  0.73314776  0.25018831  1
  Te  Te160  1  0.23946556  0.77240930  0.59373399  1
  Te  Te161  1  0.24977399  0.72875136  0.90832671  1
  Te  Te162  1  0.55384007  0.05456321  0.21856927  1
  Te  Te163  1  0.57869140  0.07467358  0.61183919  1
  Te  Te164  1  0.57797248  0.10477565  0.92873717  1
  Te  Te165  1  0.59243429  0.44534527  0.23752652  1
  Te  Te166  1  0.59042690  0.42237070  0.58829403  1
  Te  Te167  1  0.57570135  0.39614786  0.90257057  1
  Te  Te168  1  0.58085969  0.74598195  0.25920470  1
  Te  Te169  1  0.59555542  0.80034505  0.60468721  1
  Te  Te170  1  0.55462142  0.78336399  0.93774679  1
  Te  Te171  1  0.90920306  0.07858243  0.23164655  1
  Te  Te172  1  0.90293263  0.10170137  0.56783216  1
  Te  Te173  1  0.91004009  0.07481805  0.90204911  1
  Te  Te174  1  0.91917227  0.41302978  0.26678917  1
  Te  Te175  1  0.90362614  0.45670260  0.59477303  1
  Te  Te176  1  0.89030588  0.43627589  0.92714921  1
  Te  Te177  1  0.90826068  0.81207317  0.24186815  1
  Te  Te178  1  0.91207763  0.75496979  0.58103422  1
  Te  Te179  1  0.91215441  0.74340735  0.90922001  1
