# generated using pymatgen
data_In2Te3
_symmetry_space_group_name_H-M   'P 1'
_cell_length_a   19.05151441
_cell_length_b   18.99607134
_cell_length_c   19.08348523
_cell_angle_alpha   90.19491493
_cell_angle_beta   89.82776648
_cell_angle_gamma   90.03001918
_symmetry_Int_Tables_number   1
_chemical_formula_structural   In2Te3
_chemical_formula_sum   'In72 Te108'
_cell_volume   6906.31616024
_cell_formula_units_Z   36
loop_
 _symmetry_equiv_pos_site_id
 _symmetry_equiv_pos_as_xyz
  1  'x, y, z'
loop_
 _atom_site_type_symbol
 _atom_site_label
 _atom_site_symmetry_multiplicity
 _atom_site_fract_x
 _atom_site_fract_y
 _atom_site_fract_z
 _atom_site_occupancy
  In  In0  1  0.32478678  0.16151500  0.82438446  1
  In  In1  1  0.83262882  0.13465306  0.32614179  1
  In  In2  1  0.65278729  0.68095610  0.66601681  1
  In  In3  1  0.16267360  0.50526799  0.65151538  1
  In  In4  1  0.00991882  0.82361451  0.83751900  1
  In  In5  1  0.82038613  0.48027258  0.66707285  1
  In  In6  1  -0.03374111  -0.00095737  0.60917923  1
  In  In7  1  0.82800426  0.85026034  0.64403498  1
  In  In8  1  0.68380446  0.18206261  0.81008023  1
  In  In9  1  0.16319307  0.48069304  0.33586718  1
  In  In10  1  0.69040853  0.34208599  0.32066598  1
  In  In11  1  0.34762332  0.34743156  0.33697621  1
  In  In12  1  0.52029745  0.34659779  0.19231331  1
  In  In13  1  -0.01242430  0.83395246  0.49984517  1
  In  In14  1  0.15396452  0.34509270  0.49918094  1
  In  In15  1  0.33855520  0.66680379  0.68638007  1
  In  In16  1  0.83479888  0.15993179  0.00936196  1
  In  In17  1  0.50187423  0.15565571  0.34818494  1
  In  In18  1  0.34232392  -0.04765416  0.31485626  1
  In  In19  1  0.49080714  0.03020047  0.83942379  1
  In  In20  1  0.00418484  0.32461207  0.64572373  1
  In  In21  1  0.49915011  -0.00721645  0.50593968  1
  In  In22  1  0.68791925  0.17107132  0.48461612  1
  In  In23  1  0.49528511  0.48925852  0.68424925  1
  In  In24  1  0.02531913  -0.00589188  0.01363621  1
  In  In25  1  0.48257645  0.65514327  0.84534791  1
  In  In26  1  0.49275235  0.16039612  0.01122061  1
  In  In27  1  0.35733820  0.82243437  0.49797024  1
  In  In28  1  0.01244884  0.35586935  -0.01286158  1
  In  In29  1  0.00911392  0.19087714  0.84434504  1
  In  In30  1  0.32051480  0.16842968  0.50749198  1
  In  In31  1  0.81707704  0.52331872  0.32699898  1
  In  In32  1  -0.00839919  0.68654050  0.31440272  1
  In  In33  1  0.65009970  -0.04327442  0.29174596  1
  In  In34  1  0.50252702  0.55537312  0.31345209  1
  In  In35  1  0.17125272  0.67310277  0.14288142  1
  In  In36  1  0.83227909  0.32842888  0.47787665  1
  In  In37  1  0.65535069  0.70757698  0.32021658  1
  In  In38  1  0.33283814  0.67676701  -0.00100111  1
  In  In39  1  0.34335662  0.51016681  0.86393950  1
  In  In40  1  0.17477654  0.31528773  0.16545266  1
  In  In41  1  0.62815140  0.42780313  0.03487791  1
  In  In42  1  0.82306606  0.66616714  0.50153772  1
  In  In43  1  0.36680755  0.32896831  0.02429302  1
  In  In44  1  0.34427287  0.50687867  0.49970156  1
  In  In45  1  0.16888320  -0.00841836  0.50544844  1
  In  In46  1  0.82271010  0.64730304  0.81711691  1
  In  In47  1  0.16527900  0.01565210  0.83585649  1
  In  In48  1  0.17607171  0.36471738  0.83898349  1
  In  In49  1  -0.00200331  0.16608534  0.16391034  1
  In  In50  1  0.84708693  0.35857341  0.85174703  1
  In  In51  1  0.35648785  0.73091373  0.29353900  1
  In  In52  1  0.16118427  0.66521631  0.48524369  1
  In  In53  1  0.66967141  0.01750336  0.66332185  1
  In  In54  1  0.64016306  -0.01116877  0.02248762  1
  In  In55  1  0.35929397  0.29984052  0.66681660  1
  In  In56  1  0.79668937  0.54174669  0.03337844  1
  In  In57  1  0.14720575  0.14993584  0.33743286  1
  In  In58  1  0.85757023  0.73919304  0.05171419  1
  In  In59  1  0.48966969  0.83034023  0.00801760  1
  In  In60  1  -0.01894525  0.49451016  0.17831412  1
  In  In61  1  0.63993393  0.82491070  0.50687564  1
  In  In62  1  0.17865093  0.82205013  0.70595059  1
  In  In63  1  0.32148350  0.09199667  0.15321405  1
  In  In64  1  0.65525518  0.34155419  0.66991287  1
  In  In65  1  0.14013780  0.66637123  0.90520546  1
  In  In66  1  0.84584751  -0.01954185  0.15205403  1
  In  In67  1  0.81776566  -0.01118246  0.84098395  1
  In  In68  1  0.15902964  0.14866203  0.65245686  1
  In  In69  1  0.01939835  0.81310187  0.14560032  1
  In  In70  1  0.64347464  0.17288880  0.19197641  1
  In  In71  1  0.63966452  0.83393357  0.85053006  1
  Te  Te72  1  0.09789212  0.09885685  0.08169925  1
  Te  Te73  1  0.07152749  0.04968426  0.41346956  1
  Te  Te74  1  0.05828324  0.08620754  0.74474919  1
  Te  Te75  1  0.08854074  0.42181778  0.09872125  1
  Te  Te76  1  0.06053386  0.40749914  0.40783511  1
  Te  Te77  1  0.07530068  0.41937702  0.74110418  1
  Te  Te78  1  0.09179823  0.73503399  0.03300472  1
  Te  Te79  1  0.08391944  0.76775215  0.40610125  1
  Te  Te80  1  0.08691799  0.71886769  0.76305560  1
  Te  Te81  1  0.43420290  0.03363190  0.06732602  1
  Te  Te82  1  0.39459341  0.06669979  0.41023361  1
  Te  Te83  1  0.42411928  0.10602837  0.73310467  1
  Te  Te84  1  0.42854511  0.42695811  0.11358661  1
  Te  Te85  1  0.44112412  0.44222141  0.40390056  1
  Te  Te86  1  0.40087558  0.40440136  0.76543206  1
  Te  Te87  1  0.37266071  0.78675998  0.08957179  1
  Te  Te88  1  0.43419159  0.72380016  0.41996494  1
  Te  Te89  1  0.39953180  0.75975780  0.78343813  1
  Te  Te90  1  0.74122057  0.08118631  0.10219551  1
  Te  Te91  1  0.71777435  0.05916825  0.38672987  1
  Te  Te92  1  0.78010172  0.09040962  0.73627586  1
  Te  Te93  1  0.76088762  0.41096756  0.09078629  1
  Te  Te94  1  0.73968842  0.43653254  0.42761586  1
  Te  Te95  1  0.73313257  0.42022708  0.77467692  1
  Te  Te96  1  0.72368843  0.70903971  0.10607578  1
  Te  Te97  1  0.75504698  0.77257648  0.42313340  1
  Te  Te98  1  0.74152711  0.77818687  0.74592201  1
  Te  Te99  1  0.07340143  0.25609420  0.26112244  1
  Te  Te100  1  0.07627074  0.22591542  0.55472446  1
  Te  Te101  1  0.11320647  0.25811986  0.92810354  1
  Te  Te102  1  0.08890955  0.58835065  0.24962578  1
  Te  Te103  1  0.07619746  0.57124469  0.55666182  1
  Te  Te104  1  0.07452146  0.53750910  0.91918613  1
  Te  Te105  1  0.12968709  0.89249042  0.19573283  1
  Te  Te106  1  0.08700761  0.90079157  0.60434051  1
  Te  Te107  1  0.10544997  0.90515342  0.92159993  1
  Te  Te108  1  0.42406588  0.24541761  0.25519548  1
  Te  Te109  1  0.42942016  0.25624791  0.54761821  1
  Te  Te110  1  0.42171162  0.24476333  0.91021768  1
  Te  Te111  1  0.40684152  0.61370448  0.22158985  1
  Te  Te112  1  0.42802775  0.59092513  0.59223296  1
  Te  Te113  1  0.45764254  0.55061199  0.95597058  1
  Te  Te114  1  0.42771138  0.85652347  0.23679747  1
  Te  Te115  1  0.42711917  0.90428841  0.59801288  1
  Te  Te116  1  0.42510743  0.92159307  0.91220416  1
  Te  Te117  1  0.76920448  0.24166686  0.23939385  1
  Te  Te118  1  0.75411257  0.25905646  0.58775746  1
  Te  Te119  1  0.75879466  0.25502773  0.92074564  1
  Te  Te120  1  0.76597869  0.63828125  0.24692748  1
  Te  Te121  1  0.73405365  0.58108395  0.58781073  1
  Te  Te122  1  0.72934304  0.58249523  0.90788798  1
  Te  Te123  1  0.76969732  0.88812179  0.23817667  1
  Te  Te124  1  0.73641357  0.93203067  0.55883926  1
  Te  Te125  1  0.73904916  0.90596835  0.93955831  1
  Te  Te126  1  0.27750238  0.22862675  0.09779139  1
  Te  Te127  1  0.24590161  0.25360577  0.40265852  1
  Te  Te128  1  0.22507709  0.25450488  0.73722826  1
  Te  Te129  1  0.26003094  0.57787510  0.07720669  1
  Te  Te130  1  0.25610928  0.58105913  0.40276163  1
  Te  Te131  1  0.25054508  0.56760431  0.75718053  1
  Te  Te132  1  0.28930424  0.98232359  0.05910023  1
  Te  Te133  1  0.25005218  0.89470465  0.42092645  1
  Te  Te134  1  0.25581718  0.93483741  0.75413932  1
  Te  Te135  1  0.58796122  0.25594687  0.08059710  1
  Te  Te136  1  0.59479889  0.26009894  0.40588347  1
  Te  Te137  1  0.57190196  0.24843739  0.74748339  1
  Te  Te138  1  0.65184765  0.57295520  0.08153767  1
  Te  Te139  1  0.57756963  0.62835960  0.41818195  1
  Te  Te140  1  0.58543943  0.58413699  0.76042020  1
  Te  Te141  1  0.59543685  0.87519819  0.10726209  1
  Te  Te142  1  0.56119210  0.90193035  0.40338595  1
  Te  Te143  1  0.58363171  0.93749307  0.75707599  1
  Te  Te144  1  0.92557442  0.26199894  0.07274716  1
  Te  Te145  1  0.91132892  0.21141097  0.42668154  1
  Te  Te146  1  0.91521369  0.26390798  0.75277467  1
  Te  Te147  1  0.92022807  0.60716136  0.09671571  1
  Te  Te148  1  0.92188675  0.59501864  0.41196592  1
  Te  Te149  1  0.91313593  0.57158350  0.73311952  1
  Te  Te150  1  0.91729750  0.89315459  0.05065286  1
  Te  Te151  1  0.92088398  0.96432016  0.46534870  1
  Te  Te152  1  0.91901738  0.91424872  0.75340021  1
  Te  Te153  1  0.23015339  0.04564787  0.26532290  1
  Te  Te154  1  0.26775458  0.06002781  0.59796777  1
  Te  Te155  1  0.25909568  0.08256647  0.93029560  1
  Te  Te156  1  0.26028983  0.41889670  0.23794092  1
  Te  Te157  1  0.26602361  0.40480957  0.58197270  1
  Te  Te158  1  0.26249814  0.41586817  0.95010646  1
  Te  Te159  1  0.21821097  0.77969375  0.23805836  1
  Te  Te160  1  0.24781943  0.74116420  0.58579086  1
  Te  Te161  1  0.26493113  0.74566999  0.88979292  1
  Te  Te162  1  0.55187565  0.06331997  0.23843867  1
  Te  Te163  1  0.58343912  0.09981514  0.57151614  1
  Te  Te164  1  0.61000512  0.09591247  0.91997307  1
  Te  Te165  1  0.60563740  0.45039768  0.26017986  1
  Te  Te166  1  0.57030316  0.41909986  0.58090528  1
  Te  Te167  1  0.53595632  0.42584456  0.92409520  1
  Te  Te168  1  0.56275575  0.77554451  0.22592215  1
  Te  Te169  1  0.55311715  0.77512309  0.61389811  1
  Te  Te170  1  0.57927443  0.72881415  0.93723951  1
  Te  Te171  1  0.93613450  0.05511090  0.24623007  1
  Te  Te172  1  0.88505509  0.09886399  0.54274606  1
  Te  Te173  1  0.92276874  0.07850076  0.91642262  1
  Te  Te174  1  0.89660578  0.41609633  0.26609460  1
  Te  Te175  1  0.91742190  0.41802108  0.56628013  1
  Te  Te176  1  0.93834518  0.46227185  0.91289997  1
  Te  Te177  1  0.92730282  0.80763695  0.26080589  1
  Te  Te178  1  0.91914134  0.73990655  0.59519869  1
  Te  Te179  1  0.90643535  0.73586554  0.90745665  1
