# generated using pymatgen
data_In2Te3
_symmetry_space_group_name_H-M   'P 1'
_cell_length_a   19.01737221
_cell_length_b   19.01507476
_cell_length_c   19.04494165
_cell_angle_alpha   90.20258606
_cell_angle_beta   89.78466660
_cell_angle_gamma   90.12874150
_symmetry_Int_Tables_number   1
_chemical_formula_structural   In2Te3
_chemical_formula_sum   'In72 Te108'
_cell_volume   6886.86111446
_cell_formula_units_Z   36
loop_
 _symmetry_equiv_pos_site_id
 _symmetry_equiv_pos_as_xyz
  1  'x, y, z'
loop_
 _atom_site_type_symbol
 _atom_site_label
 _atom_site_symmetry_multiplicity
 _atom_site_fract_x
 _atom_site_fract_y
 _atom_site_fract_z
 _atom_site_occupancy
  In  In0  1  0.85431769  0.67524315  0.82026119  1
  In  In1  1  0.52891061  0.82283013  0.65884113  1
  In  In2  1  -0.01847928  0.51154752  0.16115637  1
  In  In3  1  0.63233559  -0.01196871  0.32087526  1
  In  In4  1  0.32204023  0.14551602  0.81758082  1
  In  In5  1  0.34293993  0.35328245  -0.02004361  1
  In  In6  1  0.34295292  0.82314919  0.18966924  1
  In  In7  1  0.31433212  0.83221453  0.52256729  1
  In  In8  1  0.47936059  -0.01012926  0.18412670  1
  In  In9  1  0.47374438  0.17491109  0.67461266  1
  In  In10  1  0.16157993  0.13784660  0.32593347  1
  In  In11  1  0.45380468  0.32555928  0.54434284  1
  In  In12  1  0.00610900  -0.01831905  -0.00812325  1
  In  In13  1  0.30008554  0.85181509  0.81149331  1
  In  In14  1  0.01486766  0.21330157  0.81497620  1
  In  In15  1  0.50739629  0.17845486  0.00206037  1
  In  In16  1  0.49586209  0.65709874  0.17684806  1
  In  In17  1  0.65059462  0.66895054  -0.00771499  1
  In  In18  1  0.16002030  0.34248244  0.52820476  1
  In  In19  1  0.65067352  0.50612705  0.17768273  1
  In  In20  1  0.67761883  0.31041543  0.00069718  1
  In  In21  1  0.33137532  0.50496143  0.14281713  1
  In  In22  1  0.68462158  0.32429239  0.65422072  1
  In  In23  1  0.16469778  0.67828443  0.83853327  1
  In  In24  1  0.84739814  0.52446017  0.67510321  1
  In  In25  1  0.32539598  0.67610028  0.34285985  1
  In  In26  1  0.83808903  0.15642863  -0.01202160  1
  In  In27  1  0.19395902  0.35299130  0.12931002  1
  In  In28  1  0.48129821  0.83020049  -0.01672640  1
  In  In29  1  0.02028217  0.83122180  0.16988801  1
  In  In30  1  0.03752501  0.83973713  0.51628899  1
  In  In31  1  0.15844596  0.13558069  0.67713382  1
  In  In32  1  0.48465355  0.36072035  0.80219003  1
  In  In33  1  0.83958661  0.13953076  0.36761064  1
  In  In34  1  0.31581542  0.67735695  0.67780332  1
  In  In35  1  0.14347058  0.17195558  -0.00370346  1
  In  In36  1  0.48336503  0.00354916  0.49239149  1
  In  In37  1  0.65311652  0.15195329  0.47075345  1
  In  In38  1  0.17578191  0.81481758  0.01565336  1
  In  In39  1  0.04741994  0.12009367  0.51930540  1
  In  In40  1  -0.00824474  0.68609504  0.33087434  1
  In  In41  1  0.02006013  0.36691172  -0.06510607  1
  In  In42  1  0.84929628  0.52851898  -0.00598854  1
  In  In43  1  0.62902591  0.50654493  0.82695542  1
  In  In44  1  0.18263354  0.83748110  0.35488675  1
  In  In45  1  0.83225464  0.68966543  0.50190078  1
  In  In46  1  0.82442985  0.00504358  0.15421090  1
  In  In47  1  0.48716483  0.17162951  0.34916668  1
  In  In48  1  0.64871774  0.48634387  0.48084279  1
  In  In49  1  0.68093040  0.15703426  0.83790431  1
  In  In50  1  0.71086183  0.84037187  0.82822808  1
  In  In51  1  0.45804680  0.51512636  0.64270447  1
  In  In52  1  0.01582653  0.31532850  0.32597598  1
  In  In53  1  0.06810788  0.69321294  0.67998844  1
  In  In54  1  0.87331803  0.85144337  0.67858443  1
  In  In55  1  0.31401392  0.33082422  0.36779109  1
  In  In56  1  0.68048501  -0.00572700  0.66017026  1
  In  In57  1  0.80290657  0.50885771  0.31797666  1
  In  In58  1  -0.00542545  0.15881641  0.15717915  1
  In  In59  1  0.67712543  0.66580521  0.33313074  1
  In  In60  1  0.64429379  0.63242284  0.66704898  1
  In  In61  1  0.30625566  -0.00276275  -0.00818196  1
  In  In62  1  0.68192192  -0.02470124  -0.01189366  1
  In  In63  1  0.80238019  0.33145673  0.17117538  1
  In  In64  1  0.66316479  0.31789336  0.31678887  1
  In  In65  1  0.67236367  0.81192474  0.14748208  1
  In  In66  1  0.87644729  0.14073265  0.65715346  1
  In  In67  1  0.85806652  0.33167433  0.52024263  1
  In  In68  1  0.01072934  0.53417890  0.51523824  1
  In  In69  1  0.17800206  0.52070630  0.35900962  1
  In  In70  1  0.18031869  0.50241904  -0.02719796  1
  In  In71  1  0.34351929  0.16822602  0.19087184  1
  Te  Te72  1  0.09260247  0.06505114  0.09006766  1
  Te  Te73  1  0.06805957  0.04318041  0.39336855  1
  Te  Te74  1  0.04839920  0.07287785  0.75869316  1
  Te  Te75  1  0.06673886  0.41265522  0.07755446  1
  Te  Te76  1  0.07069108  0.42288084  0.41958572  1
  Te  Te77  1  0.07698402  0.38414532  0.79948243  1
  Te  Te78  1  0.06016081  0.73596462  0.06313841  1
  Te  Te79  1  0.09714444  0.73276995  0.42704850  1
  Te  Te80  1  0.06885901  0.78806459  0.79611505  1
  Te  Te81  1  0.41412984  0.07504745  0.07638088  1
  Te  Te82  1  0.39240896  0.10293845  0.43558546  1
  Te  Te83  1  0.42167486  0.06222612  0.75006822  1
  Te  Te84  1  0.42402794  0.40765283  0.08678543  1
  Te  Te85  1  0.39513812  0.41866843  0.45072772  1
  Te  Te86  1  0.38571104  0.39948951  0.70112330  1
  Te  Te87  1  0.41142830  0.73961555  0.08227389  1
  Te  Te88  1  0.40046070  0.78512368  0.40835023  1
  Te  Te89  1  0.41234916  0.77264116  0.74751279  1
  Te  Te90  1  0.73180935  0.09188911  0.07343868  1
  Te  Te91  1  0.74032117  0.04026931  0.42227837  1
  Te  Te92  1  0.77301324  0.07562201  0.74856674  1
  Te  Te93  1  0.74613842  0.43499251  0.07540424  1
  Te  Te94  1  0.76238681  0.39196620  0.41909548  1
  Te  Te95  1  0.74146137  0.43538927  0.73939397  1
  Te  Te96  1  0.76021282  0.75895839  0.04070825  1
  Te  Te97  1  0.76091274  0.76527395  0.40178456  1
  Te  Te98  1  0.74440328  0.72763095  0.72748202  1
  Te  Te99  1  0.10274943  0.24739772  0.22276034  1
  Te  Te100  1  0.07379889  0.24301713  0.60210183  1
  Te  Te101  1  0.14535786  0.28129826  0.88924984  1
  Te  Te102  1  0.07274825  0.57725982  0.26129899  1
  Te  Te103  1  0.12274410  0.56743829  0.60753292  1
  Te  Te104  1  0.07913501  0.59680693  0.92668681  1
  Te  Te105  1  0.08421162  0.91378677  0.27529520  1
  Te  Te106  1  0.12479414  0.91533229  0.61258502  1
  Te  Te107  1  0.10021535  0.89629116  0.91504403  1
  Te  Te108  1  0.41464791  0.27612793  0.26678684  1
  Te  Te109  1  0.36520871  0.21502512  0.58316191  1
  Te  Te110  1  0.41881170  0.24906730  0.89512394  1
  Te  Te111  1  0.40204953  0.57286959  0.25858187  1
  Te  Te112  1  0.39090979  0.61845690  0.56269539  1
  Te  Te113  1  0.51425116  0.57088207  0.90539143  1
  Te  Te114  1  0.41395506  0.90831102  0.28814444  1
  Te  Te115  1  0.42318222  0.91236668  0.59706999  1
  Te  Te116  1  0.40480048  0.92920220  0.90066816  1
  Te  Te117  1  0.75912362  0.21673129  0.26073311  1
  Te  Te118  1  0.76170768  0.22183162  0.57097364  1
  Te  Te119  1  0.77551529  0.25989177  0.89721183  1
  Te  Te120  1  0.75594429  0.60723004  0.21559546  1
  Te  Te121  1  0.75175903  0.56939860  0.56291918  1
  Te  Te122  1  0.74136870  0.58830751  0.89626103  1
  Te  Te123  1  0.73768809  0.91415538  0.23798358  1
  Te  Te124  1  0.75796853  0.88659758  0.59708710  1
  Te  Te125  1  0.79662781  0.93827044  0.90163081  1
  Te  Te126  1  0.26549402  0.23132902  0.07303099  1
  Te  Te127  1  0.21395531  0.23612099  0.42880076  1
  Te  Te128  1  0.25453007  0.23745445  0.72486011  1
  Te  Te129  1  0.22641472  0.58411614  0.08482278  1
  Te  Te130  1  0.26376212  0.59545622  0.45163214  1
  Te  Te131  1  0.26179258  0.58199242  0.77741426  1
  Te  Te132  1  0.25358514  0.91222745  0.10292069  1
  Te  Te133  1  0.24535417  0.93806774  0.44490451  1
  Te  Te134  1  0.23272561  0.95006319  0.72217420  1
  Te  Te135  1  0.57909078  0.26275127  0.09700599  1
  Te  Te136  1  0.56839134  0.27167980  0.43749870  1
  Te  Te137  1  0.59322292  0.24937547  0.75273242  1
  Te  Te138  1  0.56322778  0.56934446  0.07109577  1
  Te  Te139  1  0.57593565  0.58404203  0.40244231  1
  Te  Te140  1  0.51913822  0.59861584  0.75835782  1
  Te  Te141  1  0.57097205  0.91197638  0.08183324  1
  Te  Te142  1  0.57805542  0.91082997  0.43133200  1
  Te  Te143  1  0.59822489  0.91804729  0.76017028  1
  Te  Te144  1  0.90307851  0.25485239  0.08504962  1
  Te  Te145  1  0.94275404  0.23373855  0.43134218  1
  Te  Te146  1  0.90331834  0.26062559  0.73446450  1
  Te  Te147  1  0.92409414  0.61995643  0.08104259  1
  Te  Te148  1  0.90189817  0.57522588  0.41191338  1
  Te  Te149  1  0.95830705  0.59572229  0.74828284  1
  Te  Te150  1  0.91306914  0.90765787  0.08383888  1
  Te  Te151  1  0.93745109  0.92463810  0.45568120  1
  Te  Te152  1  0.97848652  0.93442777  0.73518192  1
  Te  Te153  1  0.27113620  0.06511527  0.26215750  1
  Te  Te154  1  0.22622880  0.03335005  0.58752973  1
  Te  Te155  1  0.21587794  0.07624962  0.90240565  1
  Te  Te156  1  0.23878215  0.41672098  0.25886905  1
  Te  Te157  1  0.21762271  0.44813054  0.60792668  1
  Te  Te158  1  0.30364702  0.46820273  0.89719473  1
  Te  Te159  1  0.23098513  0.73887724  0.24465410  1
  Te  Te160  1  0.21319738  0.76600845  0.61502509  1
  Te  Te161  1  0.27333539  0.74950942  0.91991527  1
  Te  Te162  1  0.56764525  0.09929845  0.24302566  1
  Te  Te163  1  0.58036851  0.09354823  0.58942887  1
  Te  Te164  1  0.58527440  0.07587226  0.92132194  1
  Te  Te165  1  0.57490276  0.42291860  0.27011969  1
  Te  Te166  1  0.58078863  0.42322793  0.60031285  1
  Te  Te167  1  0.58111069  0.39107887  0.91627806  1
  Te  Te168  1  0.57814854  0.75600289  0.25139038  1
  Te  Te169  1  0.57562423  0.71505160  0.56977734  1
  Te  Te170  1  0.59055570  0.77070508  0.89875987  1
  Te  Te171  1  0.91702562  0.07233892  0.25368057  1
  Te  Te172  1  0.93135703  0.03370802  0.56303144  1
  Te  Te173  1  0.95924743  0.10570455  0.91647690  1
  Te  Te174  1  0.90748006  0.40405544  0.25777287  1
  Te  Te175  1  0.94099695  0.42855141  0.60127019  1
  Te  Te176  1  0.90049071  0.43944542  0.89118678  1
  Te  Te177  1  0.91019932  0.77255071  0.24937489  1
  Te  Te178  1  0.94249820  0.73527892  0.59512881  1
  Te  Te179  1  0.86387827  0.78709681  0.91299711  1
