# generated using pymatgen
data_In2Te3
_symmetry_space_group_name_H-M   'P 1'
_cell_length_a   18.91216219
_cell_length_b   18.94000075
_cell_length_c   18.95591031
_cell_angle_alpha   90.02027553
_cell_angle_beta   90.02590302
_cell_angle_gamma   89.99025443
_symmetry_Int_Tables_number   1
_chemical_formula_structural   In2Te3
_chemical_formula_sum   'In72 Te108'
_cell_volume   6789.93697110
_cell_formula_units_Z   36
loop_
 _symmetry_equiv_pos_site_id
 _symmetry_equiv_pos_as_xyz
  1  'x, y, z'
loop_
 _atom_site_type_symbol
 _atom_site_label
 _atom_site_symmetry_multiplicity
 _atom_site_fract_x
 _atom_site_fract_y
 _atom_site_fract_z
 _atom_site_occupancy
  In  In0  1  0.17704756  0.34528746  0.83797653  1
  In  In1  1  0.33609629  0.16226317  0.17620525  1
  In  In2  1  0.83787565  0.34375625  0.18827910  1
  In  In3  1  0.49642860  0.15575605  0.34716452  1
  In  In4  1  0.32012860  0.66023235  0.68057409  1
  In  In5  1  -0.00668575  0.52026266  0.15942051  1
  In  In6  1  0.02978671  0.81244837  0.17725839  1
  In  In7  1  0.34306668  -0.02663184  0.66269588  1
  In  In8  1  0.14720139  0.80226846  0.70243476  1
  In  In9  1  0.68876154  0.02051977  0.33061262  1
  In  In10  1  0.32920996  0.82845794  0.83597471  1
  In  In11  1  0.16250800  0.81490456  -0.01442701  1
  In  In12  1  0.68528958  0.49774392  0.16330557  1
  In  In13  1  0.84287317  0.48283438  0.32011242  1
  In  In14  1  0.32885420  0.34677840  -0.01637780  1
  In  In15  1  0.67448725  0.85946576  0.17380313  1
  In  In16  1  0.68277639  0.64739956  0.33882006  1
  In  In17  1  0.49760221  0.51845221  -0.01994458  1
  In  In18  1  0.48391247  0.18511561  0.65768678  1
  In  In19  1  0.48480535  0.50927247  0.31821215  1
  In  In20  1  0.17704702  0.61318463  0.00128078  1
  In  In21  1  0.87135739  0.81599606  0.66511939  1
  In  In22  1  0.85043223  0.34686389  0.85325800  1
  In  In23  1  0.83694301  0.82028288  -0.01986055  1
  In  In24  1  0.85362640  0.64781929  0.81737444  1
  In  In25  1  0.49026369  0.67536900  0.83375525  1
  In  In26  1  0.01354049  0.67573547  0.32853498  1
  In  In27  1  0.01346503  -0.01934375  0.32576609  1
  In  In28  1  0.14859993  0.52036318  0.66721225  1
  In  In29  1  0.34036846  0.00303787  0.31858404  1
  In  In30  1  0.67520202  0.48461739  0.84144368  1
  In  In31  1  0.65066412  0.69112564  -0.00205212  1
  In  In32  1  0.00378316  0.17493245  0.48070942  1
  In  In33  1  0.17785551  -0.02266112  0.51512878  1
  In  In34  1  0.16676275  0.50059973  0.34108938  1
  In  In35  1  0.66216125  0.01123611  0.67973883  1
  In  In36  1  0.33962188  0.82629433  0.48817576  1
  In  In37  1  0.49117722  0.34902821  0.18142245  1
  In  In38  1  0.64608420  0.51607239  0.51745929  1
  In  In39  1  0.49554769  -0.02060595  0.83162676  1
  In  In40  1  -0.00871126  0.35991953  0.00378140  1
  In  In41  1  0.68968762  0.21162319  0.15431468  1
  In  In42  1  0.00169382  -0.01451810  0.69464842  1
  In  In43  1  0.02746555  0.14841148  0.17229666  1
  In  In44  1  0.00142108  0.16412430  0.85696323  1
  In  In45  1  0.29775902  0.19042115  0.46156475  1
  In  In46  1  0.65950803  0.34074280  0.02427413  1
  In  In47  1  0.65787081  0.68527585  0.65930698  1
  In  In48  1  0.81771657  0.15658552  0.65113661  1
  In  In49  1  0.14402648  0.15383564  0.66716818  1
  In  In50  1  0.49668036  0.00869857  0.15771821  1
  In  In51  1  0.27429564  0.75246720  0.14731659  1
  In  In52  1  0.82867333  0.33512671  0.49618918  1
  In  In53  1  0.66403329  0.84808771  0.50056833  1
  In  In54  1  0.49342385  0.82834521  0.34216359  1
  In  In55  1  0.82946852  0.65936029  0.51473376  1
  In  In56  1  0.30360966  0.14632128  0.85431854  1
  In  In57  1  0.86331775  -0.02545720  0.49150616  1
  In  In58  1  0.48240616  0.49749702  0.66648417  1
  In  In59  1  0.67166102  -0.02812303  -0.00828833  1
  In  In60  1  0.84160686  0.16180224  0.00815162  1
  In  In61  1  0.46355053  0.15484016  -0.01062987  1
  In  In62  1  0.03793267  -0.01498972  -0.00372723  1
  In  In63  1  0.65845638  0.16977990  0.49786490  1
  In  In64  1  0.86084982  0.00225031  0.16548131  1
  In  In65  1  0.31547933  0.50551458  0.48636259  1
  In  In66  1  0.33732705  0.35036590  0.66603776  1
  In  In67  1  0.17668831  0.33764886  0.18061097  1
  In  In68  1  0.02267898  0.49749958  0.50243562  1
  In  In69  1  0.47757948  0.67322276  0.18235407  1
  In  In70  1  -0.00284161  0.32771394  0.65860370  1
  In  In71  1  0.65015782  0.17639170  0.81439300  1
  Te  Te72  1  0.11170329  0.10126194  0.05658188  1
  Te  Te73  1  0.09402640  0.06783649  0.42377516  1
  Te  Te74  1  0.09497327  0.06942567  0.78193645  1
  Te  Te75  1  0.09614673  0.42897942  0.08750623  1
  Te  Te76  1  0.09933061  0.39495978  0.42503023  1
  Te  Te77  1  0.07164163  0.41741011  0.75476023  1
  Te  Te78  1  0.08468253  0.71669300  0.07445990  1
  Te  Te79  1  0.10575433  0.77826868  0.38439013  1
  Te  Te80  1  0.08174021  0.68279372  0.77087643  1
  Te  Te81  1  0.38142458  0.05863571  0.07193480  1
  Te  Te82  1  0.39991000  0.07957508  0.43504396  1
  Te  Te83  1  0.41138234  0.08678010  0.75178567  1
  Te  Te84  1  0.41769762  0.42899034  0.07651637  1
  Te  Te85  1  0.40601527  0.42110059  0.40551469  1
  Te  Te86  1  0.39180976  0.44108863  0.77071788  1
  Te  Te87  1  0.40832688  0.75102258  0.08063488  1
  Te  Te88  1  0.40079983  0.72918955  0.39528147  1
  Te  Te89  1  0.41928064  0.76363597  0.73258849  1
  Te  Te90  1  0.74301991  0.07359215  0.09098972  1
  Te  Te91  1  0.77352591  0.08551958  0.43759573  1
  Te  Te92  1  0.76186034  0.08113331  0.77060521  1
  Te  Te93  1  0.77962015  0.42536073  0.06760297  1
  Te  Te94  1  0.74241288  0.43775263  0.42350298  1
  Te  Te95  1  0.76465288  0.40972376  0.75332173  1
  Te  Te96  1  0.75090323  0.75745800  0.09064821  1
  Te  Te97  1  0.75545456  0.75337077  0.42107886  1
  Te  Te98  1  0.76107023  0.75116821  0.74781421  1
  Te  Te99  1  0.11427879  0.22828137  0.26468984  1
  Te  Te100  1  0.09738972  0.25823256  0.56872913  1
  Te  Te101  1  0.08574994  0.26487877  0.93101321  1
  Te  Te102  1  0.10343638  0.59277489  0.23605749  1
  Te  Te103  1  0.09428979  0.61167502  0.56350768  1
  Te  Te104  1  0.06456330  0.60873344  0.90541925  1
  Te  Te105  1  0.10154633  0.93709492  0.21362928  1
  Te  Te106  1  0.07920481  0.89816847  0.59791285  1
  Te  Te107  1  0.06268417  0.87884824  0.89539988  1
  Te  Te108  1  0.41006972  0.25567778  0.26921348  1
  Te  Te109  1  0.39654389  0.26077372  0.55819997  1
  Te  Te110  1  0.40622247  0.25389628  0.89101238  1
  Te  Te111  1  0.37778665  0.57565145  0.23622059  1
  Te  Te112  1  0.40729139  0.59178534  0.57690728  1
  Te  Te113  1  0.39732859  0.61422122  0.93127634  1
  Te  Te114  1  0.41638389  0.90343386  0.23399510  1
  Te  Te115  1  0.43107013  0.91554152  0.56251681  1
  Te  Te116  1  0.39326865  0.92904133  0.92215586  1
  Te  Te117  1  0.75244569  0.26144319  0.27530525  1
  Te  Te118  1  0.73247342  0.26465810  0.59295722  1
  Te  Te119  1  0.74757026  0.25056639  0.92826481  1
  Te  Te120  1  0.77915848  0.59249652  0.23455314  1
  Te  Te121  1  0.75108450  0.57457915  0.61156202  1
  Te  Te122  1  0.73937317  0.59880746  0.91515771  1
  Te  Te123  1  0.78033227  0.91858510  0.26547117  1
  Te  Te124  1  0.76801599  0.91868141  0.59694933  1
  Te  Te125  1  0.75402549  0.90490049  0.89288656  1
  Te  Te126  1  0.25939240  0.25478959  0.08179032  1
  Te  Te127  1  0.21384711  0.28513453  0.38603015  1
  Te  Te128  1  0.24541920  0.24486582  0.74201667  1
  Te  Te129  1  0.28185677  0.60461653  0.10739485  1
  Te  Te130  1  0.22883218  0.60892923  0.42270832  1
  Te  Te131  1  0.26377082  0.54735451  0.75928752  1
  Te  Te132  1  0.22508198  0.88735056  0.10045155  1
  Te  Te133  1  0.24763272  0.91008851  0.39862555  1
  Te  Te134  1  0.23631936  0.91698446  0.75356359  1
  Te  Te135  1  0.54968939  0.24157270  0.08289148  1
  Te  Te136  1  0.58350747  0.25627223  0.40775668  1
  Te  Te137  1  0.56975787  0.27230477  0.74028293  1
  Te  Te138  1  0.57972063  0.58369048  0.09681810  1
  Te  Te139  1  0.56453962  0.59589839  0.41624630  1
  Te  Te140  1  0.58289620  0.58227833  0.75483918  1
  Te  Te141  1  0.56663380  0.90168140  0.07490569  1
  Te  Te142  1  0.58599470  0.93592202  0.40327359  1
  Te  Te143  1  0.58486428  0.90499252  0.74354589  1
  Te  Te144  1  0.92811730  0.24780768  0.09826543  1
  Te  Te145  1  0.92034642  0.26665093  0.40370605  1
  Te  Te146  1  0.91230002  0.23626043  0.75169713  1
  Te  Te147  1  0.90145405  0.54395641  0.04878382  1
  Te  Te148  1  0.91995719  0.57780785  0.41148788  1
  Te  Te149  1  0.95445283  0.61964440  0.71102003  1
  Te  Te150  1  0.93149110  0.90269712  0.07839590  1
  Te  Te151  1  0.94462809  0.88217036  0.41274888  1
  Te  Te152  1  0.93927501  0.88179189  0.78057980  1
  Te  Te153  1  0.23728654  0.08941096  0.25791477  1
  Te  Te154  1  0.25574124  0.08663040  0.58941388  1
  Te  Te155  1  0.20862530  0.07297071  0.93652255  1
  Te  Te156  1  0.26751949  0.41785202  0.26646582  1
  Te  Te157  1  0.23296990  0.42177963  0.58428135  1
  Te  Te158  1  0.23145090  0.44587592  0.93211919  1
  Te  Te159  1  0.20659329  0.73304946  0.28621616  1
  Te  Te160  1  0.24670468  0.76171063  0.59582381  1
  Te  Te161  1  0.25224644  0.72009571  0.90752069  1
  Te  Te162  1  0.58982264  0.09644925  0.23918600  1
  Te  Te163  1  0.56971540  0.08189518  0.58337489  1
  Te  Te164  1  0.58424735  0.08728933  0.92416674  1
  Te  Te165  1  0.59952819  0.42062515  0.25956184  1
  Te  Te166  1  0.57146769  0.41210652  0.58799116  1
  Te  Te167  1  0.57155408  0.40117790  0.91604035  1
  Te  Te168  1  0.59989415  0.74875383  0.25108390  1
  Te  Te169  1  0.57355395  0.74910122  0.55894597  1
  Te  Te170  1  0.57597760  0.77325346  0.90388175  1
  Te  Te171  1  0.92165183  0.09484675  0.26665639  1
  Te  Te172  1  0.93726928  0.08076566  0.59217621  1
  Te  Te173  1  0.91729585  0.06029616  0.92891193  1
  Te  Te174  1  0.95773045  0.40721971  0.25603078  1
  Te  Te175  1  0.91338648  0.42823957  0.58356429  1
  Te  Te176  1  0.93045559  0.46030415  0.91084145  1
  Te  Te177  1  0.91711207  0.74220785  0.23912321  1
  Te  Te178  1  0.94909851  0.72497326  0.57653235  1
  Te  Te179  1  0.92456650  0.70746429  0.93475696  1
