# generated using pymatgen
data_In2Te3
_symmetry_space_group_name_H-M   'P 1'
_cell_length_a   18.78054000
_cell_length_b   18.77968314
_cell_length_c   18.77731826
_cell_angle_alpha   90.09231688
_cell_angle_beta   90.04099591
_cell_angle_gamma   89.95468391
_symmetry_Int_Tables_number   1
_chemical_formula_structural   In2Te3
_chemical_formula_sum   'In72 Te108'
_cell_volume   6622.60866150
_cell_formula_units_Z   36
loop_
 _symmetry_equiv_pos_site_id
 _symmetry_equiv_pos_as_xyz
  1  'x, y, z'
loop_
 _atom_site_type_symbol
 _atom_site_label
 _atom_site_symmetry_multiplicity
 _atom_site_fract_x
 _atom_site_fract_y
 _atom_site_fract_z
 _atom_site_occupancy
  In  In0  1  0.50343111  0.68374043  0.82047511  1
  In  In1  1  0.84837980  0.48521237  0.66940454  1
  In  In2  1  0.17390820  0.49821184  -0.02479896  1
  In  In3  1  0.69034599  0.84320758  0.18221284  1
  In  In4  1  -0.00546357  0.16962914  0.83632479  1
  In  In5  1  0.15492140  0.00039897  0.16210354  1
  In  In6  1  0.34054132  0.64120198  0.33835799  1
  In  In7  1  0.49304752  0.51361796  0.68025649  1
  In  In8  1  0.82053421  0.67647873  0.48583370  1
  In  In9  1  0.35631633  0.47805214  0.17952412  1
  In  In10  1  0.33095046  0.47997825  0.83234501  1
  In  In11  1  0.69043779  0.34615943  0.65776669  1
  In  In12  1  0.34288861  0.16559291  0.82277492  1
  In  In13  1  0.83245699  0.17886962  0.64728747  1
  In  In14  1  0.50373724  0.82551913  0.00518140  1
  In  In15  1  0.34516228  0.17257541  0.17273446  1
  In  In16  1  0.83131536  0.02447448  0.83230020  1
  In  In17  1  0.34418988  0.33246642  0.33592263  1
  In  In18  1  0.66694026  0.15838600  0.82258593  1
  In  In19  1  -0.01864004  -0.01576678  0.66155168  1
  In  In20  1  0.13775886  0.83942448  0.32821775  1
  In  In21  1  0.01185354  0.33998607  -0.00766709  1
  In  In22  1  -0.01153810  0.52372324  0.17129555  1
  In  In23  1  0.80100283  0.51720828  -0.03226678  1
  In  In24  1  0.19221595  0.33021571  0.17368902  1
  In  In25  1  0.65955107  0.16074007  0.17768182  1
  In  In26  1  0.53058987  0.86134226  0.35556718  1
  In  In27  1  -0.00188316  0.66404862  0.66082636  1
  In  In28  1  -0.00886624  0.67618661  0.34375116  1
  In  In29  1  0.13446246  0.82503780  0.01092740  1
  In  In30  1  0.65449826  0.68116453  0.67020996  1
  In  In31  1  0.33749473  0.47653842  0.48363438  1
  In  In32  1  0.00861358  0.33800304  0.65737603  1
  In  In33  1  0.34248958  0.67822322  0.00449772  1
  In  In34  1  0.66777419  0.49785998  0.48088218  1
  In  In35  1  0.64787026  0.82593981  0.83677602  1
  In  In36  1  0.32510286  0.83223859  0.52091433  1
  In  In37  1  0.15314767  -0.02132579  0.85555229  1
  In  In38  1  0.35835563  0.01669407  0.35849066  1
  In  In39  1  0.81953247  0.16957270  -0.00450198  1
  In  In40  1  0.51074798  0.31759349  0.83441537  1
  In  In41  1  0.52112631  0.16608957  0.34340650  1
  In  In42  1  0.81551705  0.65766480  0.15878842  1
  In  In43  1  0.50809737  0.85112084  0.65647579  1
  In  In44  1  0.48242164  0.31836707  0.50124084  1
  In  In45  1  0.35516879  -0.00093611  0.66371228  1
  In  In46  1  0.82788955  0.49236938  0.33370829  1
  In  In47  1  0.81397966  0.30890688  0.17788160  1
  In  In48  1  0.67547242  0.32881864  0.00471180  1
  In  In49  1  0.14790203  0.64529319  0.81456304  1
  In  In50  1  0.80879895  0.84428168  0.64748717  1
  In  In51  1  0.50948445  0.49281769  0.02398809  1
  In  In52  1  0.88387046  0.84327558  0.02706630  1
  In  In53  1  0.17630781  0.17632478  0.67152554  1
  In  In54  1  0.15472947  0.67204626  0.15564529  1
  In  In55  1  0.50470797  0.66537798  0.49207870  1
  In  In56  1  0.66170528  0.00565954  -0.00238959  1
  In  In57  1  0.64377239  0.47858070  0.19568972  1
  In  In58  1  0.16238937  0.33543287  0.49528194  1
  In  In59  1  0.15107491  0.16834645  0.34537741  1
  In  In60  1  0.82899824  0.84620235  0.35055506  1
  In  In61  1  -0.01303357  0.13240296  0.18407170  1
  In  In62  1  0.00489427  0.50628078  0.83233827  1
  In  In63  1  0.49082069  0.02342486  0.82819667  1
  In  In64  1  0.16607463  0.80980441  0.66368332  1
  In  In65  1  0.82823586  0.01022589  0.48156641  1
  In  In66  1  0.33898977  0.02726961  0.01397867  1
  In  In67  1  0.34960866  0.83583395  0.17566383  1
  In  In68  1  0.33951938  0.81326397  0.82180347  1
  In  In69  1  -0.01711330  0.31470752  0.37073572  1
  In  In70  1  0.14554776  0.01303450  0.49079585  1
  In  In71  1  0.16844691  0.49196722  0.65617991  1
  Te  Te72  1  0.08348958  0.09725043  0.07738757  1
  Te  Te73  1  0.05473551  0.06277704  0.38492724  1
  Te  Te74  1  0.08059985  0.06938195  0.74632299  1
  Te  Te75  1  0.08977289  0.42952707  0.09428540  1
  Te  Te76  1  0.07803505  0.41891480  0.40823070  1
  Te  Te77  1  0.09716742  0.40775831  0.76221295  1
  Te  Te78  1  0.04224556  0.75292693  0.10228629  1
  Te  Te79  1  0.08516365  0.75000426  0.43172595  1
  Te  Te80  1  0.06349761  0.76243118  0.76475674  1
  Te  Te81  1  0.44077444  0.08151149  0.10292785  1
  Te  Te82  1  0.42039804  0.11958683  0.44924507  1
  Te  Te83  1  0.44555788  0.11268545  0.71044487  1
  Te  Te84  1  0.40556748  0.39724776  0.06644763  1
  Te  Te85  1  0.45404300  0.43221460  0.39085193  1
  Te  Te86  1  0.41751914  0.39517617  0.73867297  1
  Te  Te87  1  0.44056921  0.73186401  0.10892194  1
  Te  Te88  1  0.41299937  0.76698336  0.40939205  1
  Te  Te89  1  0.41392536  0.74155101  0.71017184  1
  Te  Te90  1  0.75707510  0.07454623  0.09487230  1
  Te  Te91  1  0.76153453  0.11886229  0.40189070  1
  Te  Te92  1  0.74372064  0.07657476  0.71892034  1
  Te  Te93  1  0.76040573  0.42648701  0.09399359  1
  Te  Te94  1  0.74677002  0.39534040  0.40971887  1
  Te  Te95  1  0.75478417  0.42312926  0.76538797  1
  Te  Te96  1  0.75857699  0.76650965  0.06720923  1
  Te  Te97  1  0.72416419  0.75640048  0.40745786  1
  Te  Te98  1  0.75831340  0.75140079  0.75893252  1
  Te  Te99  1  0.07592624  0.25352992  0.24269724  1
  Te  Te100  1  0.07691468  0.23209354  0.56913681  1
  Te  Te101  1  0.09400424  0.25314235  0.90623946  1
  Te  Te102  1  0.09041701  0.58694671  0.26501329  1
  Te  Te103  1  0.07296925  0.56988404  0.57564107  1
  Te  Te104  1  0.06897331  0.60033306  0.93704610  1
  Te  Te105  1  0.05304919  0.90909956  0.22515196  1
  Te  Te106  1  0.08118070  0.90457134  0.57729224  1
  Te  Te107  1  0.04053747  0.91053179  0.92834071  1
  Te  Te108  1  0.44665409  0.26427842  0.24363954  1
  Te  Te109  1  0.41321078  0.21338472  0.57764638  1
  Te  Te110  1  0.42634823  0.23557011  0.92368460  1
  Te  Te111  1  0.43662245  0.58499004  0.24239078  1
  Te  Te112  1  0.40815050  0.58190467  0.57450980  1
  Te  Te113  1  0.41898260  0.58621029  0.90866408  1
  Te  Te114  1  0.43426216  0.93351977  0.25478125  1
  Te  Te115  1  0.43890754  0.93861333  0.54954877  1
  Te  Te116  1  0.41724252  0.91198477  0.91158891  1
  Te  Te117  1  0.73843170  0.23667612  0.28366410  1
  Te  Te118  1  0.73987841  0.25005593  0.55422351  1
  Te  Te119  1  0.75657330  0.26049190  0.89260532  1
  Te  Te120  1  0.73338830  0.58981747  0.26571372  1
  Te  Te121  1  0.74622086  0.58543553  0.59032327  1
  Te  Te122  1  0.72489541  0.61672777  0.89453813  1
  Te  Te123  1  0.75086043  0.95001445  0.27055888  1
  Te  Te124  1  0.72140343  0.93436472  0.56365758  1
  Te  Te125  1  0.74976698  0.91861801  0.91078330  1
  Te  Te126  1  0.25031058  0.23541625  0.07782544  1
  Te  Te127  1  0.26002061  0.24033907  0.42331460  1
  Te  Te128  1  0.25686317  0.26610460  0.75516918  1
  Te  Te129  1  0.25756698  0.57955460  0.08524616  1
  Te  Te130  1  0.24427981  0.57912797  0.43020216  1
  Te  Te131  1  0.26296523  0.58196870  0.73979882  1
  Te  Te132  1  0.25814208  0.90494978  0.07326722  1
  Te  Te133  1  0.24994403  0.91964193  0.41122598  1
  Te  Te134  1  0.25089612  0.91986757  0.74570940  1
  Te  Te135  1  0.58368789  0.25522464  0.09224432  1
  Te  Te136  1  0.59984808  0.24459295  0.44467119  1
  Te  Te137  1  0.59196716  0.24706715  0.72423979  1
  Te  Te138  1  0.60226381  0.58080978  0.09675576  1
  Te  Te139  1  0.58845417  0.59035250  0.39643298  1
  Te  Te140  1  0.60274247  0.57350529  0.76788003  1
  Te  Te141  1  0.58270797  0.91877255  0.09367551  1
  Te  Te142  1  0.61175874  0.97427232  0.41594164  1
  Te  Te143  1  0.59193819  0.93818679  0.74985297  1
  Te  Te144  1  0.91875121  0.25009212  0.08219820  1
  Te  Te145  1  0.89088612  0.20699580  0.40255369  1
  Te  Te146  1  0.91087573  0.26192880  0.74901678  1
  Te  Te147  1  0.90693070  0.58710121  0.05956423  1
  Te  Te148  1  0.91651105  0.57231445  0.42884591  1
  Te  Te149  1  0.90524592  0.59621338  0.76096054  1
  Te  Te150  1  0.92301272  0.94503556  0.12666713  1
  Te  Te151  1  0.93353193  0.92017469  0.42664555  1
  Te  Te152  1  0.89762531  0.90612527  0.75901413  1
  Te  Te153  1  0.25041024  0.07674750  0.25751156  1
  Te  Te154  1  0.25020614  0.07751732  0.58071791  1
  Te  Te155  1  0.24187094  0.08730454  0.91394986  1
  Te  Te156  1  0.24522918  0.43226107  0.27427432  1
  Te  Te157  1  0.26627848  0.39391812  0.59058641  1
  Te  Te158  1  0.26549526  0.39196502  0.93184469  1
  Te  Te159  1  0.24836549  0.75115118  0.25281782  1
  Te  Te160  1  0.23992695  0.72248703  0.57109293  1
  Te  Te161  1  0.23655366  0.74614296  0.91281603  1
  Te  Te162  1  0.59373196  0.05762420  0.26743039  1
  Te  Te163  1  0.59162536  0.02537493  0.55556225  1
  Te  Te164  1  0.57062562  0.10747885  0.92976748  1
  Te  Te165  1  0.55265466  0.39258147  0.27204512  1
  Te  Te166  1  0.57210756  0.42539846  0.58287559  1
  Te  Te167  1  0.59076455  0.42068631  0.91548409  1
  Te  Te168  1  0.59494467  0.76403327  0.26408755  1
  Te  Te169  1  0.59552168  0.76876642  0.56049583  1
  Te  Te170  1  0.59665901  0.72188734  0.94035263  1
  Te  Te171  1  0.88084335  0.04498429  0.24156054  1
  Te  Te172  1  0.92977797  0.09196271  0.56877823  1
  Te  Te173  1  0.92785065  0.07754477  0.93863586  1
  Te  Te174  1  0.92082138  0.40654093  0.24387619  1
  Te  Te175  1  0.91546826  0.40568157  0.56487466  1
  Te  Te176  1  0.90875346  0.41862318  0.91206362  1
  Te  Te177  1  0.89825788  0.74934992  0.24924959  1
  Te  Te178  1  0.91296352  0.76029690  0.57430645  1
  Te  Te179  1  0.95380621  0.77144316  0.92112502  1
