# generated using pymatgen
data_In2Te3
_symmetry_space_group_name_H-M   'P 1'
_cell_length_a   18.90505565
_cell_length_b   18.91442906
_cell_length_c   18.90657964
_cell_angle_alpha   89.97607809
_cell_angle_beta   89.89908203
_cell_angle_gamma   89.98985076
_symmetry_Int_Tables_number   1
_chemical_formula_structural   In2Te3
_chemical_formula_sum   'In72 Te108'
_cell_volume   6760.57206752
_cell_formula_units_Z   36
loop_
 _symmetry_equiv_pos_site_id
 _symmetry_equiv_pos_as_xyz
  1  'x, y, z'
loop_
 _atom_site_type_symbol
 _atom_site_label
 _atom_site_symmetry_multiplicity
 _atom_site_fract_x
 _atom_site_fract_y
 _atom_site_fract_z
 _atom_site_occupancy
  In  In0  1  0.32909393  0.50380029  0.84499005  1
  In  In1  1  0.31914098  0.15262655  0.48909392  1
  In  In2  1  0.15968284  0.65340052  0.84773579  1
  In  In3  1  0.49057523  0.84260014  0.68503958  1
  In  In4  1  0.31666657  0.33741020  0.30530088  1
  In  In5  1  0.82883150  0.28872541  0.53103441  1
  In  In6  1  0.54375380  0.53149859  0.70119695  1
  In  In7  1  0.52465054  0.30428215  0.14359030  1
  In  In8  1  0.83083995  0.85095738  -0.02888836  1
  In  In9  1  0.33384864  -0.00788722  0.33765833  1
  In  In10  1  0.67309137  0.15423231  0.84027311  1
  In  In11  1  0.52153459  -0.01281410  0.16633537  1
  In  In12  1  0.84374992  0.30500678  0.79673807  1
  In  In13  1  -0.00469462  0.67176891  0.66954405  1
  In  In14  1  0.31767827  0.50728261  0.50469706  1
  In  In15  1  0.31728127  0.50572708  0.17375303  1
  In  In16  1  0.13512361  0.32288400  0.83198870  1
  In  In17  1  0.16478005  0.84423967  -0.01746802  1
  In  In18  1  0.32549339  0.31908699  0.70120549  1
  In  In19  1  0.02154769  0.14143464  0.48882203  1
  In  In20  1  0.14115608  0.67829792  0.49413851  1
  In  In21  1  0.02186996  0.28772372  0.28668564  1
  In  In22  1  0.34053640  0.65705494  0.68065481  1
  In  In23  1  0.68870609  0.64550470  0.31640926  1
  In  In24  1  0.17594796  0.32369040  0.49257755  1
  In  In25  1  0.85103703  0.48760753  0.00493114  1
  In  In26  1  0.29142447  0.70329347  0.27161150  1
  In  In27  1  -0.01413032  0.49998632  0.51065490  1
  In  In28  1  0.49541724  0.13919379  0.66601219  1
  In  In29  1  -0.02818566  0.00782772  0.00712045  1
  In  In30  1  0.51534688  0.48553341  0.35831055  1
  In  In31  1  0.67915106  0.49731913  0.50784761  1
  In  In32  1  0.68034516  0.03438408  0.33542608  1
  In  In33  1  0.48883902  0.70833113  0.50880260  1
  In  In34  1  0.15839196  0.82698784  0.65551025  1
  In  In35  1  0.66643583  0.49819649  0.14662649  1
  In  In36  1  0.17368968  0.50253625  0.31680846  1
  In  In37  1  0.32055314  0.86481712  0.48078533  1
  In  In38  1  0.84610844  0.17083299  0.33173389  1
  In  In39  1  0.01939520  0.32819132  0.03314282  1
  In  In40  1  0.85396216  0.34268827  0.17237217  1
  In  In41  1  0.82105988  0.02043786  0.14837395  1
  In  In42  1  0.67121400  0.00919638  0.65599239  1
  In  In43  1  0.31268841  0.67008303  0.03198077  1
  In  In44  1  0.68212801  0.32284805  0.35626321  1
  In  In45  1  0.13260906  0.02869776  0.82015486  1
  In  In46  1  0.66246341  0.84471221  0.51518587  1
  In  In47  1  0.80686202  0.47699198  0.67702362  1
  In  In48  1  0.83147941  0.82915761  0.67918612  1
  In  In49  1  0.35791418  0.84188830  0.81024872  1
  In  In50  1  0.49801935  0.32997756  0.85387677  1
  In  In51  1  0.82484340  0.66994962  0.85332034  1
  In  In52  1  0.31874006  -0.01180403  0.64511503  1
  In  In53  1  0.50266358  0.02071461  0.84512661  1
  In  In54  1  0.34093676  0.17504003  0.15604657  1
  In  In55  1  0.30702249  0.18094639  0.85180049  1
  In  In56  1  0.00992060  0.88304361  0.50042394  1
  In  In57  1  0.82382990  0.65897029  0.50507164  1
  In  In58  1  0.86468031  0.84740170  0.34773021  1
  In  In59  1  0.68731775  0.84000737  0.15152574  1
  In  In60  1  0.04548015  0.84986438  0.17716045  1
  In  In61  1  0.51308450  0.83918483  0.32286806  1
  In  In62  1  0.15138123  0.00318800  0.15449149  1
  In  In63  1  0.82917928  0.65918673  0.14260203  1
  In  In64  1  0.34012781  0.00358755  -0.02383416  1
  In  In65  1  0.00550423  0.48801375  0.83470571  1
  In  In66  1  0.01821378  0.68007425  0.34044958  1
  In  In67  1  0.48610012  0.64118416  0.16291816  1
  In  In68  1  0.51624800  0.32646004  0.50950246  1
  In  In69  1  0.83919380  0.00835702  0.81883355  1
  In  In70  1  0.51696874  0.48852837  -0.01364850  1
  In  In71  1  0.31825376  0.34462570  0.01966632  1
  Te  Te72  1  0.05464741  0.10287248  0.09224055  1
  Te  Te73  1  0.10190144  0.06199433  0.39284378  1
  Te  Te74  1  0.02132662  0.09466981  0.74522712  1
  Te  Te75  1  0.10136101  0.42755639  0.10317438  1
  Te  Te76  1  0.09163618  0.43067970  0.42298449  1
  Te  Te77  1  0.08355578  0.41782885  0.73257160  1
  Te  Te78  1  0.08632864  0.75522140  0.06947546  1
  Te  Te79  1  0.09550589  0.79288068  0.40855024  1
  Te  Te80  1  0.07963702  0.75420886  0.76393771  1
  Te  Te81  1  0.42500079  0.07481762  0.07936673  1
  Te  Te82  1  0.42184120  0.07901898  0.41598608  1
  Te  Te83  1  0.38833880  0.07781814  0.76019039  1
  Te  Te84  1  0.42813184  0.42307570  0.10251874  1
  Te  Te85  1  0.39819752  0.40291244  0.42387615  1
  Te  Te86  1  0.42568295  0.42891875  0.75358501  1
  Te  Te87  1  0.41350156  0.75200755  0.09978424  1
  Te  Te88  1  0.40004597  0.76096589  0.39419902  1
  Te  Te89  1  0.44535535  0.71886606  0.77092017  1
  Te  Te90  1  0.70370859  0.09373302  0.09944028  1
  Te  Te91  1  0.76807087  0.09791846  0.43477748  1
  Te  Te92  1  0.76065481  0.11845864  0.71506170  1
  Te  Te93  1  0.74887246  0.39563064  0.07335169  1
  Te  Te94  1  0.77660571  0.40807695  0.43694427  1
  Te  Te95  1  0.72684945  0.38726472  0.75976967  1
  Te  Te96  1  0.74521644  0.74398809  0.05037394  1
  Te  Te97  1  0.74523587  0.75608645  0.41440532  1
  Te  Te98  1  0.73556108  0.76717136  0.77540355  1
  Te  Te99  1  0.10629223  0.20568393  0.19890558  1
  Te  Te100  1  0.08294597  0.24546176  0.57588814  1
  Te  Te101  1  0.06785894  0.23598527  0.92771317  1
  Te  Te102  1  0.08382538  0.59165006  0.24347765  1
  Te  Te103  1  0.08852371  0.57727294  0.59349281  1
  Te  Te104  1  0.06130206  0.58437007  0.93146021  1
  Te  Te105  1  0.05275419  0.96943879  0.27093615  1
  Te  Te106  1  0.08346712  0.94498005  0.61125008  1
  Te  Te107  1  0.06117096  0.92884305  0.91061772  1
  Te  Te108  1  0.43148697  0.25193497  0.25296766  1
  Te  Te109  1  0.40712829  0.24737899  0.59248291  1
  Te  Te110  1  0.40801212  0.24657531  0.94308434  1
  Te  Te111  1  0.41500830  0.57120616  0.27804646  1
  Te  Te112  1  0.42917454  0.57953100  0.58127931  1
  Te  Te113  1  0.40987473  0.58638912  0.93977496  1
  Te  Te114  1  0.40991335  0.90715141  0.23595595  1
  Te  Te115  1  0.43188288  0.92386557  0.56893370  1
  Te  Te116  1  0.44140015  0.90238895  0.92192350  1
  Te  Te117  1  0.75206150  0.25079554  0.24409900  1
  Te  Te118  1  0.72080644  0.21475972  0.59778168  1
  Te  Te119  1  0.78434300  0.22455636  0.91130451  1
  Te  Te120  1  0.77434389  0.54849289  0.24199570  1
  Te  Te121  1  0.73575129  0.59677782  0.61006788  1
  Te  Te122  1  0.75028910  0.56004291  0.92062057  1
  Te  Te123  1  0.75391863  0.91683216  0.26316867  1
  Te  Te124  1  0.77389837  0.92598520  0.57810490  1
  Te  Te125  1  0.73891984  0.94534075  0.90672403  1
  Te  Te126  1  0.23082841  0.24055148  0.08076547  1
  Te  Te127  1  0.23812639  0.23583399  0.38575598  1
  Te  Te128  1  0.21567581  0.22313725  0.73884670  1
  Te  Te129  1  0.22023456  0.56588750  0.08039853  1
  Te  Te130  1  0.24644393  0.60571572  0.41286229  1
  Te  Te131  1  0.23579824  0.56980739  0.74432271  1
  Te  Te132  1  0.25607262  0.92272299  0.07429902  1
  Te  Te133  1  0.21610957  0.95885619  0.42802061  1
  Te  Te134  1  0.23670771  0.92152590  0.76339707  1
  Te  Te135  1  0.61256689  0.21724771  0.06442340  1
  Te  Te136  1  0.58166873  0.23518194  0.41665769  1
  Te  Te137  1  0.56836105  0.23446522  0.75824142  1
  Te  Te138  1  0.59265435  0.59956350  0.06270151  1
  Te  Te139  1  0.58834331  0.60005485  0.43019049  1
  Te  Te140  1  0.62154602  0.57876856  0.81915202  1
  Te  Te141  1  0.59362359  0.90868044  0.06377097  1
  Te  Te142  1  0.58960052  0.93056695  0.41360085  1
  Te  Te143  1  0.59038299  0.93208516  0.75826338  1
  Te  Te144  1  0.92228993  0.23556941  0.09663910  1
  Te  Te145  1  0.94019243  0.26139567  0.41462861  1
  Te  Te146  1  0.94442441  0.22858880  0.71601758  1
  Te  Te147  1  0.93629260  0.58243702  0.07785694  1
  Te  Te148  1  0.91453732  0.58601740  0.40886243  1
  Te  Te149  1  0.90425596  0.57816995  0.74634864  1
  Te  Te150  1  0.91150754  0.90102988  0.10007750  1
  Te  Te151  1  0.90469033  0.96137514  0.43262901  1
  Te  Te152  1  0.92795939  0.91369299  0.74891265  1
  Te  Te153  1  0.25673892  0.07753357  0.23752961  1
  Te  Te154  1  0.23106094  0.09145648  0.59065405  1
  Te  Te155  1  0.21917977  0.08726175  0.93190830  1
  Te  Te156  1  0.20885582  0.39094269  0.20919800  1
  Te  Te157  1  0.25266356  0.40748561  0.59719108  1
  Te  Te158  1  0.23220102  0.41429861  0.91710899  1
  Te  Te159  1  0.18063112  0.78052206  0.21290863  1
  Te  Te160  1  0.27255064  0.75377249  0.58499137  1
  Te  Te161  1  0.26715369  0.75063438  0.90245468  1
  Te  Te162  1  0.59589473  0.09976729  0.23156187  1
  Te  Te163  1  0.59461237  0.09783069  0.56365863  1
  Te  Te164  1  0.57514897  0.10587320  0.94292590  1
  Te  Te165  1  0.59214274  0.41005060  0.25173042  1
  Te  Te166  1  0.59015288  0.41826823  0.60240841  1
  Te  Te167  1  0.60741252  0.38512731  0.93470311  1
  Te  Te168  1  0.59143026  0.73567144  0.24046290  1
  Te  Te169  1  0.59249247  0.75111710  0.61114807  1
  Te  Te170  1  0.60678322  0.72476288  0.85124802  1
  Te  Te171  1  0.91782117  0.06880249  0.24958663  1
  Te  Te172  1  0.93649614  0.11081146  0.61103906  1
  Te  Te173  1  0.89139880  0.10284668  0.92326344  1
  Te  Te174  1  0.96111190  0.41438096  0.24554802  1
  Te  Te175  1  0.91181832  0.40000502  0.59737114  1
  Te  Te176  1  0.91972096  0.38831588  0.91010737  1
  Te  Te177  1  0.90911308  0.74364922  0.24749694  1
  Te  Te178  1  0.92752690  0.75535381  0.56219209  1
  Te  Te179  1  0.92640530  0.75275323  0.91797877  1
