# generated using pymatgen
data_In2Te3
_symmetry_space_group_name_H-M   'P 1'
_cell_length_a   19.03915613
_cell_length_b   19.04377082
_cell_length_c   19.04835606
_cell_angle_alpha   89.93777216
_cell_angle_beta   89.69151543
_cell_angle_gamma   89.98073892
_symmetry_Int_Tables_number   1
_chemical_formula_structural   In2Te3
_chemical_formula_sum   'In72 Te108'
_cell_volume   6906.39744894
_cell_formula_units_Z   36
loop_
 _symmetry_equiv_pos_site_id
 _symmetry_equiv_pos_as_xyz
  1  'x, y, z'
loop_
 _atom_site_type_symbol
 _atom_site_label
 _atom_site_symmetry_multiplicity
 _atom_site_fract_x
 _atom_site_fract_y
 _atom_site_fract_z
 _atom_site_occupancy
  In  In0  1  0.67450785  0.82850996  0.16463629  1
  In  In1  1  0.32479296  -0.00082145  -0.01410688  1
  In  In2  1  0.02519029  0.35173426  0.66615322  1
  In  In3  1  0.49330533  0.19496274  0.00761929  1
  In  In4  1  -0.00017383  0.67517618  0.31895863  1
  In  In5  1  0.35394732  0.00062124  0.67147162  1
  In  In6  1  0.83811559  0.49744800  0.32030616  1
  In  In7  1  -0.00098244  0.83124205  0.17082279  1
  In  In8  1  0.68298284  -0.00063272  0.02551266  1
  In  In9  1  0.34031051  0.33021939  0.32915205  1
  In  In10  1  0.48497620  0.83850453  0.69034981  1
  In  In11  1  0.15836333  0.32582341  0.51074907  1
  In  In12  1  0.02109136  0.50277749  0.48647722  1
  In  In13  1  0.65412238  0.17204564  0.48896780  1
  In  In14  1  0.18521767  0.82404607  0.04202839  1
  In  In15  1  -0.00770817  0.35014930  -0.01521495  1
  In  In16  1  0.79843778  0.82466638  0.66359116  1
  In  In17  1  0.15897690  0.82494420  0.31615048  1
  In  In18  1  0.13923701  0.53435360  -0.03215115  1
  In  In19  1  0.18076947  -0.01213543  0.50752227  1
  In  In20  1  0.16361917  -0.01322432  0.86924930  1
  In  In21  1  0.53499894  0.32032531  0.18138775  1
  In  In22  1  0.50516395  0.00647177  0.84409379  1
  In  In23  1  0.34294277  0.49915183  0.17729126  1
  In  In24  1  0.65758409  0.33808453  0.35393549  1
  In  In25  1  0.47713812  0.66701059  0.15400343  1
  In  In26  1  -0.01465784  0.01599293  0.64782281  1
  In  In27  1  0.32261501  0.81915201  0.82792553  1
  In  In28  1  0.53736025  0.01151592  0.19123448  1
  In  In29  1  0.84890841  0.48176138  0.66046721  1
  In  In30  1  0.66679518  0.64966733  0.67581459  1
  In  In31  1  0.34255752  0.13648435  0.18292598  1
  In  In32  1  0.33931136  0.67018867  -0.00732473  1
  In  In33  1  0.16780240  0.33289159  0.17117615  1
  In  In34  1  0.66895870  0.84311275  0.49594850  1
  In  In35  1  0.66592167  0.19694563  0.83269894  1
  In  In36  1  -0.02079462  0.80695101  0.81846016  1
  In  In37  1  0.84752532  0.80922649  -0.01364270  1
  In  In38  1  0.65859861  0.48841641  0.82777071  1
  In  In39  1  0.00557894  0.19012486  0.82537647  1
  In  In40  1  0.48835073  0.83187516  0.34544951  1
  In  In41  1  0.69268076  0.65977345  0.32314112  1
  In  In42  1  0.49641169  0.47798364  0.68482710  1
  In  In43  1  -0.03459539  0.16974017  0.44486275  1
  In  In44  1  0.49706077  0.66776275  0.50527463  1
  In  In45  1  0.20449559  0.77724858  0.63174987  1
  In  In46  1  0.64598326  0.65895803  -0.02107470  1
  In  In47  1  0.47513842  0.50371406  -0.01370376  1
  In  In48  1  0.15086598  0.17013954  0.01022523  1
  In  In49  1  0.35836263  0.31841565  0.62057763  1
  In  In50  1  0.83451045  0.01253906  0.85133913  1
  In  In51  1  0.00546728  -0.01105714  0.02768490  1
  In  In52  1  0.34712015  0.00054126  0.36221104  1
  In  In53  1  0.64741693  0.80914536  0.82721072  1
  In  In54  1  0.17825174  0.65629608  0.18477457  1
  In  In55  1  0.63552231  0.31184841  0.65265479  1
  In  In56  1  0.17414998  0.16548480  0.67660615  1
  In  In57  1  0.66999827  0.50967738  0.51229282  1
  In  In58  1  -0.00149419  0.83588898  0.49652603  1
  In  In59  1  0.50922854  0.01072449  0.50826111  1
  In  In60  1  0.84505460  0.82464007  0.32577933  1
  In  In61  1  -0.01969155  0.50555206  0.14885340  1
  In  In62  1  0.84798371  0.18888460  0.65816293  1
  In  In63  1  0.16532693  0.18433415  0.34378861  1
  In  In64  1  0.32624344  0.50690801  0.48167553  1
  In  In65  1  -0.00416294  0.67223119  0.68738098  1
  In  In66  1  0.67420024  0.35561921  0.00787675  1
  In  In67  1  0.82931214  0.31927306  0.17540894  1
  In  In68  1  0.31314519  0.35588363  -0.00204448  1
  In  In69  1  0.82473827  0.18648839  -0.00208006  1
  In  In70  1  0.83445020  0.04164493  0.23799953  1
  In  In71  1  0.18440477  0.53244793  0.68959382  1
  Te  Te72  1  0.08396241  0.08221815  0.10539766  1
  Te  Te73  1  0.09257862  0.08112956  0.43192247  1
  Te  Te74  1  0.07561423  0.07082094  0.76266178  1
  Te  Te75  1  0.09668167  0.42635614  0.07469664  1
  Te  Te76  1  0.07364219  0.38911417  0.41098344  1
  Te  Te77  1  0.09770656  0.43347894  0.76570330  1
  Te  Te78  1  0.08077256  0.73025929  0.09323366  1
  Te  Te79  1  0.08820817  0.74059255  0.42161669  1
  Te  Te80  1  0.10598969  0.75729428  0.74604001  1
  Te  Te81  1  0.43234076  0.07427069  0.07534188  1
  Te  Te82  1  0.41891817  0.10561416  0.43738955  1
  Te  Te83  1  0.42515407  0.09264917  0.75861179  1
  Te  Te84  1  0.42674807  0.40053802  0.09726541  1
  Te  Te85  1  0.41670816  0.44270162  0.38396506  1
  Te  Te86  1  0.40209897  0.38339306  0.74607868  1
  Te  Te87  1  0.38882053  0.76577226  0.09242484  1
  Te  Te88  1  0.40083634  0.74046581  0.42104869  1
  Te  Te89  1  0.39148306  0.72981169  0.73035577  1
  Te  Te90  1  0.77746846  0.08679243  0.10309027  1
  Te  Te91  1  0.72770384  0.10566528  0.37438303  1
  Te  Te92  1  0.76521135  0.10599220  0.75633516  1
  Te  Te93  1  0.75132209  0.42494410  0.11010011  1
  Te  Te94  1  0.75968999  0.42314970  0.42716335  1
  Te  Te95  1  0.73296808  0.40819114  0.72437357  1
  Te  Te96  1  0.74409138  0.73584459  0.06914303  1
  Te  Te97  1  0.76162861  0.74626737  0.42545765  1
  Te  Te98  1  0.75981063  0.72550837  0.77044558  1
  Te  Te99  1  0.07538373  0.25173587  0.25021459  1
  Te  Te100  1  0.06841517  0.22743994  0.58937462  1
  Te  Te101  1  0.10164936  0.27005494  0.90781029  1
  Te  Te102  1  0.07794996  0.56566812  0.25136059  1
  Te  Te103  1  0.08220306  0.59036938  0.59308197  1
  Te  Te104  1  0.06546763  0.57006733  0.84483188  1
  Te  Te105  1  0.05961318  0.92126470  0.26709105  1
  Te  Te106  1  0.08412403  0.91177254  0.59792202  1
  Te  Te107  1  0.05672065  0.89455396  0.92179119  1
  Te  Te108  1  0.43096992  0.23373269  0.25402656  1
  Te  Te109  1  0.44918462  0.23248560  0.54231082  1
  Te  Te110  1  0.39938336  0.26401590  0.92231386  1
  Te  Te111  1  0.41726525  0.58953956  0.26340935  1
  Te  Te112  1  0.42087079  0.56649094  0.58659346  1
  Te  Te113  1  0.38403865  0.57043957  0.88922701  1
  Te  Te114  1  0.42396450  0.93041063  0.25012116  1
  Te  Te115  1  0.41685205  0.90382529  0.57463758  1
  Te  Te116  1  0.41571929  0.90378989  0.91239094  1
  Te  Te117  1  0.73463796  0.23917185  0.26481717  1
  Te  Te118  1  0.75170344  0.26160016  0.56954706  1
  Te  Te119  1  0.76434809  0.28621487  0.90524065  1
  Te  Te120  1  0.76310698  0.57900200  0.22399421  1
  Te  Te121  1  0.77319280  0.59052336  0.58623774  1
  Te  Te122  1  0.74326049  0.57337372  0.90957090  1
  Te  Te123  1  0.74589283  0.91925413  0.26075857  1
  Te  Te124  1  0.75530101  0.93032854  0.57508539  1
  Te  Te125  1  0.74601823  0.90734281  0.91587215  1
  Te  Te126  1  0.26423719  0.23770413  0.09972430  1
  Te  Te127  1  0.26543838  0.24996944  0.43414147  1
  Te  Te128  1  0.26624570  0.26508542  0.72914103  1
  Te  Te129  1  0.25264210  0.57258727  0.07826751  1
  Te  Te130  1  0.22815440  0.59625476  0.42077862  1
  Te  Te131  1  0.29255760  0.60266364  0.75802346  1
  Te  Te132  1  0.23229381  0.95181400  0.09012337  1
  Te  Te133  1  0.25448580  0.89450819  0.41788567  1
  Te  Te134  1  0.24790543  0.92952010  0.75692109  1
  Te  Te135  1  0.61468199  0.23638428  0.08292488  1
  Te  Te136  1  0.54892273  0.25990078  0.42533873  1
  Te  Te137  1  0.55396088  0.23855484  0.75017356  1
  Te  Te138  1  0.56961491  0.57361977  0.07989309  1
  Te  Te139  1  0.59130428  0.59111457  0.41364149  1
  Te  Te140  1  0.56281667  0.58802212  0.76465830  1
  Te  Te141  1  0.57769524  0.90812476  0.08179158  1
  Te  Te142  1  0.58655625  0.92890967  0.40481077  1
  Te  Te143  1  0.59346059  0.92611072  0.74857723  1
  Te  Te144  1  0.93107516  0.25109087  0.08210957  1
  Te  Te145  1  0.84946170  0.23124572  0.37416842  1
  Te  Te146  1  0.91571170  0.28493776  0.75417671  1
  Te  Te147  1  0.92180833  0.56525753  0.02871444  1
  Te  Te148  1  0.91942566  0.58719562  0.41213369  1
  Te  Te149  1  0.92888404  0.55867087  0.75882711  1
  Te  Te150  1  0.89471538  0.90824400  0.09028659  1
  Te  Te151  1  0.92775225  0.92046335  0.40034183  1
  Te  Te152  1  0.90595415  0.92539567  0.74828076  1
  Te  Te153  1  0.24420212  0.07259620  0.27619994  1
  Te  Te154  1  0.26408582  0.08625972  0.58446157  1
  Te  Te155  1  0.24748993  0.10459137  0.91057326  1
  Te  Te156  1  0.24150939  0.42557179  0.26314952  1
  Te  Te157  1  0.23976286  0.42571361  0.58839036  1
  Te  Te158  1  0.24423600  0.44790649  0.90772771  1
  Te  Te159  1  0.26536545  0.76085856  0.23677536  1
  Te  Te160  1  0.27091903  0.68226361  0.53224261  1
  Te  Te161  1  0.22730753  0.74556820  0.92188483  1
  Te  Te162  1  0.60916763  0.10402445  0.27604980  1
  Te  Te163  1  0.60383831  0.08118656  0.59253710  1
  Te  Te164  1  0.60989700  0.08765034  0.92684079  1
  Te  Te165  1  0.60074653  0.42732614  0.25279462  1
  Te  Te166  1  0.56641288  0.41493415  0.56599248  1
  Te  Te167  1  0.56581089  0.40573700  0.91459835  1
  Te  Te168  1  0.58139424  0.74727579  0.25341011  1
  Te  Te169  1  0.58817798  0.75482417  0.59790404  1
  Te  Te170  1  0.54898532  0.74549774  0.91215586  1
  Te  Te171  1  0.93904389  0.12753669  0.29773954  1
  Te  Te172  1  0.89307245  0.08624336  0.55353351  1
  Te  Te173  1  0.93391817  0.09590383  0.92853198  1
  Te  Te174  1  0.93266035  0.40274467  0.24950794  1
  Te  Te175  1  0.93008005  0.40298282  0.56102198  1
  Te  Te176  1  0.89724731  0.44967387  0.93925988  1
  Te  Te177  1  0.89845256  0.72899354  0.22201764  1
  Te  Te178  1  0.91213440  0.75501576  0.59160284  1
  Te  Te179  1  0.94158461  0.71330623  0.92681563  1
