# generated using pymatgen
data_In2Te3
_symmetry_space_group_name_H-M   'P 1'
_cell_length_a   18.76495868
_cell_length_b   18.76295052
_cell_length_c   18.77017935
_cell_angle_alpha   89.98983343
_cell_angle_beta   90.00454523
_cell_angle_gamma   90.03308748
_symmetry_Int_Tables_number   1
_chemical_formula_structural   In2Te3
_chemical_formula_sum   'In72 Te108'
_cell_volume   6608.71597571
_cell_formula_units_Z   36
loop_
 _symmetry_equiv_pos_site_id
 _symmetry_equiv_pos_as_xyz
  1  'x, y, z'
loop_
 _atom_site_type_symbol
 _atom_site_label
 _atom_site_symmetry_multiplicity
 _atom_site_fract_x
 _atom_site_fract_y
 _atom_site_fract_z
 _atom_site_occupancy
  In  In0  1  0.15514343  0.84307958  0.65553662  1
  In  In1  1  0.16881297  0.51411157  -0.00909604  1
  In  In2  1  0.50955287  0.14122177  0.31764749  1
  In  In3  1  0.84326410  0.51624463  0.33744302  1
  In  In4  1  0.00441278  0.34713751  0.33403656  1
  In  In5  1  0.49429015  0.49538609  -0.00664295  1
  In  In6  1  0.18187011  0.33460427  0.47677318  1
  In  In7  1  0.66864829  0.35032563  0.32790130  1
  In  In8  1  0.67546766  0.83601445  0.48660628  1
  In  In9  1  0.01754535  0.82532763  0.18286221  1
  In  In10  1  0.65949959  0.84950264  0.17799073  1
  In  In11  1  0.32851282  0.66155162  0.01107439  1
  In  In12  1  0.50106713  0.00375067  0.82720378  1
  In  In13  1  0.85249150  0.67527475  0.18188850  1
  In  In14  1  0.16179191  0.00165709  0.82027017  1
  In  In15  1  0.81357164  0.30841154  0.16616056  1
  In  In16  1  0.67481787  0.49376233  0.82419738  1
  In  In17  1  0.47590917  0.30720002  0.85139898  1
  In  In18  1  -0.01164649  0.13809026  0.16162112  1
  In  In19  1  0.46688605  0.86708487  0.64674623  1
  In  In20  1  0.19022727  0.30955944  0.16358386  1
  In  In21  1  0.82812542  0.83320539  -0.01698956  1
  In  In22  1  0.14494752  0.68464625  0.49217730  1
  In  In23  1  0.83269344  0.15823032  0.69220986  1
  In  In24  1  0.17405914  0.15413156  0.00406634  1
  In  In25  1  0.50274733  0.33220214  0.52141378  1
  In  In26  1  0.34504180  -0.00566218  0.33798592  1
  In  In27  1  0.65405108  0.34182417  0.67062131  1
  In  In28  1  0.66474790  0.14846550  0.50975221  1
  In  In29  1  0.33597704  0.00921320  0.01254043  1
  In  In30  1  0.01536984  0.53474747  0.18543006  1
  In  In31  1  -0.00969917  0.51573484  0.82668201  1
  In  In32  1  0.34787178  0.49984547  0.15305588  1
  In  In33  1  0.82337314  0.16561598  0.31486074  1
  In  In34  1  0.64559308  -0.00772795  0.00263659  1
  In  In35  1  0.34560758  0.31799941  0.34728730  1
  In  In36  1  -0.02147258  0.56542383  0.50604673  1
  In  In37  1  0.19868707  0.14000625  0.64903595  1
  In  In38  1  0.16651490  0.50268936  0.64021826  1
  In  In39  1  -0.01447684  0.83186697  0.82095537  1
  In  In40  1  0.67335387  0.68443454  0.66658410  1
  In  In41  1  0.02044623  0.35309221  -0.01299755  1
  In  In42  1  0.68575211  0.48867207  0.17966724  1
  In  In43  1  0.17685574  0.83905250  0.33915556  1
  In  In44  1  0.49038284  0.13456613  0.64849461  1
  In  In45  1  0.18351460  0.31855900  0.83659136  1
  In  In46  1  0.67143629  0.82417967  0.83191684  1
  In  In47  1  0.82181560  -0.00211360  0.18338760  1
  In  In48  1  0.33769570  0.68757112  0.32793409  1
  In  In49  1  0.33427676  0.48601503  0.50048325  1
  In  In50  1  0.15056999  0.52339881  0.31061566  1
  In  In51  1  0.66277071  0.67083470  -0.01595126  1
  In  In52  1  -0.01029985  0.01545412  -0.00613357  1
  In  In53  1  0.49722123  0.68029783  0.16971737  1
  In  In54  1  0.32589671  0.84043394  0.83289596  1
  In  In55  1  0.52260900  0.66024766  0.47079073  1
  In  In56  1  -0.01400055  0.32023829  0.67967026  1
  In  In57  1  0.67874501  0.15637872  0.83506590  1
  In  In58  1  0.81423072  0.50113304  0.01749309  1
  In  In59  1  0.34958429  0.15877540  0.17521861  1
  In  In60  1  0.34301954  0.49762947  0.82731187  1
  In  In61  1  0.50259391  0.85310687  0.33922490  1
  In  In62  1  0.82223442  0.52089038  0.65354491  1
  In  In63  1  0.02552927  0.14973245  0.49704980  1
  In  In64  1  -0.00231693  -0.00948625  0.67341695  1
  In  In65  1  0.82625922  0.35531364  0.48709037  1
  In  In66  1  0.84507686  -0.02946992  0.48419771  1
  In  In67  1  0.31876959  0.67426900  0.67757771  1
  In  In68  1  0.83752398  0.15994219  -0.02473591  1
  In  In69  1  0.16110792  0.14636683  0.35524660  1
  In  In70  1  0.50233358  0.51307719  0.68860018  1
  In  In71  1  0.17892130  0.83083904  0.01987197  1
  Te  Te72  1  0.09948754  0.05735561  0.09466301  1
  Te  Te73  1  0.08088728  0.03730277  0.41853151  1
  Te  Te74  1  0.07958190  0.10155609  0.73888030  1
  Te  Te75  1  0.09292497  0.41809185  0.10517459  1
  Te  Te76  1  0.07973766  0.44233641  0.42777630  1
  Te  Te77  1  0.09004107  0.41475419  0.75118889  1
  Te  Te78  1  0.07691545  0.73999623  0.07844717  1
  Te  Te79  1  0.05947787  0.79337996  0.43059300  1
  Te  Te80  1  0.09697539  0.75536270  0.75974064  1
  Te  Te81  1  0.44611278  0.09250257  0.07983693  1
  Te  Te82  1  0.43759179  0.07168499  0.42943634  1
  Te  Te83  1  0.39971416  0.08516017  0.75534913  1
  Te  Te84  1  0.43219004  0.39848688  0.08711182  1
  Te  Te85  1  0.43834744  0.42142701  0.41141494  1
  Te  Te86  1  0.41695364  0.39770932  0.73997587  1
  Te  Te87  1  0.40548739  0.76131975  0.08836528  1
  Te  Te88  1  0.41582262  0.76428463  0.43214278  1
  Te  Te89  1  0.42445652  0.75780046  0.74868440  1
  Te  Te90  1  0.75363016  0.07921966  0.07452038  1
  Te  Te91  1  0.74841204  0.07041932  0.40852098  1
  Te  Te92  1  0.72814218  0.06358202  0.73144891  1
  Te  Te93  1  0.72442836  0.38684572  0.06996751  1
  Te  Te94  1  0.72670764  0.45761087  0.42559950  1
  Te  Te95  1  0.77092116  0.40633319  0.74379456  1
  Te  Te96  1  0.74640292  0.74936257  0.08878608  1
  Te  Te97  1  0.76873490  0.72710451  0.44467439  1
  Te  Te98  1  0.77551739  0.75861998  0.74609600  1
  Te  Te99  1  0.08129709  0.24030758  0.25115995  1
  Te  Te100  1  0.09102297  0.25909471  0.58186895  1
  Te  Te101  1  0.07962073  0.23328481  0.91277287  1
  Te  Te102  1  0.06195588  0.63803826  0.28057692  1
  Te  Te103  1  0.07438536  0.62485873  0.61942109  1
  Te  Te104  1  0.07208980  0.59846102  0.92009927  1
  Te  Te105  1  0.09152169  0.93011531  0.25577922  1
  Te  Te106  1  0.05962233  0.91191073  0.56274893  1
  Te  Te107  1  0.08440935  0.91626845  0.92057320  1
  Te  Te108  1  0.44190491  0.25969661  0.24495275  1
  Te  Te109  1  0.40667616  0.23779847  0.58045870  1
  Te  Te110  1  0.40478007  0.23288102  0.95512337  1
  Te  Te111  1  0.42293828  0.57970180  0.25996328  1
  Te  Te112  1  0.41222899  0.58815961  0.58661753  1
  Te  Te113  1  0.42380636  0.59926157  0.90690724  1
  Te  Te114  1  0.41998672  0.91812910  0.23465976  1
  Te  Te115  1  0.39305563  0.96421713  0.55858867  1
  Te  Te116  1  0.42136313  0.91426946  0.92425265  1
  Te  Te117  1  0.70388885  0.22491734  0.23501485  1
  Te  Te118  1  0.75071863  0.25837247  0.58069701  1
  Te  Te119  1  0.74297008  0.25912262  0.92052802  1
  Te  Te120  1  0.74089995  0.60484437  0.25967273  1
  Te  Te121  1  0.74812238  0.61156585  0.55764352  1
  Te  Te122  1  0.76348112  0.59079535  0.90353778  1
  Te  Te123  1  0.74241925  0.91747499  0.28102164  1
  Te  Te124  1  0.76657691  0.89817014  0.58797984  1
  Te  Te125  1  0.74929766  0.93679366  0.90420211  1
  Te  Te126  1  0.28394545  0.25094426  0.05648842  1
  Te  Te127  1  0.27186618  0.21720348  0.43482962  1
  Te  Te128  1  0.26428962  0.23057235  0.74793425  1
  Te  Te129  1  0.23347613  0.58923806  0.10888736  1
  Te  Te130  1  0.24802698  0.58482169  0.42157875  1
  Te  Te131  1  0.23343072  0.57791889  0.75936096  1
  Te  Te132  1  0.26764097  0.91445271  0.10433501  1
  Te  Te133  1  0.25668752  0.92158371  0.43922953  1
  Te  Te134  1  0.26001223  0.92973176  0.72844677  1
  Te  Te135  1  0.58278827  0.17822742  0.13067020  1
  Te  Te136  1  0.58818122  0.24919375  0.42118653  1
  Te  Te137  1  0.57320109  0.23741063  0.74389801  1
  Te  Te138  1  0.58844258  0.57948673  0.08474134  1
  Te  Te139  1  0.60683158  0.56496295  0.40087743  1
  Te  Te140  1  0.58785987  0.60769946  0.77052402  1
  Te  Te141  1  0.55671567  0.91159570  0.09138237  1
  Te  Te142  1  0.57995226  0.93998662  0.43391470  1
  Te  Te143  1  0.58257640  0.91098383  0.73805494  1
  Te  Te144  1  0.93073746  0.25385934  0.08050679  1
  Te  Te145  1  0.91678025  0.24664309  0.41542781  1
  Te  Te146  1  0.90896239  0.24730420  0.78203595  1
  Te  Te147  1  0.92360642  0.59165630  0.07558646  1
  Te  Te148  1  0.89757711  0.64370886  0.40178007  1
  Te  Te149  1  0.89987312  0.60500181  0.74809963  1
  Te  Te150  1  0.91367776  0.91639844  0.08250477  1
  Te  Te151  1  0.91434764  0.86472893  0.40359723  1
  Te  Te152  1  0.89162991  0.89735277  0.72377896  1
  Te  Te153  1  0.24685877  0.07642073  0.24852375  1
  Te  Te154  1  0.25265786  0.03702427  0.55610463  1
  Te  Te155  1  0.26223797  0.08530560  0.90002518  1
  Te  Te156  1  0.25120383  0.40854185  0.26554012  1
  Te  Te157  1  0.26150454  0.39232501  0.59637811  1
  Te  Te158  1  0.26431106  0.41356748  0.92783343  1
  Te  Te159  1  0.24390924  0.75352390  0.23719186  1
  Te  Te160  1  0.25513816  0.75976452  0.56975673  1
  Te  Te161  1  0.24200437  0.74052296  0.91114282  1
  Te  Te162  1  0.58290446  0.05899661  0.21753518  1
  Te  Te163  1  0.58670133  0.04250319  0.57896508  1
  Te  Te164  1  0.56930182  0.10064698  0.92519013  1
  Te  Te165  1  0.57153904  0.41295954  0.23509995  1
  Te  Te166  1  0.58892345  0.44651062  0.58221079  1
  Te  Te167  1  0.58317295  0.40437836  0.90778053  1
  Te  Te168  1  0.59027334  0.74712385  0.27066851  1
  Te  Te169  1  0.56540006  0.75853512  0.58281654  1
  Te  Te170  1  0.57186820  0.77157319  0.92854698  1
  Te  Te171  1  0.92927803  0.06038631  0.27721780  1
  Te  Te172  1  0.90742633  0.08896592  0.57570827  1
  Te  Te173  1  0.91245666  0.07241847  0.88215524  1
  Te  Te174  1  0.90520392  0.42000326  0.23286997  1
  Te  Te175  1  0.93069391  0.42448219  0.57700722  1
  Te  Te176  1  0.90577131  0.42288980  0.91862691  1
  Te  Te177  1  0.88666081  0.80168954  0.25909086  1
  Te  Te178  1  0.93534843  0.69328534  0.56875862  1
  Te  Te179  1  0.92168553  0.73967861  0.91920046  1
