# generated using pymatgen
data_In2Te3
_symmetry_space_group_name_H-M   'P 1'
_cell_length_a   18.91353639
_cell_length_b   18.92184097
_cell_length_c   18.89806569
_cell_angle_alpha   90.04120080
_cell_angle_beta   90.00484160
_cell_angle_gamma   89.96720179
_symmetry_Int_Tables_number   1
_chemical_formula_structural   In2Te3
_chemical_formula_sum   'In72 Te108'
_cell_volume   6763.21660122
_cell_formula_units_Z   36
loop_
 _symmetry_equiv_pos_site_id
 _symmetry_equiv_pos_as_xyz
  1  'x, y, z'
loop_
 _atom_site_type_symbol
 _atom_site_label
 _atom_site_symmetry_multiplicity
 _atom_site_fract_x
 _atom_site_fract_y
 _atom_site_fract_z
 _atom_site_occupancy
  In  In0  1  0.82176252  -0.01043883  0.84091018  1
  In  In1  1  0.35909055  -0.03946101  0.30757951  1
  In  In2  1  0.48777341  0.33571478  0.80498222  1
  In  In3  1  0.16187310  0.85068608  0.00404126  1
  In  In4  1  0.80975602  0.51041933  0.00863015  1
  In  In5  1  0.18261280  0.34130257  0.84611148  1
  In  In6  1  0.52158928  -0.01356550  0.47916996  1
  In  In7  1  0.17011805  0.67773657  0.16156532  1
  In  In8  1  0.85150261  0.32918316  0.45323673  1
  In  In9  1  0.32712046  0.32091385  0.32460907  1
  In  In10  1  0.63960942  0.51945189  0.83871404  1
  In  In11  1  0.33544257  0.48643334  0.51297352  1
  In  In12  1  0.51719007  0.84123662  0.02414918  1
  In  In13  1  0.17018672  -0.00616364  0.83122886  1
  In  In14  1  0.48125593  0.50449379  0.00423124  1
  In  In15  1  0.83727231  0.18023768  0.64598587  1
  In  In16  1  0.15491025  0.02196321  0.48489227  1
  In  In17  1  0.17417259  0.18181461  0.66274220  1
  In  In18  1  0.65854544  0.82649374  0.83407984  1
  In  In19  1  0.17972095  0.84589580  0.65591230  1
  In  In20  1  0.20027933  0.63615340  0.79095156  1
  In  In21  1  0.14861599  0.49083358  -0.00975649  1
  In  In22  1  0.00950229  0.29661809  0.29179259  1
  In  In23  1  -0.02828139  0.30902777  0.02446086  1
  In  In24  1  0.70171865  0.50702990  0.47792465  1
  In  In25  1  0.68183249  0.16478757  0.18618057  1
  In  In26  1  -0.01256725  0.02453032  0.29275818  1
  In  In27  1  -0.10641007  0.63417463  0.35205944  1
  In  In28  1  0.55552696  0.69665584  0.17974580  1
  In  In29  1  0.82512988  0.53526363  0.65593972  1
  In  In30  1  -0.04702269  -0.00678295  0.05298936  1
  In  In31  1  0.33134501  0.16280420  0.18097804  1
  In  In32  1  -0.00442503  0.16024458  0.83761382  1
  In  In33  1  0.33616232  0.66798005  0.33376138  1
  In  In34  1  0.32842179  0.48813201  0.18173166  1
  In  In35  1  0.34010153  0.81751541  0.82920686  1
  In  In36  1  0.68880758  -0.02325455  0.66815524  1
  In  In37  1  0.35168078  0.67242832  -0.00747601  1
  In  In38  1  0.49737220  0.48294670  0.30956478  1
  In  In39  1  -0.00220281  0.83062228  0.48282121  1
  In  In40  1  0.65497858  0.00171747  0.03141555  1
  In  In41  1  -0.01774706  0.33649142  0.65865162  1
  In  In42  1  0.80540004  0.33837213  0.87103776  1
  In  In43  1  0.69067652  0.35350143  0.64793475  1
  In  In44  1  0.67595101  0.50769127  0.19673654  1
  In  In45  1  -0.00060332  0.68783735  0.65331418  1
  In  In46  1  -0.01442430  0.83169000  0.84171245  1
  In  In47  1  0.15727603  0.86112971  0.33272345  1
  In  In48  1  0.16553913  0.48592847  0.32375537  1
  In  In49  1  0.36004120  0.16832895  0.49989666  1
  In  In50  1  0.15945271  0.02047236  0.15998857  1
  In  In51  1  0.66137738  0.18193293  0.85232292  1
  In  In52  1  0.16301697  0.33652876  0.48966687  1
  In  In53  1  0.49792249  0.81952633  0.66288652  1
  In  In54  1  0.33946201  0.14549558  0.82937513  1
  In  In55  1  0.49200305  0.15047610  0.63129274  1
  In  In56  1  0.84146070  0.83244676  0.65685976  1
  In  In57  1  0.35305149  0.81442815  0.51142379  1
  In  In58  1  -0.02145840  0.66519106  -0.00945485  1
  In  In59  1  -0.03005629  0.49680895  0.17444191  1
  In  In60  1  0.32277113  0.00099582  -0.00918259  1
  In  In61  1  0.68409018  0.69691003  0.03151894  1
  In  In62  1  0.51039105  0.50663453  0.65811508  1
  In  In63  1  0.52729539  0.68258968  0.48579889  1
  In  In64  1  0.82033255  0.02790968  0.49345015  1
  In  In65  1  0.69703496  -0.00136876  0.31560766  1
  In  In66  1  -0.01693738  0.50123467  0.80639978  1
  In  In67  1  0.67809195  0.34132879  0.01843989  1
  In  In68  1  0.51001229  0.15779072  0.00280896  1
  In  In69  1  0.83411501  0.82741241  0.32886692  1
  In  In70  1  0.16364414  0.68120559  0.52436237  1
  In  In71  1  0.32149443  0.31914513  0.02556867  1
  Te  Te72  1  0.05687314  0.09305363  0.08278553  1
  Te  Te73  1  0.06769758  0.10181282  0.39441700  1
  Te  Te74  1  0.08578141  0.08403536  0.74230536  1
  Te  Te75  1  0.06584086  0.41245940  0.08827012  1
  Te  Te76  1  0.06465119  0.41477961  0.40736308  1
  Te  Te77  1  0.08466768  0.40756832  0.74600416  1
  Te  Te78  1  0.07010034  0.75444764  0.07749678  1
  Te  Te79  1  0.09263151  0.74113230  0.40465916  1
  Te  Te80  1  0.09376825  0.76457374  0.75276944  1
  Te  Te81  1  0.41539232  0.07464054  0.08642035  1
  Te  Te82  1  0.41952404  0.06443529  0.39702372  1
  Te  Te83  1  0.44104989  0.07793891  0.75028232  1
  Te  Te84  1  0.42555549  0.40194256  0.10193807  1
  Te  Te85  1  0.41688225  0.40605932  0.41385450  1
  Te  Te86  1  0.40550673  0.44546925  0.74825066  1
  Te  Te87  1  0.42460409  0.74718158  0.10077219  1
  Te  Te88  1  0.43531556  0.76544547  0.39422017  1
  Te  Te89  1  0.42325271  0.72616599  0.75085025  1
  Te  Te90  1  0.76291252  0.08280917  0.09031502  1
  Te  Te91  1  0.75259728  0.11351552  0.39426759  1
  Te  Te92  1  0.75129404  0.09669614  0.75326411  1
  Te  Te93  1  0.76980025  0.41145284  0.11554287  1
  Te  Te94  1  0.73041539  0.38930140  0.39186326  1
  Te  Te95  1  0.75465600  0.43470074  0.76436962  1
  Te  Te96  1  0.74892314  0.79262902  0.12523851  1
  Te  Te97  1  0.74208314  0.71783900  0.37991454  1
  Te  Te98  1  0.75401554  0.75704418  0.74708832  1
  Te  Te99  1  0.11266483  0.23233527  0.20875612  1
  Te  Te100  1  0.06837887  0.24559170  0.57483246  1
  Te  Te101  1  0.07456615  0.26164622  0.91947334  1
  Te  Te102  1  0.08301472  0.58165626  0.23928033  1
  Te  Te103  1  0.07832368  0.58264183  0.58925471  1
  Te  Te104  1  0.07877602  0.58909982  0.89731151  1
  Te  Te105  1  0.06762371  0.91379549  0.22379549  1
  Te  Te106  1  0.07725111  0.92255256  0.57468855  1
  Te  Te107  1  0.06357757  0.93569277  0.92587010  1
  Te  Te108  1  0.42861139  0.25363779  0.24309933  1
  Te  Te109  1  0.39882123  0.26931874  0.60983149  1
  Te  Te110  1  0.41894782  0.25137463  0.92044074  1
  Te  Te111  1  0.42727499  0.59626969  0.23257976  1
  Te  Te112  1  0.42684989  0.59446563  0.56437551  1
  Te  Te113  1  0.42844419  0.59083520  0.89758218  1
  Te  Te114  1  0.44836135  0.88638529  0.22006757  1
  Te  Te115  1  0.42401597  0.92733560  0.58173048  1
  Te  Te116  1  0.42011408  0.90640564  0.92323276  1
  Te  Te117  1  0.79583956  0.23290893  0.25738403  1
  Te  Te118  1  0.75028704  0.25440032  0.54914365  1
  Te  Te119  1  0.76125963  0.22556071  0.95969047  1
  Te  Te120  1  0.76561585  0.59842391  0.27157442  1
  Te  Te121  1  0.71011223  0.60300665  0.59296346  1
  Te  Te122  1  0.74027109  0.60444830  0.91539481  1
  Te  Te123  1  0.78937641  0.92089274  0.21759467  1
  Te  Te124  1  0.75445850  0.90293810  0.55213478  1
  Te  Te125  1  0.73486646  0.91064318  0.93531163  1
  Te  Te126  1  0.22394864  0.23047655  0.09682390  1
  Te  Te127  1  0.24551036  0.23408566  0.41743857  1
  Te  Te128  1  0.26925830  0.25842594  0.75305832  1
  Te  Te129  1  0.25187223  0.57635042  0.07941003  1
  Te  Te130  1  0.24665926  0.57744213  0.41641489  1
  Te  Te131  1  0.26605655  0.52914587  0.71941610  1
  Te  Te132  1  0.25822632  0.91573825  0.09874302  1
  Te  Te133  1  0.25387867  0.90803310  0.44066681  1
  Te  Te134  1  0.27381602  0.92659715  0.74424210  1
  Te  Te135  1  0.58573628  0.24900887  0.09472075  1
  Te  Te136  1  0.50135050  0.22984971  0.50033058  1
  Te  Te137  1  0.60123420  0.26151395  0.73592271  1
  Te  Te138  1  0.59423896  0.57277172  0.08082135  1
  Te  Te139  1  0.58178559  0.56917428  0.40161968  1
  Te  Te140  1  0.60186243  0.60514702  0.72420138  1
  Te  Te141  1  0.57437880  0.92621157  0.13431384  1
  Te  Te142  1  0.60240911  0.90300533  0.38444437  1
  Te  Te143  1  0.57494271  0.92057511  0.75014215  1
  Te  Te144  1  0.91197909  0.24560826  0.14631903  1
  Te  Te145  1  0.95054246  0.22682785  0.41040113  1
  Te  Te146  1  0.90097977  0.26427143  0.76946716  1
  Te  Te147  1  0.89046433  0.60333998  0.09802604  1
  Te  Te148  1  0.88867495  0.56499268  0.48064720  1
  Te  Te149  1  0.90517660  0.61926370  0.75498325  1
  Te  Te150  1  0.88034851  0.86903641  0.08424613  1
  Te  Te151  1  0.92080832  0.93666505  0.40537774  1
  Te  Te152  1  0.92194553  0.92892101  0.74336062  1
  Te  Te153  1  0.25420256  0.06534389  0.27023973  1
  Te  Te154  1  0.25464302  0.08359688  0.58164041  1
  Te  Te155  1  0.22893701  0.09983786  0.92361006  1
  Te  Te156  1  0.22672951  0.38604613  0.22863129  1
  Te  Te157  1  0.22892657  0.42137480  0.59355229  1
  Te  Te158  1  0.27401228  0.42912384  0.92960457  1
  Te  Te159  1  0.25238545  0.76555745  0.25317055  1
  Te  Te160  1  0.27390547  0.73359138  0.61321822  1
  Te  Te161  1  0.23645464  0.74610030  0.92050352  1
  Te  Te162  1  0.58665679  0.08315327  0.26310790  1
  Te  Te163  1  0.61057595  0.06690332  0.57471095  1
  Te  Te164  1  0.58282248  0.06544754  0.90797155  1
  Te  Te165  1  0.60232658  0.39342590  0.25579653  1
  Te  Te166  1  0.59203828  0.42441255  0.56099985  1
  Te  Te167  1  0.57864960  0.40148287  0.91760955  1
  Te  Te168  1  0.63013311  0.77092008  0.28631511  1
  Te  Te169  1  0.60231508  0.77838491  0.56732626  1
  Te  Te170  1  0.57800021  0.73907777  0.92981403  1
  Te  Te171  1  0.88639476  0.10996272  0.22251543  1
  Te  Te172  1  0.92061457  0.07468352  0.59020898  1
  Te  Te173  1  0.90706139  0.07902386  0.92951859  1
  Te  Te174  1  0.92327638  0.41936008  0.29100308  1
  Te  Te175  1  0.89730492  0.42796445  0.57308159  1
  Te  Te176  1  0.92005129  0.43048803  0.92903754  1
  Te  Te177  1  0.94739535  0.74729712  0.27647996  1
  Te  Te178  1  0.89837968  0.73739545  0.54894394  1
  Te  Te179  1  0.88814434  0.76433008  0.92867051  1
