# generated using pymatgen
data_In2Te3
_symmetry_space_group_name_H-M   'P 1'
_cell_length_a   18.93504217
_cell_length_b   18.91828487
_cell_length_c   18.93774704
_cell_angle_alpha   90.11943226
_cell_angle_beta   89.97517654
_cell_angle_gamma   90.01314392
_symmetry_Int_Tables_number   1
_chemical_formula_structural   In2Te3
_chemical_formula_sum   'In72 Te108'
_cell_volume   6783.83619920
_cell_formula_units_Z   36
loop_
 _symmetry_equiv_pos_site_id
 _symmetry_equiv_pos_as_xyz
  1  'x, y, z'
loop_
 _atom_site_type_symbol
 _atom_site_label
 _atom_site_symmetry_multiplicity
 _atom_site_fract_x
 _atom_site_fract_y
 _atom_site_fract_z
 _atom_site_occupancy
  In  In0  1  0.69710907  0.87028671  0.17980704  1
  In  In1  1  0.12866699  0.66731705  0.48148377  1
  In  In2  1  0.32790629  0.82517863  0.18050002  1
  In  In3  1  0.04687442  0.10938310  0.54866531  1
  In  In4  1  0.83106428  0.65328116  0.52867363  1
  In  In5  1  0.00358970  0.84589539  0.84080825  1
  In  In6  1  0.48207362  0.02244981  0.84303782  1
  In  In7  1  0.17838164  0.68228193  0.82246961  1
  In  In8  1  0.15800969  0.16314010  0.37275418  1
  In  In9  1  0.35364233  0.47347194  0.52565583  1
  In  In10  1  0.00594145  0.32947369  0.66210535  1
  In  In11  1  -0.00652739  0.49492967  0.13546781  1
  In  In12  1  0.51657648  0.14495447  0.02606491  1
  In  In13  1  0.49771666  0.82057951  0.67563501  1
  In  In14  1  0.54458811  0.48518546  -0.01138015  1
  In  In15  1  0.33206198  0.68751785  0.65371042  1
  In  In16  1  0.69015962  0.65723697  0.32382360  1
  In  In17  1  0.50950126  0.32575933  0.17593014  1
  In  In18  1  0.84016367  0.85489374  0.69108713  1
  In  In19  1  0.34644603  0.32461912  0.01795425  1
  In  In20  1  0.14349991  -0.00260738  0.77926288  1
  In  In21  1  0.15581626  0.50667930  -0.00072293  1
  In  In22  1  0.66972475  0.48661706  0.50637947  1
  In  In23  1  0.15221467  0.35423603  0.14246816  1
  In  In24  1  0.67419275  0.18405988  0.16072123  1
  In  In25  1  0.68798497  0.36319669  0.68463669  1
  In  In26  1  0.33209931  -0.00047002  0.01869015  1
  In  In27  1  0.34137795  0.67011266  0.00189846  1
  In  In28  1  0.70054979  0.66220246  -0.01662684  1
  In  In29  1  0.84270526  0.84282903  -0.01808332  1
  In  In30  1  0.13370338  0.32047131  0.83308454  1
  In  In31  1  0.17316320  0.01169148  0.16949501  1
  In  In32  1  0.66806485  0.82156664  0.82467969  1
  In  In33  1  0.32825292  0.85718229  0.84075226  1
  In  In34  1  0.49200794  0.69898211  0.51436366  1
  In  In35  1  0.00593422  0.69639543  0.33247957  1
  In  In36  1  0.65398907  0.83392945  0.48749879  1
  In  In37  1  0.85181299  0.14000616  -0.02053858  1
  In  In38  1  0.34965761  0.63255153  0.33933616  1
  In  In39  1  -0.00477011  0.14381602  0.18258049  1
  In  In40  1  -0.04487380  0.61824030  -0.03868292  1
  In  In41  1  0.50282308  -0.01695435  0.48661358  1
  In  In42  1  0.29906352  0.85560464  0.50648628  1
  In  In43  1  0.00049205  0.31697488  0.34566718  1
  In  In44  1  0.85301509  0.18011638  0.66539076  1
  In  In45  1  0.84832429  0.33540443  0.16324753  1
  In  In46  1  0.82554172  -0.01350289  0.46977657  1
  In  In47  1  0.54522567  0.63328503  0.82081834  1
  In  In48  1  0.50963899  0.82925168  0.33085209  1
  In  In49  1  0.32553689  0.49828464  0.83391633  1
  In  In50  1  0.31803686  -0.01162193  0.34095798  1
  In  In51  1  0.33244279  0.33909124  0.67610340  1
  In  In52  1  0.52310346  0.35429294  0.85571721  1
  In  In53  1  0.81350320  0.32943573  0.49588106  1
  In  In54  1  0.50679754  0.16348482  0.32576078  1
  In  In55  1  -0.03536136  0.65078690  0.69273537  1
  In  In56  1  -0.00821872  0.82921334  0.13776737  1
  In  In57  1  0.34313962  0.50320095  0.20016707  1
  In  In58  1  -0.00651546  0.49864438  0.49168340  1
  In  In59  1  0.48833339  0.31567165  0.49316820  1
  In  In60  1  0.70186543  0.20700865  0.83740678  1
  In  In61  1  0.83307406  0.14434500  0.32525767  1
  In  In62  1  0.66379575  0.03179584  0.66809343  1
  In  In63  1  0.68416883  0.49238742  0.15576790  1
  In  In64  1  0.51457254  0.49407629  0.34932177  1
  In  In65  1  0.32759771  0.17979777  0.82126869  1
  In  In66  1  0.14881325  0.16870459  -0.01558620  1
  In  In67  1  0.17740130  0.50181188  0.33508019  1
  In  In68  1  0.14116386  0.68376100  0.15326583  1
  In  In69  1  0.47917285  0.18309026  0.66186640  1
  In  In70  1  0.16452566  0.83603661  0.34271200  1
  In  In71  1  0.66582151  -0.00696484  0.00805256  1
  Te  Te72  1  0.07335606  0.07020536  0.07237107  1
  Te  Te73  1  0.05045823  0.07097553  0.40421232  1
  Te  Te74  1  0.06409948  0.10737264  0.70652019  1
  Te  Te75  1  0.05455729  0.39782076  0.03445675  1
  Te  Te76  1  0.09613886  0.41024313  0.42356055  1
  Te  Te77  1  0.07489399  0.42569915  0.75145830  1
  Te  Te78  1  0.05135861  0.72462790  0.04439874  1
  Te  Te79  1  0.05405192  0.79414359  0.44112356  1
  Te  Te80  1  0.07135764  0.75126748  0.74160935  1
  Te  Te81  1  0.40626532  0.09264049  0.10460845  1
  Te  Te82  1  0.40788173  0.07960431  0.42088922  1
  Te  Te83  1  0.39481820  0.07656082  0.73143065  1
  Te  Te84  1  0.42569036  0.43500011  0.08619960  1
  Te  Te85  1  0.40278574  0.40540249  0.40015014  1
  Te  Te86  1  0.43258646  0.42435867  0.75520006  1
  Te  Te87  1  0.42019013  0.74775663  0.09707204  1
  Te  Te88  1  0.39275083  0.76626341  0.41536189  1
  Te  Te89  1  0.41467611  0.73857961  0.77245686  1
  Te  Te90  1  0.75965392  0.08037116  0.08705459  1
  Te  Te91  1  0.73508126  0.08984466  0.42089738  1
  Te  Te92  1  0.76612691  0.09361166  0.76006947  1
  Te  Te93  1  0.76580010  0.40874122  0.06527245  1
  Te  Te94  1  0.76126996  0.43338020  0.40666482  1
  Te  Te95  1  0.81246667  0.38981130  0.76182581  1
  Te  Te96  1  0.75516100  0.76690823  0.07878469  1
  Te  Te97  1  0.76023454  0.74592386  0.42605572  1
  Te  Te98  1  0.76704463  0.74204340  0.75199952  1
  Te  Te99  1  0.08962736  0.25034326  0.24110803  1
  Te  Te100  1  0.09054251  0.26074088  0.55411543  1
  Te  Te101  1  0.04440506  0.21404462  0.88889499  1
  Te  Te102  1  0.07982536  0.57420637  0.24576597  1
  Te  Te103  1  0.06495376  0.58629155  0.59238404  1
  Te  Te104  1  0.08878715  0.57743909  0.88663230  1
  Te  Te105  1  0.08615948  0.90684385  0.23660030  1
  Te  Te106  1  0.08968054  0.94932785  0.64281160  1
  Te  Te107  1  0.10162041  0.93307350  0.90629141  1
  Te  Te108  1  0.41179750  0.24825342  0.24995817  1
  Te  Te109  1  0.37490785  0.23723737  0.56596357  1
  Te  Te110  1  0.42769585  0.24420474  0.91607618  1
  Te  Te111  1  0.45809972  0.59306293  0.24352027  1
  Te  Te112  1  0.43057853  0.58624057  0.59559962  1
  Te  Te113  1  0.42758165  0.57250698  0.92058270  1
  Te  Te114  1  0.42038808  0.92346985  0.25018558  1
  Te  Te115  1  0.41363234  0.91305748  0.58791910  1
  Te  Te116  1  0.43258352  0.91662847  0.93793532  1
  Te  Te117  1  0.75867995  0.26101125  0.26006301  1
  Te  Te118  1  0.73481116  0.24778150  0.59694937  1
  Te  Te119  1  0.77285450  0.26423488  0.95173849  1
  Te  Te120  1  0.77678119  0.58119993  0.23149443  1
  Te  Te121  1  0.74158651  0.56569558  0.61330526  1
  Te  Te122  1  0.75408718  0.55736069  0.89272118  1
  Te  Te123  1  0.80751415  0.90538794  0.27784049  1
  Te  Te124  1  0.73160705  0.91850358  0.59173496  1
  Te  Te125  1  0.74707744  0.92756049  0.89884765  1
  Te  Te126  1  0.23952918  0.24183225  0.08467717  1
  Te  Te127  1  0.22196525  0.24148174  0.47892708  1
  Te  Te128  1  0.22487662  0.24707473  0.73574952  1
  Te  Te129  1  0.24821123  0.57782930  0.09880255  1
  Te  Te130  1  0.25386975  0.58042628  0.44690150  1
  Te  Te131  1  0.25118008  0.58289693  0.73318362  1
  Te  Te132  1  0.23688014  0.90086725  0.08635333  1
  Te  Te133  1  0.20552815  0.95100664  0.43647495  1
  Te  Te134  1  0.24672348  0.90081649  0.72783795  1
  Te  Te135  1  0.59274603  0.27032064  0.06245075  1
  Te  Te136  1  0.58951964  0.25025627  0.41202626  1
  Te  Te137  1  0.58148495  0.25362723  0.74823832  1
  Te  Te138  1  0.60019824  0.59352660  0.07704468  1
  Te  Te139  1  0.58197607  0.60440240  0.42997069  1
  Te  Te140  1  0.62696047  0.56806188  0.72111253  1
  Te  Te141  1  0.58156884  0.92377496  0.10476243  1
  Te  Te142  1  0.60531938  0.93481820  0.38532453  1
  Te  Te143  1  0.57347490  0.93138951  0.75174294  1
  Te  Te144  1  0.92648113  0.23335788  0.08300527  1
  Te  Te145  1  0.90945092  0.23245863  0.42892505  1
  Te  Te146  1  0.91266619  0.27264556  0.77000185  1
  Te  Te147  1  0.89086723  0.59159111  0.09489821  1
  Te  Te148  1  0.91482789  0.59964775  0.41261161  1
  Te  Te149  1  0.89073634  0.53979023  0.76189225  1
  Te  Te150  1  0.92020981  0.93529699  0.06519024  1
  Te  Te151  1  0.91615721  0.90762404  0.38488867  1
  Te  Te152  1  0.91375283  0.95282806  0.78002836  1
  Te  Te153  1  0.24866978  0.10031437  0.26542669  1
  Te  Te154  1  0.18309559  0.06522824  0.61366122  1
  Te  Te155  1  0.25656378  0.08423271  0.91547548  1
  Te  Te156  1  0.24952533  0.39565722  0.25353271  1
  Te  Te157  1  0.24005234  0.42811696  0.60427817  1
  Te  Te158  1  0.25090169  0.40006969  0.92304786  1
  Te  Te159  1  0.24086005  0.72369918  0.26955530  1
  Te  Te160  1  0.21742048  0.75177179  0.57827662  1
  Te  Te161  1  0.24560666  0.76325059  0.93116673  1
  Te  Te162  1  0.59362193  0.08625715  0.23422509  1
  Te  Te163  1  0.56622684  0.09537276  0.57288826  1
  Te  Te164  1  0.59891662  0.09858924  0.90440399  1
  Te  Te165  1  0.60248286  0.41160609  0.25917937  1
  Te  Te166  1  0.57365903  0.40182188  0.58567169  1
  Te  Te167  1  0.64230061  0.44044869  0.88527486  1
  Te  Te168  1  0.60848721  0.75671935  0.24348657  1
  Te  Te169  1  0.60618257  0.74452475  0.60316530  1
  Te  Te170  1  0.58148884  0.74177037  0.91938950  1
  Te  Te171  1  0.89898391  0.04284071  0.23654203  1
  Te  Te172  1  0.90065526  0.06593101  0.57827861  1
  Te  Te173  1  0.93555313  0.07288719  0.87824677  1
  Te  Te174  1  0.93375099  0.41952478  0.25732277  1
  Te  Te175  1  0.90708237  0.41428578  0.58083055  1
  Te  Te176  1  0.89294074  0.48727100  0.90908821  1
  Te  Te177  1  0.91220527  0.74911483  0.23404836  1
  Te  Te178  1  0.91562341  0.76131120  0.59530055  1
  Te  Te179  1  0.90007653  0.74016087  0.88666012  1
