# generated using pymatgen
data_In2Te3
_symmetry_space_group_name_H-M   'P 1'
_cell_length_a   18.83796479
_cell_length_b   18.84376695
_cell_length_c   18.84330664
_cell_angle_alpha   90.05678090
_cell_angle_beta   89.89832719
_cell_angle_gamma   90.00633596
_symmetry_Int_Tables_number   1
_chemical_formula_structural   In2Te3
_chemical_formula_sum   'In72 Te108'
_cell_volume   6688.94956064
_cell_formula_units_Z   36
loop_
 _symmetry_equiv_pos_site_id
 _symmetry_equiv_pos_as_xyz
  1  'x, y, z'
loop_
 _atom_site_type_symbol
 _atom_site_label
 _atom_site_symmetry_multiplicity
 _atom_site_fract_x
 _atom_site_fract_y
 _atom_site_fract_z
 _atom_site_occupancy
  In  In0  1  -0.01001251  0.33718022  0.33679507  1
  In  In1  1  0.65030559  0.80562530  0.50266975  1
  In  In2  1  0.16209401  0.35229637  0.82683694  1
  In  In3  1  0.85342026  0.84388214  0.66882680  1
  In  In4  1  0.33550858  -0.02071060  0.32775846  1
  In  In5  1  0.32143405  0.84880705  0.17711949  1
  In  In6  1  0.48382415  0.15428553  0.66878356  1
  In  In7  1  0.15085899  0.83063183  0.34664006  1
  In  In8  1  0.83489132  0.11104065  -0.01842922  1
  In  In9  1  0.19893439  0.51277996  -0.02350843  1
  In  In10  1  0.14629733  0.13728058  0.68194227  1
  In  In11  1  0.51699829  0.16220461  0.00622529  1
  In  In12  1  0.80375757  -0.00454218  0.15417448  1
  In  In13  1  0.83339712  0.84714128  -0.01671165  1
  In  In14  1  0.64214386  0.66233972  0.01356660  1
  In  In15  1  0.32104951  0.66707988  -0.02256930  1
  In  In16  1  0.02253670  0.15158018  0.16792484  1
  In  In17  1  0.00161421  0.83394756  0.81895545  1
  In  In18  1  0.18117559  0.19567053  0.35053459  1
  In  In19  1  0.48122159  0.83859357  0.32624333  1
  In  In20  1  0.81379303  0.36519010  0.51638658  1
  In  In21  1  0.81610174  0.50079977  0.35804945  1
  In  In22  1  0.00548477  0.49961459  0.16882636  1
  In  In23  1  0.35177920  -0.01314617  -0.01468432  1
  In  In24  1  0.14826142  0.18049734  -0.01897258  1
  In  In25  1  0.34381799  0.65854499  0.36858905  1
  In  In26  1  0.65329061  0.01247340  0.29486386  1
  In  In27  1  0.80784096  0.30438773  0.16065279  1
  In  In28  1  0.18179191  0.02999315  0.13953323  1
  In  In29  1  0.66820890  0.85257569  0.15188926  1
  In  In30  1  0.51175530  0.66622200  0.14699708  1
  In  In31  1  0.35168879  0.50492432  0.82985587  1
  In  In32  1  0.14391013  -0.01759590  0.51452459  1
  In  In33  1  0.50665626  0.83846515  -0.01308333  1
  In  In34  1  0.16320575  0.67953290  0.82721145  1
  In  In35  1  0.50074496  0.48053854  0.32831481  1
  In  In36  1  0.00270988  0.15611163  0.52482477  1
  In  In37  1  0.81386745  0.49407880  0.68566863  1
  In  In38  1  0.67452571  -0.00123499  0.69204740  1
  In  In39  1  0.16431223  0.65263730  0.16639555  1
  In  In40  1  0.22463207  0.35651944  0.16196136  1
  In  In41  1  0.83723625  0.50767169  -0.00192103  1
  In  In42  1  0.66815982  0.19170908  0.48775618  1
  In  In43  1  0.33319605  0.36223902  0.68257730  1
  In  In44  1  0.85485293  0.29956768  0.79671250  1
  In  In45  1  0.19100381  0.32139541  0.51063371  1
  In  In46  1  0.47024710  0.79885618  0.67996755  1
  In  In47  1  0.66736373  0.83476407  0.84417516  1
  In  In48  1  0.34841867  0.17003219  0.83540307  1
  In  In49  1  0.85012681  0.00998399  0.51622116  1
  In  In50  1  0.00630068  0.81469866  0.53023186  1
  In  In51  1  0.00037032  -0.02012209  0.32635154  1
  In  In52  1  0.65522301  0.33886382  -0.02130726  1
  In  In53  1  0.66908690  0.16798279  0.85655350  1
  In  In54  1  0.69047060  0.67139077  0.33755999  1
  In  In55  1  0.01899500  0.51532837  0.80639305  1
  In  In56  1  0.17277802  -0.03798080  0.82429868  1
  In  In57  1  0.50395409  0.34987948  0.82560882  1
  In  In58  1  0.17351883  0.50486165  0.32406945  1
  In  In59  1  0.48612891  -0.00708373  0.50587551  1
  In  In60  1  0.83564303  0.66058661  0.19253261  1
  In  In61  1  0.47730691  0.63570811  0.50870555  1
  In  In62  1  0.36636669  0.20260341  0.18517471  1
  In  In63  1  0.50275600  0.36292152  0.51221348  1
  In  In64  1  0.31456558  0.00763628  0.68487753  1
  In  In65  1  0.02142229  0.52581772  0.52420268  1
  In  In66  1  0.81570889  0.18009200  0.32911479  1
  In  In67  1  -0.00330482  0.34999276  -0.00374003  1
  In  In68  1  -0.00390807  0.80769026  0.15884710  1
  In  In69  1  0.66964069  0.34370230  0.64829055  1
  In  In70  1  0.34727262  0.16202687  0.46951458  1
  In  In71  1  0.82887933  0.67666583  0.82904262  1
  Te  Te72  1  0.06579419  0.06919448  0.04668298  1
  Te  Te73  1  0.08541319  0.08781734  0.40660690  1
  Te  Te74  1  0.07078976  0.06734839  0.78812859  1
  Te  Te75  1  0.10315777  0.42260675  0.07870666  1
  Te  Te76  1  0.09107488  0.41129093  0.42204028  1
  Te  Te77  1  0.10682008  0.43520117  0.71856315  1
  Te  Te78  1  0.09949893  0.74674369  0.07451760  1
  Te  Te79  1  0.08872555  0.73211517  0.43623087  1
  Te  Te80  1  0.06724797  0.73483406  0.72544660  1
  Te  Te81  1  0.40612009  0.09119476  0.08361513  1
  Te  Te82  1  0.44649275  0.07998515  0.38318026  1
  Te  Te83  1  0.43033938  0.05776087  0.77239881  1
  Te  Te84  1  0.36122989  0.40128992  0.12669340  1
  Te  Te85  1  0.41458470  0.46366138  0.44972349  1
  Te  Te86  1  0.45076437  0.44990580  0.72298801  1
  Te  Te87  1  0.40685185  0.75981495  0.08372308  1
  Te  Te88  1  0.41845377  0.76769583  0.44314048  1
  Te  Te89  1  0.38894365  0.68952805  0.74349985  1
  Te  Te90  1  0.73853256  0.11110048  0.09250146  1
  Te  Te91  1  0.74761519  0.07302919  0.41765516  1
  Te  Te92  1  0.75695921  0.10026007  0.75791909  1
  Te  Te93  1  0.74661045  0.41721504  0.07821460  1
  Te  Te94  1  0.72524989  0.39357193  0.40182882  1
  Te  Te95  1  0.73699824  0.39396492  0.77617687  1
  Te  Te96  1  0.75557447  0.74712676  0.08355836  1
  Te  Te97  1  0.76918760  0.73421732  0.44646581  1
  Te  Te98  1  0.74225989  0.75860035  0.73601566  1
  Te  Te99  1  0.09098022  0.26580726  0.24487660  1
  Te  Te100  1  0.08472678  0.25893282  0.60185239  1
  Te  Te101  1  0.05732384  0.25953679  0.88747248  1
  Te  Te102  1  0.06459379  0.59777403  0.26873468  1
  Te  Te103  1  0.10249584  0.62942988  0.60174267  1
  Te  Te104  1  0.08002376  0.58898288  0.92530884  1
  Te  Te105  1  0.10644752  0.92517206  0.23168875  1
  Te  Te106  1  0.06581425  0.91735129  0.61959799  1
  Te  Te107  1  0.08838782  0.89267973  0.92298777  1
  Te  Te108  1  0.45930508  0.27709851  0.27954715  1
  Te  Te109  1  0.40624712  0.25377371  0.58562848  1
  Te  Te110  1  0.42894952  0.26054465  0.92467000  1
  Te  Te111  1  0.42826418  0.59770126  0.25606197  1
  Te  Te112  1  0.36114765  0.62226369  0.60827326  1
  Te  Te113  1  0.43021686  0.57697433  0.93319841  1
  Te  Te114  1  0.43708464  0.93753112  0.21941468  1
  Te  Te115  1  0.39987128  0.91008175  0.59667565  1
  Te  Te116  1  0.40088735  0.88304699  0.89089940  1
  Te  Te117  1  0.71095994  0.25712345  0.26116916  1
  Te  Te118  1  0.76673908  0.24004171  0.59181389  1
  Te  Te119  1  0.78099099  0.24944040  0.93048431  1
  Te  Te120  1  0.73043696  0.56221912  0.23936420  1
  Te  Te121  1  0.73249773  0.55052200  0.56762349  1
  Te  Te122  1  0.73907195  0.58931101  0.91595069  1
  Te  Te123  1  0.75823613  0.90349270  0.26569237  1
  Te  Te124  1  0.73997947  0.91594695  0.57933934  1
  Te  Te125  1  0.72791000  0.93720592  0.93308209  1
  Te  Te126  1  0.25069626  0.22682573  0.08159508  1
  Te  Te127  1  0.29117702  0.28789449  0.40034546  1
  Te  Te128  1  0.24963608  0.24004414  0.74353391  1
  Te  Te129  1  0.27287140  0.57508894  0.09429963  1
  Te  Te130  1  0.23499848  0.58238760  0.43853000  1
  Te  Te131  1  0.25611534  0.58834288  0.74834415  1
  Te  Te132  1  0.24293039  0.91234356  0.06409560  1
  Te  Te133  1  0.25011310  0.90803661  0.43431913  1
  Te  Te134  1  0.23728260  0.88562297  0.71431457  1
  Te  Te135  1  0.57214155  0.27596324  0.08612928  1
  Te  Te136  1  0.55768991  0.26164550  0.41701417  1
  Te  Te137  1  0.58196850  0.24547102  0.74185628  1
  Te  Te138  1  0.57193138  0.54869908  0.08024582  1
  Te  Te139  1  0.58073146  0.59010173  0.40382154  1
  Te  Te140  1  0.67440231  0.55740674  0.70538241  1
  Te  Te141  1  0.57838328  0.93667162  0.07196070  1
  Te  Te142  1  0.58770056  0.91562745  0.41384978  1
  Te  Te143  1  0.57171282  0.90092336  0.74277683  1
  Te  Te144  1  0.93084734  0.24690984  0.08753339  1
  Te  Te145  1  0.91427718  0.24396510  0.43018564  1
  Te  Te146  1  0.94197591  0.23599098  0.69847896  1
  Te  Te147  1  0.92517398  0.59692296  0.08420404  1
  Te  Te148  1  0.91869167  0.57650629  0.43028221  1
  Te  Te149  1  0.91770934  0.60036611  0.73212210  1
  Te  Te150  1  0.91717612  0.92065520  0.08757858  1
  Te  Te151  1  0.92288903  0.90635128  0.43113805  1
  Te  Te152  1  0.88600783  0.92868519  0.78771720  1
  Te  Te153  1  0.25485886  0.09359163  0.26031531  1
  Te  Te154  1  0.24790236  0.09416181  0.56727842  1
  Te  Te155  1  0.24870775  0.08390491  0.91220676  1
  Te  Te156  1  0.30004876  0.44286836  0.26506441  1
  Te  Te157  1  0.24439861  0.43421239  0.59026975  1
  Te  Te158  1  0.27502354  0.39690475  0.91674707  1
  Te  Te159  1  0.25565575  0.74279200  0.26475786  1
  Te  Te160  1  0.23224392  0.69929555  0.55283064  1
  Te  Te161  1  0.26202364  0.77228561  0.89103172  1
  Te  Te162  1  0.54902207  0.10724494  0.26198176  1
  Te  Te163  1  0.58765320  0.08611584  0.57859379  1
  Te  Te164  1  0.57831148  0.06558863  0.91229780  1
  Te  Te165  1  0.54140665  0.38765663  0.21640608  1
  Te  Te166  1  0.60131814  0.45926178  0.57772533  1
  Te  Te167  1  0.56985314  0.44510817  0.91862451  1
  Te  Te168  1  0.58857968  0.75734866  0.25081209  1
  Te  Te169  1  0.57385744  0.71793985  0.60065255  1
  Te  Te170  1  0.56907883  0.72982818  0.89713727  1
  Te  Te171  1  0.91283504  0.08319269  0.25333252  1
  Te  Te172  1  0.92360972  0.07955959  0.62527818  1
  Te  Te173  1  0.91811323  0.05728226  0.87427202  1
  Te  Te174  1  0.90148434  0.41316859  0.23919363  1
  Te  Te175  1  0.92645441  0.42612430  0.59471979  1
  Te  Te176  1  0.91717979  0.42814835  0.89189726  1
  Te  Te177  1  0.91888415  0.75369608  0.27053113  1
  Te  Te178  1  0.88680244  0.73477373  0.57334798  1
  Te  Te179  1  0.92697193  0.74437523  0.92210004  1
