# generated using pymatgen
data_In2Te3
_symmetry_space_group_name_H-M   'P 1'
_cell_length_a   18.77940467
_cell_length_b   18.78121700
_cell_length_c   18.78001320
_cell_angle_alpha   89.99104369
_cell_angle_beta   89.93985890
_cell_angle_gamma   89.96329501
_symmetry_Int_Tables_number   1
_chemical_formula_structural   In2Te3
_chemical_formula_sum   'In72 Te108'
_cell_volume   6623.70696340
_cell_formula_units_Z   36
loop_
 _symmetry_equiv_pos_site_id
 _symmetry_equiv_pos_as_xyz
  1  'x, y, z'
loop_
 _atom_site_type_symbol
 _atom_site_label
 _atom_site_symmetry_multiplicity
 _atom_site_fract_x
 _atom_site_fract_y
 _atom_site_fract_z
 _atom_site_occupancy
  In  In0  1  0.68251730  0.53797847  0.53658243  1
  In  In1  1  0.48740926  0.15745003  -0.02725727  1
  In  In2  1  -0.00255068  0.16647782  0.82403117  1
  In  In3  1  0.52119033  0.50957540  0.34322251  1
  In  In4  1  0.34733882  0.48461409  0.15746286  1
  In  In5  1  0.32237460  0.32026581  0.67067239  1
  In  In6  1  0.48014147  -0.03279606  0.52080745  1
  In  In7  1  0.48428115  0.68407655  0.14422874  1
  In  In8  1  0.83880141  0.01734656  0.16358886  1
  In  In9  1  0.47489976  -0.01366392  0.82916560  1
  In  In10  1  0.82512407  0.84505388  -0.00916043  1
  In  In11  1  0.51455327  0.33604237  0.86413874  1
  In  In12  1  0.00198040  0.66042998  0.02059837  1
  In  In13  1  0.83035891  -0.00799795  0.84102997  1
  In  In14  1  0.00552092  0.48582654  0.84231013  1
  In  In15  1  0.18569893  0.32863598  0.15284348  1
  In  In16  1  0.32670982  0.00222712  0.01541225  1
  In  In17  1  -0.01209996  0.68807532  0.66569227  1
  In  In18  1  0.17537303  0.50667657  0.68598392  1
  In  In19  1  0.66322000  0.32968293  0.32828729  1
  In  In20  1  -0.00546983  -0.00692621  0.69010505  1
  In  In21  1  0.32926428  0.69127164  -0.04148152  1
  In  In22  1  0.33650046  0.68545788  0.35853503  1
  In  In23  1  0.00155481  0.65779295  0.35043810  1
  In  In24  1  0.85610264  0.16828692  0.35550698  1
  In  In25  1  0.19007254  -0.02197401  0.48422785  1
  In  In26  1  0.70950458  0.35281364  0.67761102  1
  In  In27  1  0.85272423  0.50378125  0.34217431  1
  In  In28  1  0.83410464  0.83771315  0.35291313  1
  In  In29  1  -0.02732034  0.34580122  -0.00642966  1
  In  In30  1  0.33498037  0.31817463  -0.00874448  1
  In  In31  1  -0.01702053  0.47423877  0.52111146  1
  In  In32  1  0.64543749  0.84513562  0.14047994  1
  In  In33  1  0.01563176  0.85215446  0.84042825  1
  In  In34  1  0.82679998  0.32953980  0.49213431  1
  In  In35  1  0.65252144  -0.02753976  0.67490844  1
  In  In36  1  0.19166105  0.12583749  0.32741440  1
  In  In37  1  0.65868487  -0.02420646  -0.00505947  1
  In  In38  1  -0.00282208  0.32753958  0.34584804  1
  In  In39  1  0.16874467  0.32077307  0.81968383  1
  In  In40  1  0.68726086  0.19945655  0.84255179  1
  In  In41  1  0.50319557  0.52536932  0.67846909  1
  In  In42  1  0.16731418  0.68908957  0.17813668  1
  In  In43  1  0.32776693  0.14766215  0.50690168  1
  In  In44  1  0.17900346  0.68299892  0.51641673  1
  In  In45  1  0.82019553  0.67584069  0.80973642  1
  In  In46  1  0.81344425  0.35353295  0.14659590  1
  In  In47  1  0.65279426  0.65778153  0.33931639  1
  In  In48  1  -0.00287900  0.82699627  0.50108113  1
  In  In49  1  0.04615395  0.85217785  0.19090725  1
  In  In50  1  0.49143977  0.13425371  0.33242857  1
  In  In51  1  0.19892549  0.84874667  0.69310451  1
  In  In52  1  0.65588742  0.16141202  0.15823990  1
  In  In53  1  0.68958388  0.49743086  0.14103191  1
  In  In54  1  0.87030315  0.65967121  0.14233347  1
  In  In55  1  0.16888769  0.13697953  -0.00627266  1
  In  In56  1  0.47731640  0.32173644  0.14581661  1
  In  In57  1  0.67727411  0.01420305  0.34132627  1
  In  In58  1  0.50776589  0.14449996  0.67986786  1
  In  In59  1  0.84532857  0.16658433  0.65474362  1
  In  In60  1  0.16593646  0.51497442  0.00581050  1
  In  In61  1  0.01660165  -0.01893980  -0.02550670  1
  In  In62  1  0.46299442  0.86118258  0.31904468  1
  In  In63  1  0.34931353  0.52315812  0.82782404  1
  In  In64  1  0.36016040  0.69439762  0.67779108  1
  In  In65  1  0.00545167  0.16036723  0.16852646  1
  In  In66  1  0.51610590  0.33601547  0.48405559  1
  In  In67  1  0.64978705  0.68512211  -0.03431415  1
  In  In68  1  0.64797931  0.81947911  0.52813910  1
  In  In69  1  0.14838416  0.32158463  0.52892617  1
  In  In70  1  -0.00694740  0.55065464  0.15574643  1
  In  In71  1  0.34972900  0.33363002  0.34015127  1
  Te  Te72  1  0.08569552  0.05603893  0.09232361  1
  Te  Te73  1  0.09529924  0.07957196  0.42741061  1
  Te  Te74  1  0.09385144  0.07087480  0.76739933  1
  Te  Te75  1  0.07975104  0.41887073  0.08839242  1
  Te  Te76  1  0.08687355  0.42318895  0.42203741  1
  Te  Te77  1  0.07367942  0.40235457  0.73253414  1
  Te  Te78  1  0.09881176  0.77149582  0.06837308  1
  Te  Te79  1  0.09859424  0.75850901  0.40877345  1
  Te  Te80  1  0.09407075  0.75281220  0.75274433  1
  Te  Te81  1  0.43227002  0.08290032  0.08638015  1
  Te  Te82  1  0.39866746  0.04682776  0.41652403  1
  Te  Te83  1  0.39149562  0.06344067  0.72521040  1
  Te  Te84  1  0.43134080  0.42703419  0.04373087  1
  Te  Te85  1  0.41541480  0.43770551  0.42988175  1
  Te  Te86  1  0.41936664  0.40954921  0.75092691  1
  Te  Te87  1  0.38491162  0.76696051  0.07532711  1
  Te  Te88  1  0.44001390  0.76428221  0.42839140  1
  Te  Te89  1  0.43238424  0.77198426  0.78302569  1
  Te  Te90  1  0.74632114  0.08326168  0.06102183  1
  Te  Te91  1  0.76906840  0.07994612  0.43558904  1
  Te  Te92  1  0.74594877  0.08238385  0.75018018  1
  Te  Te93  1  0.72115974  0.39464477  0.03562130  1
  Te  Te94  1  0.73084733  0.43586278  0.41546056  1
  Te  Te95  1  0.71648256  0.45717583  0.78192577  1
  Te  Te96  1  0.74791893  0.74451704  0.08504157  1
  Te  Te97  1  0.74439341  0.74121653  0.42893562  1
  Te  Te98  1  0.71123605  0.74086305  0.72464996  1
  Te  Te99  1  0.09680815  0.24774860  0.25639548  1
  Te  Te100  1  0.04240234  0.24199139  0.58903716  1
  Te  Te101  1  0.08713533  0.25842937  0.93592310  1
  Te  Te102  1  0.09912969  0.57985671  0.26218555  1
  Te  Te103  1  0.08136491  0.58403466  0.58607350  1
  Te  Te104  1  0.08816662  0.59772882  0.90638791  1
  Te  Te105  1  0.12289775  0.93851705  0.28606742  1
  Te  Te106  1  0.09192367  0.90433433  0.59665222  1
  Te  Te107  1  0.13710384  0.91355420  0.91064002  1
  Te  Te108  1  0.40668389  0.22846690  0.24552898  1
  Te  Te109  1  0.42874699  0.24730195  0.57601387  1
  Te  Te110  1  0.39607984  0.23582054  0.87853292  1
  Te  Te111  1  0.42214946  0.58281663  0.25146336  1
  Te  Te112  1  0.39490690  0.57858000  0.59261804  1
  Te  Te113  1  0.44300668  0.60405956  0.91172132  1
  Te  Te114  1  0.38348723  0.93469486  0.21703842  1
  Te  Te115  1  0.38423777  0.89741877  0.61193877  1
  Te  Te116  1  0.41528910  0.90319065  0.94053121  1
  Te  Te117  1  0.76124499  0.23855371  0.24918534  1
  Te  Te118  1  0.73415328  0.24093437  0.57397049  1
  Te  Te119  1  0.77329566  0.27739128  0.93078271  1
  Te  Te120  1  0.75926684  0.58755913  0.25058190  1
  Te  Te121  1  0.75690562  0.61663171  0.63809129  1
  Te  Te122  1  0.75152827  0.59062612  0.91216039  1
  Te  Te123  1  0.75070422  0.91315716  0.23839226  1
  Te  Te124  1  0.74856787  0.91535453  0.57821637  1
  Te  Te125  1  0.72193390  0.88739943  0.88729868  1
  Te  Te126  1  0.26515846  0.21985090  0.08494885  1
  Te  Te127  1  0.24734833  0.25150289  0.42037473  1
  Te  Te128  1  0.22724897  0.22201379  0.72626927  1
  Te  Te129  1  0.26291730  0.59538886  0.09035346  1
  Te  Te130  1  0.24431595  0.58928020  0.42136199  1
  Te  Te131  1  0.25048551  0.61627976  0.75925991  1
  Te  Te132  1  0.25139130  0.92611933  0.12285505  1
  Te  Te133  1  0.24150886  0.89011179  0.37418347  1
  Te  Te134  1  0.30766160  0.93028612  0.75534870  1
  Te  Te135  1  0.58074121  0.24956906  0.05973221  1
  Te  Te136  1  0.59040103  0.22342095  0.41052762  1
  Te  Te137  1  0.58500124  0.26033985  0.74324579  1
  Te  Te138  1  0.58731981  0.59162161  0.07802542  1
  Te  Te139  1  0.56915187  0.60236487  0.45498687  1
  Te  Te140  1  0.60319972  0.62041570  0.73752394  1
  Te  Te141  1  0.54009110  0.91037042  0.05861769  1
  Te  Te142  1  0.58651941  0.91204669  0.41185971  1
  Te  Te143  1  0.54017358  0.88910946  0.73133195  1
  Te  Te144  1  0.90723668  0.24271520  0.08709019  1
  Te  Te145  1  0.95432406  0.23619745  0.46374200  1
  Te  Te146  1  0.90652572  0.25953987  0.75366639  1
  Te  Te147  1  0.89380640  0.54689352  0.03927491  1
  Te  Te148  1  0.90671068  0.59374431  0.45067948  1
  Te  Te149  1  0.92297552  0.57735552  0.74859180  1
  Te  Te150  1  0.92312699  0.91229947  0.08756488  1
  Te  Te151  1  0.92952157  0.92891564  0.41545545  1
  Te  Te152  1  0.89683580  0.89054005  0.74971174  1
  Te  Te153  1  0.26667088  0.04339920  0.22853398  1
  Te  Te154  1  0.22851166  0.07723431  0.58943065  1
  Te  Te155  1  0.26244731  0.07303153  0.90039875  1
  Te  Te156  1  0.25155348  0.41906830  0.25686383  1
  Te  Te157  1  0.25074989  0.42229064  0.58221375  1
  Te  Te158  1  0.24865887  0.42608075  0.91152013  1
  Te  Te159  1  0.26250022  0.77289397  0.25914059  1
  Te  Te160  1  0.27958842  0.78579115  0.57012535  1
  Te  Te161  1  0.21462756  0.77657857  0.92628417  1
  Te  Te162  1  0.57611266  0.05442148  0.23195667  1
  Te  Te163  1  0.58116440  0.07026014  0.57115022  1
  Te  Te164  1  0.59139050  0.07754947  0.89094093  1
  Te  Te165  1  0.57635709  0.41128118  0.23212688  1
  Te  Te166  1  0.58913632  0.42089063  0.58938033  1
  Te  Te167  1  0.60286983  0.45141464  0.88078316  1
  Te  Te168  1  0.57553929  0.75775148  0.25153903  1
  Te  Te169  1  0.57747345  0.73019064  0.62614035  1
  Te  Te170  1  0.53326240  0.75144693  0.90197646  1
  Te  Te171  1  0.93582250  0.06894131  0.27021484  1
  Te  Te172  1  0.92015922  0.06198184  0.58246170  1
  Te  Te173  1  0.91496804  0.08589961  0.92602442  1
  Te  Te174  1  0.92357560  0.41513519  0.23960746  1
  Te  Te175  1  0.87367808  0.41708423  0.60293389  1
  Te  Te176  1  0.89008859  0.39181445  0.87648509  1
  Te  Te177  1  0.92807923  0.75545942  0.25037613  1
  Te  Te178  1  0.89133507  0.76131279  0.58270238  1
  Te  Te179  1  0.92003325  0.74905103  0.91715755  1
