# generated using pymatgen
data_In2Te3
_symmetry_space_group_name_H-M   'P 1'
_cell_length_a   19.02708902
_cell_length_b   19.03300943
_cell_length_c   19.03817492
_cell_angle_alpha   90.00880138
_cell_angle_beta   90.10710088
_cell_angle_gamma   89.94028658
_symmetry_Int_Tables_number   1
_chemical_formula_structural   In2Te3
_chemical_formula_sum   'In72 Te108'
_cell_volume   6894.52143022
_cell_formula_units_Z   36
loop_
 _symmetry_equiv_pos_site_id
 _symmetry_equiv_pos_as_xyz
  1  'x, y, z'
loop_
 _atom_site_type_symbol
 _atom_site_label
 _atom_site_symmetry_multiplicity
 _atom_site_fract_x
 _atom_site_fract_y
 _atom_site_fract_z
 _atom_site_occupancy
  In  In0  1  0.49618393  0.85696950  0.33580862  1
  In  In1  1  0.17659966  0.65295525  0.50544761  1
  In  In2  1  0.68047193  0.83564770  0.49663536  1
  In  In3  1  0.20841309  0.03067571  0.86991208  1
  In  In4  1  0.18750062  0.67289901  0.16306515  1
  In  In5  1  0.32413433  0.15553273  0.50268186  1
  In  In6  1  0.00288238  0.01706410  0.33655030  1
  In  In7  1  0.50311385  -0.00694298  0.51526356  1
  In  In8  1  0.84922025  0.65635791  0.16923741  1
  In  In9  1  -0.00553965  0.48374617  0.15853571  1
  In  In10  1  0.01572895  -0.01478431  0.65461136  1
  In  In11  1  0.82816478  0.50241153  0.31703131  1
  In  In12  1  0.18220043  0.16494339  0.66280594  1
  In  In13  1  0.66850766  0.68068119  0.67594983  1
  In  In14  1  0.48914332  0.64896808  0.51575121  1
  In  In15  1  0.32349199  0.49212463  0.49584554  1
  In  In16  1  0.65675406  0.68007170  0.34697729  1
  In  In17  1  0.31472681  0.51383449  0.82608774  1
  In  In18  1  0.14731017  0.30798203  0.14422075  1
  In  In19  1  0.65388152  0.51759733  0.82825653  1
  In  In20  1  0.65136092  0.47884989  0.14764357  1
  In  In21  1  0.34252745  0.81567500  0.50879528  1
  In  In22  1  0.65908658  0.15124517  0.49197296  1
  In  In23  1  0.61533153  0.31757973  0.68761958  1
  In  In24  1  0.01903883  0.37137792  -0.04863047  1
  In  In25  1  0.15750051  0.83127158  -0.01202671  1
  In  In26  1  0.51420577  0.82444590  0.01816942  1
  In  In27  1  -0.02428254  0.16991699  0.15939764  1
  In  In28  1  0.84521724  0.81641488  0.00527090  1
  In  In29  1  0.81036283  0.32264522  0.15214674  1
  In  In30  1  0.80671848  0.86371009  0.32548311  1
  In  In31  1  0.00351780  0.64003914  0.35029920  1
  In  In32  1  0.34111816  0.33571291  -0.02291506  1
  In  In33  1  0.00856094  0.84034657  0.17998827  1
  In  In34  1  0.34843938  0.16535094  0.16037648  1
  In  In35  1  0.48938598  0.83413238  0.69969265  1
  In  In36  1  0.33227220  0.00105104  0.32845763  1
  In  In37  1  0.01397982  0.63730136  -0.02333287  1
  In  In38  1  0.67742798  0.67416950  0.00918591  1
  In  In39  1  0.19952142  0.02314207  0.11859631  1
  In  In40  1  0.14704960  0.32636338  0.50597128  1
  In  In41  1  0.47028385  0.65651220  0.84814907  1
  In  In42  1  0.33952190  0.50875703  0.16879617  1
  In  In43  1  0.64788579  0.87496298  0.84732484  1
  In  In44  1  0.50007037  0.65827442  0.15782002  1
  In  In45  1  0.00135967  0.16963137  0.49301174  1
  In  In46  1  0.82783167  -0.00459014  0.48387831  1
  In  In47  1  0.65061171  0.15294015  0.17336968  1
  In  In48  1  0.83109924  0.49668575  0.67909005  1
  In  In49  1  0.01287202  0.36502285  0.71705760  1
  In  In50  1  0.84473793  0.68065254  0.81489004  1
  In  In51  1  0.47257470  0.03043261  0.82945599  1
  In  In52  1  0.67805393  0.48379415  0.52901487  1
  In  In53  1  0.20011728  0.82980998  0.31106236  1
  In  In54  1  0.64663078  0.35525222  -0.03143198  1
  In  In55  1  0.84056418  0.32884644  0.50204697  1
  In  In56  1  0.50904135  0.31739760  0.49584379  1
  In  In57  1  0.83321806  0.18719567  0.66189601  1
  In  In58  1  0.32982753  0.33726512  0.69801454  1
  In  In59  1  0.84165337  0.01738905  0.80453432  1
  In  In60  1  0.49622724  0.15695195  0.00760723  1
  In  In61  1  0.01648580  0.81169488  0.51692820  1
  In  In62  1  0.82036965  0.20073665  -0.02299700  1
  In  In63  1  0.85011825  0.83689227  0.64407407  1
  In  In64  1  0.06389501  0.65629280  0.68269504  1
  In  In65  1  0.67149646  0.00846605  0.01980802  1
  In  In66  1  0.00208624  0.18113081  0.83185356  1
  In  In67  1  0.32675244  0.83799197  0.85166263  1
  In  In68  1  0.49088825  0.33296220  0.17744663  1
  In  In69  1  0.17332482  0.47510451  0.34076031  1
  In  In70  1  -0.00216636  -0.02357535  0.00594503  1
  In  In71  1  0.33680961  0.31588440  0.33863436  1
  Te  Te72  1  0.07168152  0.08972275  0.06998336  1
  Te  Te73  1  0.09133860  0.06590401  0.44263417  1
  Te  Te74  1  0.08315355  0.08113667  0.75160195  1
  Te  Te75  1  0.10072357  0.42937435  0.06699687  1
  Te  Te76  1  0.06831380  0.40548260  0.41147573  1
  Te  Te77  1  0.13321536  0.42741945  0.77771265  1
  Te  Te78  1  0.06635480  0.74086429  0.08148566  1
  Te  Te79  1  0.09834375  0.74950830  0.39905141  1
  Te  Te80  1  0.11740087  0.74003791  0.78994741  1
  Te  Te81  1  0.43237686  0.06061868  0.09834396  1
  Te  Te82  1  0.42451460  0.08063535  0.41882916  1
  Te  Te83  1  0.39515293  0.13820853  0.76223846  1
  Te  Te84  1  0.42144647  0.41773150  0.07425940  1
  Te  Te85  1  0.42163668  0.41494244  0.41156451  1
  Te  Te86  1  0.42257250  0.42462398  0.77398347  1
  Te  Te87  1  0.41185808  0.73393058  0.06720011  1
  Te  Te88  1  0.42924246  0.74040890  0.41183420  1
  Te  Te89  1  0.38802362  0.73663076  0.74940759  1
  Te  Te90  1  0.76693838  0.10662962  0.08249154  1
  Te  Te91  1  0.76960043  0.10346092  0.40550124  1
  Te  Te92  1  0.74408431  0.10976265  0.75005154  1
  Te  Te93  1  0.75445991  0.42316130  0.05323718  1
  Te  Te94  1  0.74920693  0.41516997  0.41607553  1
  Te  Te95  1  0.72432306  0.41414007  0.74388122  1
  Te  Te96  1  0.75246144  0.75787601  0.10909852  1
  Te  Te97  1  0.77203425  0.74643801  0.41867207  1
  Te  Te98  1  0.74478102  0.78528483  0.75412890  1
  Te  Te99  1  0.07075610  0.23891427  0.24599899  1
  Te  Te100  1  0.06531047  0.25242670  0.61373178  1
  Te  Te101  1  0.09745590  0.25365345  0.91424864  1
  Te  Te102  1  0.08565688  0.57435898  0.24077715  1
  Te  Te103  1  0.08648708  0.56212469  0.57486308  1
  Te  Te104  1  0.12003541  0.60890620  0.87616173  1
  Te  Te105  1  0.10417379  0.93097356  0.24974409  1
  Te  Te106  1  0.10842992  0.88175418  0.60658964  1
  Te  Te107  1  0.09295020  0.93329239  0.89770951  1
  Te  Te108  1  0.43549610  0.22556488  0.26799684  1
  Te  Te109  1  0.39591646  0.26299799  0.57899494  1
  Te  Te110  1  0.42891708  0.23975233  0.90170120  1
  Te  Te111  1  0.44227627  0.56542926  0.25586714  1
  Te  Te112  1  0.38458991  0.58415976  0.59111456  1
  Te  Te113  1  0.37896948  0.58707804  0.93827134  1
  Te  Te114  1  0.41264913  0.92221156  0.23505747  1
  Te  Te115  1  0.40697738  0.91652628  0.60268845  1
  Te  Te116  1  0.43852366  0.91437201  0.91890744  1
  Te  Te117  1  0.71417565  0.26496970  0.24482794  1
  Te  Te118  1  0.72879742  0.26927630  0.58783245  1
  Te  Te119  1  0.72022143  0.25700591  0.88787924  1
  Te  Te120  1  0.72930200  0.58846959  0.23713357  1
  Te  Te121  1  0.75921516  0.59744761  0.59008744  1
  Te  Te122  1  0.75707977  0.59686516  0.90697548  1
  Te  Te123  1  0.70828884  0.94027515  0.24842289  1
  Te  Te124  1  0.74360423  0.93336054  0.59370464  1
  Te  Te125  1  0.76854830  0.92215099  0.92415027  1
  Te  Te126  1  0.25894027  0.24339520  0.06643295  1
  Te  Te127  1  0.23203536  0.23967646  0.41519816  1
  Te  Te128  1  0.25717934  0.22974240  0.77335421  1
  Te  Te129  1  0.25148710  0.57744872  0.07275331  1
  Te  Te130  1  0.25735462  0.58662766  0.39544362  1
  Te  Te131  1  0.20125940  0.55992568  0.73535412  1
  Te  Te132  1  0.25970075  0.89880768  0.06833395  1
  Te  Te133  1  0.25778040  0.90977222  0.42406783  1
  Te  Te134  1  0.27323449  0.94745854  0.76981002  1
  Te  Te135  1  0.58566234  0.26265742  0.07523241  1
  Te  Te136  1  0.59632858  0.24893207  0.40186717  1
  Te  Te137  1  0.51789876  0.23428796  0.76203238  1
  Te  Te138  1  0.57784848  0.57311987  0.05498236  1
  Te  Te139  1  0.59520820  0.57702195  0.43680456  1
  Te  Te140  1  0.56195860  0.59720085  0.73710922  1
  Te  Te141  1  0.60706551  0.90443933  0.10049626  1
  Te  Te142  1  0.60112031  0.93395851  0.41539618  1
  Te  Te143  1  0.57467371  0.95231678  0.74240418  1
  Te  Te144  1  0.92373110  0.27958681  0.05410436  1
  Te  Te145  1  0.89701377  0.22883159  0.40943504  1
  Te  Te146  1  0.90167344  0.27285139  0.76668955  1
  Te  Te147  1  0.91008252  0.56759288  0.06404131  1
  Te  Te148  1  0.90410267  0.56590500  0.42442224  1
  Te  Te149  1  0.92910112  0.56217171  0.77473107  1
  Te  Te150  1  0.90141746  0.91725370  0.10610108  1
  Te  Te151  1  0.92867544  0.90053081  0.42429518  1
  Te  Te152  1  0.93001512  0.90599973  0.75266581  1
  Te  Te153  1  0.24545112  0.09498779  0.24575657  1
  Te  Te154  1  0.22974610  0.06424186  0.56800073  1
  Te  Te155  1  0.28307103  0.05384696  0.99439980  1
  Te  Te156  1  0.25149786  0.39322082  0.23809885  1
  Te  Te157  1  0.24340898  0.40501687  0.58947695  1
  Te  Te158  1  0.23550127  0.40814555  0.90044662  1
  Te  Te159  1  0.29096157  0.74702789  0.23379949  1
  Te  Te160  1  0.23832018  0.75388999  0.59291111  1
  Te  Te161  1  0.23321929  0.73101627  0.90431653  1
  Te  Te162  1  0.59806865  0.04445125  0.25408722  1
  Te  Te163  1  0.56365607  0.10234224  0.59028166  1
  Te  Te164  1  0.59111573  0.08166829  0.91689591  1
  Te  Te165  1  0.57194339  0.42625133  0.25733043  1
  Te  Te166  1  0.55765027  0.42367639  0.59618655  1
  Te  Te167  1  0.54899412  0.42869752  0.88420894  1
  Te  Te168  1  0.57576575  0.75811869  0.25015506  1
  Te  Te169  1  0.57817482  0.76770198  0.58581413  1
  Te  Te170  1  0.58887772  0.74635028  0.90003566  1
  Te  Te171  1  0.90587357  0.07305450  0.24505520  1
  Te  Te172  1  0.91210922  0.07731934  0.58876589  1
  Te  Te173  1  0.91582644  0.08333169  0.91991434  1
  Te  Te174  1  0.90822213  0.39698228  0.24495271  1
  Te  Te175  1  0.92437704  0.41091000  0.59744552  1
  Te  Te176  1  0.92120359  0.43739119  0.86656706  1
  Te  Te177  1  0.92295803  0.74751569  0.26371111  1
  Te  Te178  1  0.93923275  0.72192995  0.60950318  1
  Te  Te179  1  0.94004042  0.75373665  0.90745237  1
