# generated using pymatgen
data_In2Te3
_symmetry_space_group_name_H-M   'P 1'
_cell_length_a   18.88129934
_cell_length_b   18.87478734
_cell_length_c   18.85823228
_cell_angle_alpha   89.94137629
_cell_angle_beta   89.85058653
_cell_angle_gamma   90.19783011
_symmetry_Int_Tables_number   1
_chemical_formula_structural   In2Te3
_chemical_formula_sum   'In72 Te108'
_cell_volume   6720.63994028
_cell_formula_units_Z   36
loop_
 _symmetry_equiv_pos_site_id
 _symmetry_equiv_pos_as_xyz
  1  'x, y, z'
loop_
 _atom_site_type_symbol
 _atom_site_label
 _atom_site_symmetry_multiplicity
 _atom_site_fract_x
 _atom_site_fract_y
 _atom_site_fract_z
 _atom_site_occupancy
  In  In0  1  0.33823930  0.32600691  -0.00567894  1
  In  In1  1  0.83500502  0.82121926  0.02379048  1
  In  In2  1  0.53318553  0.29249453  0.12218639  1
  In  In3  1  0.36371250  0.69725947  0.69238028  1
  In  In4  1  0.18812385  0.85393764  0.67830595  1
  In  In5  1  0.34121448  0.31716788  0.32040600  1
  In  In6  1  0.84382221  0.63387650  0.49247031  1
  In  In7  1  0.17564641  0.18119880  0.63935010  1
  In  In8  1  0.15875408  0.50629082  0.69906360  1
  In  In9  1  0.83015191  0.35831069  0.49414538  1
  In  In10  1  0.16704720  -0.01520500  0.83861099  1
  In  In11  1  0.82115995  0.31887500  0.14882607  1
  In  In12  1  0.18983775  0.02460138  0.49608710  1
  In  In13  1  0.33792565  0.32271063  0.64474865  1
  In  In14  1  -0.02648360  0.16593705  0.14774294  1
  In  In15  1  0.81871785  0.49846826  0.66466080  1
  In  In16  1  0.65677717  0.67431293  -0.01649519  1
  In  In17  1  0.16255029  0.65626929  0.15405146  1
  In  In18  1  0.66360908  0.01091327  -0.01341708  1
  In  In19  1  0.85447462  0.64055892  0.16957720  1
  In  In20  1  0.81532109  0.16765936  0.69489596  1
  In  In21  1  0.34739490  0.15004331  0.15530826  1
  In  In22  1  0.68288000  0.49567847  0.15639326  1
  In  In23  1  0.15501356  0.69648069  0.53038100  1
  In  In24  1  0.16196915  0.19013674  0.34612350  1
  In  In25  1  0.14348279  0.52128158  -0.01237308  1
  In  In26  1  0.35809632  -0.00180920  0.35548177  1
  In  In27  1  0.03568019  0.17896246  0.52187935  1
  In  In28  1  0.79475271  -0.01097256  0.16775296  1
  In  In29  1  0.66593600  0.49129362  0.48780601  1
  In  In30  1  0.14940586  0.51893827  0.33472890  1
  In  In31  1  -0.00423461  0.47842493  0.15326783  1
  In  In32  1  -0.00443590  0.83569691  0.52445516  1
  In  In33  1  0.52795478  0.88189779  0.35277972  1
  In  In34  1  0.16705968  0.18039516  -0.00443616  1
  In  In35  1  0.66416214  0.67995069  0.33998466  1
  In  In36  1  0.34278197  0.70747663  -0.06569105  1
  In  In37  1  -0.00119214  0.33817392  0.32050943  1
  In  In38  1  0.81704068  0.18704123  0.33793007  1
  In  In39  1  0.80858931  -0.00819026  0.53490195  1
  In  In40  1  0.15392833  0.32617718  0.47670238  1
  In  In41  1  0.20284793  0.00919810  0.14343718  1
  In  In42  1  0.35263794  -0.02393540  0.00020283  1
  In  In43  1  0.51678740  0.50729062  0.66573182  1
  In  In44  1  0.40096535  0.09513757  0.53697106  1
  In  In45  1  0.48114741  0.65386778  0.15815508  1
  In  In46  1  0.53032296  0.31248690  0.81527715  1
  In  In47  1  0.52968243  0.01989496  0.16338081  1
  In  In48  1  0.36246641  0.69981631  0.35705196  1
  In  In49  1  -0.01015653  0.00802717  0.69627308  1
  In  In50  1  0.81514421  0.69136711  0.83663202  1
  In  In51  1  0.50969842  0.31125758  0.49961380  1
  In  In52  1  -0.01389482  0.16928213  0.84994531  1
  In  In53  1  -0.00954576  0.66812109  0.68654161  1
  In  In54  1  0.65134076  0.85300134  0.81226666  1
  In  In55  1  0.53821866  0.70234292  0.53148834  1
  In  In56  1  0.15322005  0.83548177  0.34798698  1
  In  In57  1  0.36750526  0.13021376  0.81626092  1
  In  In58  1  0.65886633  0.49552211  0.83479113  1
  In  In59  1  -0.01380342  -0.03211656  0.32220641  1
  In  In60  1  0.33346024  0.50934997  0.48747064  1
  In  In61  1  0.80308156  0.02343983  0.81979262  1
  In  In62  1  0.32333901  0.83541963  0.15134135  1
  In  In63  1  0.64737133  0.84338189  0.16782463  1
  In  In64  1  0.34011180  0.52517405  0.81842581  1
  In  In65  1  0.65818881  0.15340513  0.51189907  1
  In  In66  1  0.51653766  0.49984634  0.30176156  1
  In  In67  1  0.16319599  0.34317274  0.81813219  1
  In  In68  1  -0.00073638  0.80500979  0.15893741  1
  In  In69  1  0.31353688  0.47038087  0.15919626  1
  In  In70  1  -0.02196888  0.84425562  0.83264290  1
  In  In71  1  0.81810755  0.33790530  0.86279300  1
  Te  Te72  1  0.08469532  0.08305099  0.07918505  1
  Te  Te73  1  0.07574535  0.07060791  0.40500246  1
  Te  Te74  1  0.09519566  0.10442973  0.75381258  1
  Te  Te75  1  0.10509745  0.41372638  0.07938491  1
  Te  Te76  1  0.05629010  0.44021016  0.42944392  1
  Te  Te77  1  0.05262427  0.44242649  0.78559542  1
  Te  Te78  1  0.08484075  0.73815782  0.05614467  1
  Te  Te79  1  0.05807329  0.74183773  0.42028985  1
  Te  Te80  1  0.08498965  0.76985568  0.75257528  1
  Te  Te81  1  0.44171750  0.08640063  0.05629918  1
  Te  Te82  1  0.45621423  0.09889626  0.39750184  1
  Te  Te83  1  0.46375123  0.06522156  0.72551155  1
  Te  Te84  1  0.42946581  0.40508369  0.08734699  1
  Te  Te85  1  0.42448264  0.41308241  0.41165917  1
  Te  Te86  1  0.41663221  0.40978185  0.74306064  1
  Te  Te87  1  0.41863688  0.75576911  0.06594590  1
  Te  Te88  1  0.44545806  0.78942160  0.44711632  1
  Te  Te89  1  0.42282323  0.76070966  0.81436799  1
  Te  Te90  1  0.74748104  0.09461450  0.07750675  1
  Te  Te91  1  0.75180013  0.07460597  0.41817851  1
  Te  Te92  1  0.71005492  0.06218963  0.70980119  1
  Te  Te93  1  0.75241970  0.41272472  0.05204127  1
  Te  Te94  1  0.73203702  0.39989070  0.39323847  1
  Te  Te95  1  0.73816947  0.39897608  0.74751839  1
  Te  Te96  1  0.73729130  0.73476886  0.10576234  1
  Te  Te97  1  0.75066367  0.73860732  0.44273441  1
  Te  Te98  1  0.71909177  0.74183667  0.73568679  1
  Te  Te99  1  0.07823325  0.24469896  0.23167481  1
  Te  Te100  1  0.08060937  0.29520918  0.60988195  1
  Te  Te101  1  0.07384388  0.27351079  0.92165485  1
  Te  Te102  1  0.05648527  0.59327546  0.24351835  1
  Te  Te103  1  0.07662289  0.58325073  0.59413431  1
  Te  Te104  1  0.07727423  0.57103930  0.86787609  1
  Te  Te105  1  0.10291019  0.92108511  0.23238960  1
  Te  Te106  1  0.08831175  0.93874297  0.58966372  1
  Te  Te107  1  0.04688994  0.94673268  0.91583779  1
  Te  Te108  1  0.44022537  0.23837434  0.23769484  1
  Te  Te109  1  0.44906623  0.22649543  0.60955129  1
  Te  Te110  1  0.42629662  0.24044459  0.90530256  1
  Te  Te111  1  0.38851872  0.57256587  0.25679885  1
  Te  Te112  1  0.41496279  0.59300657  0.58567462  1
  Te  Te113  1  0.42273522  0.58282946  0.92392408  1
  Te  Te114  1  0.41738513  0.92390602  0.23489791  1
  Te  Te115  1  0.43787582  0.95829673  0.58357670  1
  Te  Te116  1  0.41050734  0.91310868  0.87980981  1
  Te  Te117  1  0.72664864  0.22692791  0.22490528  1
  Te  Te118  1  0.75873177  0.24839003  0.57910021  1
  Te  Te119  1  0.72455026  0.22232743  0.90030264  1
  Te  Te120  1  0.74941056  0.57746570  0.26668519  1
  Te  Te121  1  0.72583004  0.58847248  0.58675966  1
  Te  Te122  1  0.75503831  0.57905829  0.92121162  1
  Te  Te123  1  0.73159281  0.90565870  0.27041489  1
  Te  Te124  1  0.70974898  0.89760033  0.59426906  1
  Te  Te125  1  0.75678620  0.90234841  0.92228622  1
  Te  Te126  1  0.25230963  0.25382485  0.09863421  1
  Te  Te127  1  0.27330006  0.24139664  0.43799091  1
  Te  Te128  1  0.26565422  0.24317033  0.75962939  1
  Te  Te129  1  0.26445906  0.58190828  0.07000244  1
  Te  Te130  1  0.23754038  0.60932561  0.42400657  1
  Te  Te131  1  0.24198301  0.62083471  0.75308172  1
  Te  Te132  1  0.22651156  0.89129420  0.04115066  1
  Te  Te133  1  0.25966010  0.90621121  0.43114989  1
  Te  Te134  1  0.28338600  0.91071149  0.77939764  1
  Te  Te135  1  0.62160571  0.22694242  0.02062903  1
  Te  Te136  1  0.60985452  0.25155956  0.41093803  1
  Te  Te137  1  0.62780755  0.20641956  0.77024010  1
  Te  Te138  1  0.58008331  0.57537458  0.07543365  1
  Te  Te139  1  0.55861779  0.58793584  0.42065080  1
  Te  Te140  1  0.57287234  0.59513738  0.76717479  1
  Te  Te141  1  0.56953267  0.91396867  0.06016485  1
  Te  Te142  1  0.62887285  0.89993662  0.46267601  1
  Te  Te143  1  0.54306098  0.93330244  0.74829185  1
  Te  Te144  1  0.91390690  0.25835439  0.04867740  1
  Te  Te145  1  0.93349325  0.24403122  0.42223261  1
  Te  Te146  1  0.91228337  0.26506662  0.75993163  1
  Te  Te147  1  0.91888501  0.56540324  0.05923112  1
  Te  Te148  1  0.92910977  0.53498622  0.42919609  1
  Te  Te149  1  0.89625782  0.58013509  0.76721709  1
  Te  Te150  1  0.91831967  0.92081517  0.10137168  1
  Te  Te151  1  0.90033526  0.91291521  0.43424865  1
  Te  Te152  1  0.88180887  0.91203734  0.73757989  1
  Te  Te153  1  0.25521521  0.08811894  0.26817437  1
  Te  Te154  1  0.26789980  0.06413831  0.61859088  1
  Te  Te155  1  0.25983011  0.08382022  0.92410009  1
  Te  Te156  1  0.22752214  0.40601235  0.26801366  1
  Te  Te157  1  0.24588598  0.42916839  0.58345072  1
  Te  Te158  1  0.25799164  0.42312411  0.90855532  1
  Te  Te159  1  0.24559727  0.74994991  0.25285005  1
  Te  Te160  1  0.27600587  0.76959753  0.58741519  1
  Te  Te161  1  0.20956410  0.76744570  0.94336412  1
  Te  Te162  1  0.63051332  0.10226597  0.22872632  1
  Te  Te163  1  0.56054671  0.03009398  0.52788875  1
  Te  Te164  1  0.60069301  0.11379309  0.89575430  1
  Te  Te165  1  0.59216001  0.39398658  0.22778411  1
  Te  Te166  1  0.59432320  0.40147087  0.59027800  1
  Te  Te167  1  0.57460108  0.40627437  0.91840806  1
  Te  Te168  1  0.55472824  0.74806054  0.25450181  1
  Te  Te169  1  0.58390145  0.78685624  0.64366277  1
  Te  Te170  1  0.57225091  0.76661972  0.90808710  1
  Te  Te171  1  0.90561036  0.08255524  0.25766842  1
  Te  Te172  1  0.92209164  0.09254601  0.58843104  1
  Te  Te173  1  0.90844287  0.06322313  0.91689408  1
  Te  Te174  1  0.89207464  0.41330703  0.24638345  1
  Te  Te175  1  0.92129399  0.42395888  0.58842141  1
  Te  Te176  1  0.89007447  0.41749530  0.96663347  1
  Te  Te177  1  0.90448341  0.74933055  0.25555428  1
  Te  Te178  1  0.89813002  0.74443800  0.59490657  1
  Te  Te179  1  0.92482142  0.74070435  0.93137163  1
