# generated using pymatgen
data_In2Te3
_symmetry_space_group_name_H-M   'P 1'
_cell_length_a   18.93970280
_cell_length_b   18.94933123
_cell_length_c   18.94256938
_cell_angle_alpha   90.05129994
_cell_angle_beta   89.99744310
_cell_angle_gamma   89.87782989
_symmetry_Int_Tables_number   1
_chemical_formula_structural   In2Te3
_chemical_formula_sum   'In72 Te108'
_cell_volume   6798.36960347
_cell_formula_units_Z   36
loop_
 _symmetry_equiv_pos_site_id
 _symmetry_equiv_pos_as_xyz
  1  'x, y, z'
loop_
 _atom_site_type_symbol
 _atom_site_label
 _atom_site_symmetry_multiplicity
 _atom_site_fract_x
 _atom_site_fract_y
 _atom_site_fract_z
 _atom_site_occupancy
  In  In0  1  0.02730510  0.31558866  0.01205779  1
  In  In1  1  0.46982142  0.84848578  0.28127494  1
  In  In2  1  0.17345496  0.15339349  0.63543755  1
  In  In3  1  0.49237187  0.15028584  0.01426949  1
  In  In4  1  0.19004792  0.49154599  0.63005561  1
  In  In5  1  0.82436183  0.84637550  0.01750598  1
  In  In6  1  0.32181609  0.82181979  0.49210783  1
  In  In7  1  0.78396972  0.76915416  0.84581726  1
  In  In8  1  0.66093166  0.49012561  0.49814789  1
  In  In9  1  0.18988350  0.83559960  0.32026314  1
  In  In10  1  0.18366994  0.32646103  0.17721278  1
  In  In11  1  0.66879153  0.16980507  0.52075952  1
  In  In12  1  -0.03329570  0.13094932  0.19407075  1
  In  In13  1  0.66068367  0.30545546  0.32484950  1
  In  In14  1  0.63739205  0.68919948  0.00349373  1
  In  In15  1  0.02645563  0.51849807  0.83802480  1
  In  In16  1  0.50156785  0.67677745  0.51648847  1
  In  In17  1  0.83100549  0.48555611  0.34219720  1
  In  In18  1  -0.00191512  0.32533180  0.34280266  1
  In  In19  1  -0.00501268  0.83814254  0.52501135  1
  In  In20  1  0.49995158  0.31479173  0.80720623  1
  In  In21  1  0.02862440  0.48122566  0.49928366  1
  In  In22  1  0.33250865  0.48366177  0.16254680  1
  In  In23  1  0.47386272  0.00911789  0.45375714  1
  In  In24  1  -0.01090256  0.84397141  0.15673752  1
  In  In25  1  0.49697032  0.48666536  0.67349283  1
  In  In26  1  0.01326110  0.67353937  0.30254504  1
  In  In27  1  0.61693565  0.88800994  0.18613397  1
  In  In28  1  0.35675039  0.65914054  0.66846297  1
  In  In29  1  0.17696591  0.67428966  0.81495903  1
  In  In30  1  0.63243247  0.31546129  -0.00401039  1
  In  In31  1  0.15689296  -0.00225490  0.16173152  1
  In  In32  1  0.32965150  0.66237253  0.32503720  1
  In  In33  1  0.18995308  0.51843897  -0.02272627  1
  In  In34  1  0.18867899  0.13836157  0.02132819  1
  In  In35  1  0.49108011  0.68155176  0.83939615  1
  In  In36  1  -0.02257396  0.18684635  0.83846810  1
  In  In37  1  0.81671104  0.32513315  0.18203921  1
  In  In38  1  0.17590750  0.19958858  0.36273662  1
  In  In39  1  0.80274611  0.88439099  0.34177895  1
  In  In40  1  0.67231925  0.72278334  0.33279912  1
  In  In41  1  0.67479692  0.50479947  0.84842130  1
  In  In42  1  0.17997779  0.83426608  0.02375241  1
  In  In43  1  0.85778215  0.65295085  0.52149633  1
  In  In44  1  0.32716777  0.00639688  0.65500932  1
  In  In45  1  -0.00887872  0.15993676  0.48470588  1
  In  In46  1  -0.00150816  0.84996407  0.85203735  1
  In  In47  1  0.66668427  0.52647027  0.14244696  1
  In  In48  1  0.48300333  0.32516725  0.17972632  1
  In  In49  1  0.49732160  0.16363206  0.66318585  1
  In  In50  1  0.83448493  0.32651004  0.85880615  1
  In  In51  1  0.00016421  -0.00260939  0.66624333  1
  In  In52  1  0.17653327  0.33714455  0.82417955  1
  In  In53  1  -0.00993850  0.67549468  0.70545761  1
  In  In54  1  0.83956234  0.67726519  0.17063130  1
  In  In55  1  -0.01366727  0.31452599  0.67121348  1
  In  In56  1  0.65558978  0.84393528  0.51837400  1
  In  In57  1  0.86646929  0.46678453  0.67781831  1
  In  In58  1  0.51041577  0.49950103  0.33234306  1
  In  In59  1  0.16907974  0.66177927  0.49700790  1
  In  In60  1  0.34292589  0.69200265  0.00047127  1
  In  In61  1  0.17716590  0.01083044  0.83594269  1
  In  In62  1  0.82769612  0.14611506  -0.00832125  1
  In  In63  1  0.84430443  0.50648551  0.01380472  1
  In  In64  1  0.52460086  0.84177798  0.66391001  1
  In  In65  1  0.32852066  0.15969449  0.83006794  1
  In  In66  1  0.48258025  0.32452026  0.51294052  1
  In  In67  1  0.80119405  -0.00182835  0.49645066  1
  In  In68  1  0.33811934  0.15932326  0.16675238  1
  In  In69  1  0.03297571  0.52652686  0.18073163  1
  In  In70  1  0.66150504  0.01815899  0.68620803  1
  In  In71  1  0.66486859  -0.00151209  -0.01251963  1
  Te  Te72  1  0.05934179  0.08562346  0.08084853  1
  Te  Te73  1  0.08910288  0.08857958  0.40085725  1
  Te  Te74  1  0.08220343  0.10359825  0.75143494  1
  Te  Te75  1  0.10202970  0.42841278  0.07996696  1
  Te  Te76  1  0.10281519  0.41490443  0.39197129  1
  Te  Te77  1  0.08158314  0.41989101  0.73606279  1
  Te  Te78  1  0.08860089  0.75114604  0.10320920  1
  Te  Te79  1  0.07863856  0.75520543  0.41891607  1
  Te  Te80  1  0.08901163  0.77997603  0.74950522  1
  Te  Te81  1  0.44847986  0.06348455  0.12953912  1
  Te  Te82  1  0.41164270  0.08989765  0.34705853  1
  Te  Te83  1  0.42290389  0.06814013  0.75527037  1
  Te  Te84  1  0.42760121  0.41124410  0.07659726  1
  Te  Te85  1  0.42385634  0.41190846  0.40954174  1
  Te  Te86  1  0.40160424  0.39255726  0.73083468  1
  Te  Te87  1  0.45096928  0.77888637  0.05983685  1
  Te  Te88  1  0.43221044  0.75520534  0.40600823  1
  Te  Te89  1  0.41351668  0.77550287  0.74575878  1
  Te  Te90  1  0.72888256  0.08908704  0.08465442  1
  Te  Te91  1  0.71358309  0.07972756  0.40940105  1
  Te  Te92  1  0.73873201  0.12906433  0.74259083  1
  Te  Te93  1  0.74169812  0.40564568  0.06473588  1
  Te  Te94  1  0.74603108  0.38989793  0.42109687  1
  Te  Te95  1  0.75218124  0.40604695  0.76046308  1
  Te  Te96  1  0.73381780  0.76040981  0.10238929  1
  Te  Te97  1  0.76687753  0.75519493  0.44783532  1
  Te  Te98  1  0.73065893  0.73880946  0.71533424  1
  Te  Te99  1  0.05956193  0.25019384  0.22559019  1
  Te  Te100  1  0.07855533  0.25248205  0.56885325  1
  Te  Te101  1  0.11094940  0.23077445  0.91584590  1
  Te  Te102  1  0.12777435  0.58572967  0.27554362  1
  Te  Te103  1  0.06668449  0.59455141  0.60065922  1
  Te  Te104  1  0.08859337  0.62161123  0.92760686  1
  Te  Te105  1  0.07639836  0.91642366  0.26004288  1
  Te  Te106  1  0.09760766  0.92143546  0.58641229  1
  Te  Te107  1  0.09607639  0.93012134  0.93563368  1
  Te  Te108  1  0.40414704  0.24125526  0.27344725  1
  Te  Te109  1  0.39749016  0.21213479  0.56352017  1
  Te  Te110  1  0.41941612  0.24403489  0.91590862  1
  Te  Te111  1  0.42537075  0.58167679  0.23846252  1
  Te  Te112  1  0.41670042  0.56296991  0.56653765  1
  Te  Te113  1  0.39525177  0.59299102  0.90529837  1
  Te  Te114  1  0.39316745  0.97207284  0.24854032  1
  Te  Te115  1  0.42670274  0.90771411  0.56676162  1
  Te  Te116  1  0.38990439  0.88971031  0.99030365  1
  Te  Te117  1  0.75697072  0.21566541  0.25817708  1
  Te  Te118  1  0.76942936  0.23051967  0.60807597  1
  Te  Te119  1  0.72885489  0.23358924  0.91230844  1
  Te  Te120  1  0.75163346  0.58970333  0.26051993  1
  Te  Te121  1  0.76972513  0.55039463  0.58823150  1
  Te  Te122  1  0.75163204  0.59880542  0.93891791  1
  Te  Te123  1  0.75798691  0.95121172  0.21337663  1
  Te  Te124  1  0.74912280  0.91609629  0.61276421  1
  Te  Te125  1  0.75461643  0.90863427  0.89897754  1
  Te  Te126  1  0.26670395  0.25660912  0.07063627  1
  Te  Te127  1  0.27075058  0.25520305  0.46224247  1
  Te  Te128  1  0.25360648  0.24500486  0.73018004  1
  Te  Te129  1  0.25906008  0.59447188  0.08677162  1
  Te  Te130  1  0.26853281  0.57924896  0.42918355  1
  Te  Te131  1  0.25756872  0.56777676  0.74103238  1
  Te  Te132  1  0.27400633  0.92474492  0.09816632  1
  Te  Te133  1  0.26063107  0.92790110  0.41025899  1
  Te  Te134  1  0.24432762  0.92184864  0.74134209  1
  Te  Te135  1  0.58268269  0.23223588  0.11191452  1
  Te  Te136  1  0.57066178  0.23517646  0.42242737  1
  Te  Te137  1  0.60469759  0.23494421  0.73719534  1
  Te  Te138  1  0.56065168  0.57564017  0.05603565  1
  Te  Te139  1  0.59855093  0.60323908  0.41661162  1
  Te  Te140  1  0.57928137  0.58000212  0.75816906  1
  Te  Te141  1  0.55546632  0.91120253  0.05003189  1
  Te  Te142  1  0.57700774  0.90409355  0.40079624  1
  Te  Te143  1  0.58035122  0.92764913  0.76920849  1
  Te  Te144  1  0.90376846  0.25483756  0.07227652  1
  Te  Te145  1  0.89867210  0.23361203  0.39526286  1
  Te  Te146  1  0.87942466  0.21810955  0.72166330  1
  Te  Te147  1  0.93855302  0.60175836  0.08445748  1
  Te  Te148  1  0.93226358  0.58132362  0.40610913  1
  Te  Te149  1  0.89994914  0.57814593  0.77766281  1
  Te  Te150  1  0.92014760  0.94215038  0.07324597  1
  Te  Te151  1  0.92120290  0.92936650  0.42910378  1
  Te  Te152  1  0.91219516  0.93716879  0.76851568  1
  Te  Te153  1  0.21813721  0.10794228  0.24594017  1
  Te  Te154  1  0.24707332  0.06228836  0.54466452  1
  Te  Te155  1  0.28494111  0.05884159  0.93603554  1
  Te  Te156  1  0.27232364  0.39841565  0.26740620  1
  Te  Te157  1  0.23223274  0.37808573  0.55153540  1
  Te  Te158  1  0.26687682  0.41553037  0.90801865  1
  Te  Te159  1  0.27777549  0.76165726  0.23025536  1
  Te  Te160  1  0.24865006  0.74282100  0.59792591  1
  Te  Te161  1  0.25321261  0.77031528  0.90372264  1
  Te  Te162  1  0.61839072  0.00187938  0.28489006  1
  Te  Te163  1  0.56642207  0.05917437  0.56754638  1
  Te  Te164  1  0.56296835  0.07408713  0.91128844  1
  Te  Te165  1  0.60744160  0.42274450  0.24005446  1
  Te  Te166  1  0.59085168  0.39702367  0.59331232  1
  Te  Te167  1  0.56634269  0.41608600  0.90556327  1
  Te  Te168  1  0.56836699  0.74193341  0.22813305  1
  Te  Te169  1  0.61484259  0.72091160  0.60993603  1
  Te  Te170  1  0.60166416  0.76957895  0.88505176  1
  Te  Te171  1  0.88662053  0.02947933  0.26193115  1
  Te  Te172  1  0.90551466  0.07631006  0.57741149  1
  Te  Te173  1  0.91324787  0.06993281  0.89778227  1
  Te  Te174  1  0.91512524  0.43352190  0.22613331  1
  Te  Te175  1  0.91970344  0.39349785  0.55563984  1
  Te  Te176  1  0.94218892  0.41634607  0.92302022  1
  Te  Te177  1  0.89682321  0.77329448  0.27335169  1
  Te  Te178  1  0.90195130  0.76276243  0.61831794  1
  Te  Te179  1  0.91049936  0.75320869  0.92841385  1
