# generated using pymatgen
data_In2Te3
_symmetry_space_group_name_H-M   'P 1'
_cell_length_a   18.79097089
_cell_length_b   18.78170193
_cell_length_c   18.79809381
_cell_angle_alpha   90.00762004
_cell_angle_beta   90.05526376
_cell_angle_gamma   89.97597721
_symmetry_Int_Tables_number   1
_chemical_formula_structural   In2Te3
_chemical_formula_sum   'In72 Te108'
_cell_volume   6634.34011221
_cell_formula_units_Z   36
loop_
 _symmetry_equiv_pos_site_id
 _symmetry_equiv_pos_as_xyz
  1  'x, y, z'
loop_
 _atom_site_type_symbol
 _atom_site_label
 _atom_site_symmetry_multiplicity
 _atom_site_fract_x
 _atom_site_fract_y
 _atom_site_fract_z
 _atom_site_occupancy
  In  In0  1  0.69187961  0.50212455  0.18037954  1
  In  In1  1  0.01207843  0.32192052  0.32425194  1
  In  In2  1  0.81292309  0.15096592  0.32366008  1
  In  In3  1  0.33168892  0.00356688  0.35858111  1
  In  In4  1  -0.00002899  0.84753281  0.49316082  1
  In  In5  1  0.68757900  0.67723297  -0.00903124  1
  In  In6  1  0.33362758  0.01028631  0.00008570  1
  In  In7  1  0.46928597  0.49993915  0.66507770  1
  In  In8  1  -0.01602602  0.00124142  -0.01206438  1
  In  In9  1  0.51474984  0.67679264  0.83837524  1
  In  In10  1  0.20641241  0.83269388  0.31788611  1
  In  In11  1  0.17115168  0.49625736  0.32705895  1
  In  In12  1  0.86117566  0.32901172  0.84031790  1
  In  In13  1  -0.01041565  0.68464994  0.65131910  1
  In  In14  1  0.85091378  0.15586918  0.68184240  1
  In  In15  1  0.66867242  0.14734378  0.16633538  1
  In  In16  1  0.33959825  0.15408876  0.84514610  1
  In  In17  1  0.31103346  0.49147327  0.83349295  1
  In  In18  1  0.68297966  -0.03657133  0.62869690  1
  In  In19  1  0.66724669  0.52173574  0.85593399  1
  In  In20  1  0.83039103  0.68355325  0.83343346  1
  In  In21  1  0.29967121  0.00824733  0.63489474  1
  In  In22  1  0.83474056  0.66157130  0.15396955  1
  In  In23  1  0.49615304  0.17760539  0.65491006  1
  In  In24  1  0.33128017  0.66391606  0.01012103  1
  In  In25  1  0.00539613  0.67158546  0.00612288  1
  In  In26  1  0.49385729  0.17048001  -0.00940959  1
  In  In27  1  0.66911592  0.69771546  0.66935128  1
  In  In28  1  0.16584580  0.66925810  0.82460540  1
  In  In29  1  0.01500128  0.48000657  0.84496908  1
  In  In30  1  0.17499077  0.17823113  0.33097631  1
  In  In31  1  -0.02018828  -0.01866254  0.68063119  1
  In  In32  1  0.65406071  0.16743509  0.49789592  1
  In  In33  1  0.03492655  0.46340212  0.16448095  1
  In  In34  1  0.84640805  0.48880114  0.65977442  1
  In  In35  1  0.48781209  0.84221452  0.65037098  1
  In  In36  1  0.47151432  0.68181515  0.48239735  1
  In  In37  1  0.34677950  0.66768815  0.64972461  1
  In  In38  1  0.16424005  0.83477066  -0.00023829  1
  In  In39  1  0.66173542  0.31039023  0.69239997  1
  In  In40  1  0.51129275  0.00263553  0.83633887  1
  In  In41  1  0.64792081  0.82809925  0.16734260  1
  In  In42  1  0.65173607  0.34571691  0.33901078  1
  In  In43  1  0.02231629  0.17705886  0.52940119  1
  In  In44  1  0.87505714  0.31086554  0.13862617  1
  In  In45  1  0.18136113  0.01237744  0.82979633  1
  In  In46  1  0.02025257  0.01111869  0.31772416  1
  In  In47  1  0.49771625  0.67112071  0.18686570  1
  In  In48  1  0.00769004  0.15571419  0.83974677  1
  In  In49  1  0.17158117  0.82003173  0.66591272  1
  In  In50  1  0.31049903  0.32840501  0.66304168  1
  In  In51  1  0.32563082  0.48967539  0.16044002  1
  In  In52  1  0.63659393  -0.03356392  0.36208490  1
  In  In53  1  0.67857499  0.16962341  0.81573004  1
  In  In54  1  0.84141931  0.34577666  0.48834504  1
  In  In55  1  0.16563206  0.66739062  0.49805104  1
  In  In56  1  0.51044705  0.81975071  0.00207439  1
  In  In57  1  0.45689202  0.30495376  0.20664600  1
  In  In58  1  0.71201913  -0.02710140  -0.00708959  1
  In  In59  1  -0.01068742  0.64861656  0.32226584  1
  In  In60  1  0.64330201  0.52410650  0.52112765  1
  In  In61  1  0.86137907  -0.00743281  0.16694054  1
  In  In62  1  0.66900522  0.33232031  0.00057159  1
  In  In63  1  0.47600019  0.00889715  0.18660505  1
  In  In64  1  0.16419119  0.33398778  0.84917095  1
  In  In65  1  0.49990891  0.48713171  0.02179030  1
  In  In66  1  0.00960166  0.50514772  0.47567823  1
  In  In67  1  0.14799221  0.00214881  0.15081455  1
  In  In68  1  0.45973229  0.33608022  0.51354081  1
  In  In69  1  0.82337816  0.82622382  0.33831385  1
  In  In70  1  0.84168809  0.54189072  0.32624188  1
  In  In71  1  0.47127133  0.48790463  0.34393608  1
  Te  Te72  1  0.06779455  0.09828045  0.06855340  1
  Te  Te73  1  0.09466579  0.08813771  0.42571995  1
  Te  Te74  1  0.08605315  0.08139284  0.73194558  1
  Te  Te75  1  0.12841571  0.39196103  0.07060587  1
  Te  Te76  1  0.10095132  0.39384366  0.42308979  1
  Te  Te77  1  0.10421042  0.42012784  0.74256927  1
  Te  Te78  1  0.10101054  0.74215684  0.09553725  1
  Te  Te79  1  0.07817238  0.74936949  0.40348012  1
  Te  Te80  1  0.06430712  0.76354009  0.75955808  1
  Te  Te81  1  0.40082032  0.10918794  0.09601280  1
  Te  Te82  1  0.43684180  0.09901425  0.40188789  1
  Te  Te83  1  0.41361895  0.06959119  0.73908930  1
  Te  Te84  1  0.40584198  0.38485511  0.08148376  1
  Te  Te85  1  0.36966419  0.40071686  0.41161298  1
  Te  Te86  1  0.40881822  0.39927891  0.75904678  1
  Te  Te87  1  0.40931295  0.76120178  0.09932983  1
  Te  Te88  1  0.42436140  0.79269090  0.39089194  1
  Te  Te89  1  0.41447590  0.75607963  0.75500473  1
  Te  Te90  1  0.77487127  0.08547934  0.07676680  1
  Te  Te91  1  0.74110305  0.06471503  0.42591784  1
  Te  Te92  1  0.74614584  0.06059034  0.73645222  1
  Te  Te93  1  0.76773931  0.41363223  0.08401580  1
  Te  Te94  1  0.74255334  0.44034384  0.41953929  1
  Te  Te95  1  0.74947792  0.41857642  0.76023260  1
  Te  Te96  1  0.76175790  0.77526570  0.07990152  1
  Te  Te97  1  0.73264872  0.77320832  0.44079765  1
  Te  Te98  1  0.76473834  0.78566196  0.74351160  1
  Te  Te99  1  0.08883246  0.24221595  0.22228062  1
  Te  Te100  1  0.14578293  0.25394942  0.56854889  1
  Te  Te101  1  0.05966988  0.26199016  0.93448467  1
  Te  Te102  1  0.09556273  0.58885623  0.23174351  1
  Te  Te103  1  0.08307438  0.57933514  0.59004402  1
  Te  Te104  1  0.09929604  0.57858408  0.92616138  1
  Te  Te105  1  0.08638680  0.89691267  0.24275716  1
  Te  Te106  1  0.09140596  0.92457171  0.58806929  1
  Te  Te107  1  0.08479163  0.91907830  0.90064611  1
  Te  Te108  1  0.39157182  0.20418892  0.30001367  1
  Te  Te109  1  0.37998929  0.21471765  0.56386356  1
  Te  Te110  1  0.39409047  0.26118154  0.93121396  1
  Te  Te111  1  0.38742507  0.59639759  0.26460345  1
  Te  Te112  1  0.39538403  0.56060598  0.54980058  1
  Te  Te113  1  0.42556202  0.57633470  0.91234506  1
  Te  Te114  1  0.40470998  0.90470845  0.26641530  1
  Te  Te115  1  0.40587527  0.93089976  0.56101978  1
  Te  Te116  1  0.41941069  0.91281889  0.91847740  1
  Te  Te117  1  0.74638165  0.26594208  0.24707579  1
  Te  Te118  1  0.75894693  0.25010279  0.58424457  1
  Te  Te119  1  0.76305497  0.24213442  0.92038539  1
  Te  Te120  1  0.73039398  0.62429830  0.26236723  1
  Te  Te121  1  0.75782587  0.59517065  0.59313291  1
  Te  Te122  1  0.78369812  0.57273229  0.93590738  1
  Te  Te123  1  0.73942568  0.93139919  0.24512573  1
  Te  Te124  1  0.77130259  0.88350311  0.53933843  1
  Te  Te125  1  0.81065245  0.90634271  0.90434116  1
  Te  Te126  1  0.21563401  0.28379456  0.13513086  1
  Te  Te127  1  0.27885948  0.26862923  0.38808279  1
  Te  Te128  1  0.24033133  0.23326223  0.76072360  1
  Te  Te129  1  0.23628230  0.57922594  0.08328123  1
  Te  Te130  1  0.25492515  0.58254428  0.41489645  1
  Te  Te131  1  0.24694966  0.58160832  0.72848634  1
  Te  Te132  1  0.25972200  0.91395500  0.09122121  1
  Te  Te133  1  0.22892507  0.92427719  0.43066704  1
  Te  Te134  1  0.26325897  0.91227114  0.74844896  1
  Te  Te135  1  0.58013003  0.25268969  0.09821952  1
  Te  Te136  1  0.55947428  0.25708954  0.41984311  1
  Te  Te137  1  0.55211321  0.24693795  0.77873746  1
  Te  Te138  1  0.59231555  0.59629943  0.08156554  1
  Te  Te139  1  0.57091573  0.58709602  0.40504774  1
  Te  Te140  1  0.58216602  0.57920034  0.73315311  1
  Te  Te141  1  0.57709761  0.93629834  0.08364461  1
  Te  Te142  1  0.51536419  0.91267167  0.43307312  1
  Te  Te143  1  0.58906943  0.91170902  0.74255487  1
  Te  Te144  1  0.95488605  0.22603750  0.04882147  1
  Te  Te145  1  0.91772203  0.23399839  0.41662331  1
  Te  Te146  1  0.94652807  0.25995768  0.73515077  1
  Te  Te147  1  0.93627304  0.56644569  0.09674207  1
  Te  Te148  1  0.90313320  0.61201050  0.44608492  1
  Te  Te149  1  0.92348458  0.58187198  0.75553947  1
  Te  Te150  1  0.94271822  0.89928038  0.08840840  1
  Te  Te151  1  0.91647696  0.93464208  0.39871386  1
  Te  Te152  1  0.88179190  0.90559234  0.76323635  1
  Te  Te153  1  0.24478690  0.07188060  0.24482889  1
  Te  Te154  1  0.23986713  0.12658883  0.57080543  1
  Te  Te155  1  0.22854055  0.10499534  0.94189147  1
  Te  Te156  1  0.24707094  0.39142065  0.24663188  1
  Te  Te157  1  0.20935839  0.39959081  0.58518176  1
  Te  Te158  1  0.24332355  0.41983870  0.94490054  1
  Te  Te159  1  0.28445664  0.71805710  0.27116688  1
  Te  Te160  1  0.26788937  0.76362394  0.56125120  1
  Te  Te161  1  0.26054723  0.75436169  0.90879606  1
  Te  Te162  1  0.58001537  0.08468982  0.27160799  1
  Te  Te163  1  0.57718180  0.06958624  0.58444215  1
  Te  Te164  1  0.60475896  0.08075231  0.92935693  1
  Te  Te165  1  0.56849103  0.42893349  0.23532448  1
  Te  Te166  1  0.58479663  0.39862551  0.58734118  1
  Te  Te167  1  0.57520720  0.41229921  0.90975873  1
  Te  Te168  1  0.57260807  0.76335155  0.27663645  1
  Te  Te169  1  0.58306138  0.75890264  0.55994274  1
  Te  Te170  1  0.61484517  0.77491169  0.89902813  1
  Te  Te171  1  0.93129485  0.10859316  0.23885073  1
  Te  Te172  1  0.91667573  0.07366197  0.57179481  1
  Te  Te173  1  0.89538734  0.07416173  0.89141826  1
  Te  Te174  1  0.91232050  0.42347849  0.26014992  1
  Te  Te175  1  0.94602776  0.40522644  0.58063147  1
  Te  Te176  1  0.92372538  0.41593463  0.94171788  1
  Te  Te177  1  0.91837173  0.75709889  0.24088758  1
  Te  Te178  1  0.89883958  0.78427291  0.58533547  1
  Te  Te179  1  0.91480712  0.76304062  0.92828748  1
