# generated using pymatgen
data_In2Te3
_symmetry_space_group_name_H-M   'P 1'
_cell_length_a   18.89341282
_cell_length_b   18.93244026
_cell_length_c   18.92569961
_cell_angle_alpha   89.91756585
_cell_angle_beta   90.04609090
_cell_angle_gamma   90.11482648
_symmetry_Int_Tables_number   1
_chemical_formula_structural   In2Te3
_chemical_formula_sum   'In72 Te108'
_cell_volume   6769.66987581
_cell_formula_units_Z   36
loop_
 _symmetry_equiv_pos_site_id
 _symmetry_equiv_pos_as_xyz
  1  'x, y, z'
loop_
 _atom_site_type_symbol
 _atom_site_label
 _atom_site_symmetry_multiplicity
 _atom_site_fract_x
 _atom_site_fract_y
 _atom_site_fract_z
 _atom_site_occupancy
  In  In0  1  0.33434220  0.17228833  0.82266777  1
  In  In1  1  0.00553850  0.48392382  0.17404591  1
  In  In2  1  0.81107569  0.28024785  -0.02942723  1
  In  In3  1  0.52696387  0.31311989  0.17929861  1
  In  In4  1  -0.00172693  0.51435434  0.48396917  1
  In  In5  1  0.01826616  0.30872346  0.64475284  1
  In  In6  1  0.31072902  0.66565928  0.01432258  1
  In  In7  1  0.48679965  0.70057081  0.47032754  1
  In  In8  1  0.67066479  -0.01498761  0.33260122  1
  In  In9  1  0.65216016  0.84019925  0.84225844  1
  In  In10  1  0.16724036  0.33100467  0.20075352  1
  In  In11  1  0.83357651  0.84082227  0.64714819  1
  In  In12  1  0.70492878  0.17995238  0.16763916  1
  In  In13  1  0.29140073  0.30506161  0.37224029  1
  In  In14  1  0.50210735  0.48384801  0.69361214  1
  In  In15  1  0.18100464  0.33114810  0.82824538  1
  In  In16  1  0.84455655  -0.00570654  0.19084278  1
  In  In17  1  0.83522042  0.15639183  0.65323392  1
  In  In18  1  0.50443553  0.50065741  0.32040445  1
  In  In19  1  0.48410353  0.14633920  0.33784584  1
  In  In20  1  0.84565255  -0.01817428  0.81945431  1
  In  In21  1  0.35544971  0.01038186  0.00685413  1
  In  In22  1  0.31992063  0.50815063  0.51350679  1
  In  In23  1  0.51146744  0.16193615  0.69976340  1
  In  In24  1  0.64469430  0.84376191  0.51086326  1
  In  In25  1  0.84141865  0.32365884  0.51091226  1
  In  In26  1  0.35382130  0.32753701  -0.00936433  1
  In  In27  1  0.34311570  0.14964400  0.17644989  1
  In  In28  1  0.30113396  0.00200844  0.36725789  1
  In  In29  1  0.36047065  0.51588177  0.15681248  1
  In  In30  1  0.03013300  -0.01091809  0.37825213  1
  In  In31  1  0.69676409  0.46685328  0.83274410  1
  In  In32  1  -0.00304155  0.67824484  -0.01062618  1
  In  In33  1  0.01396241  0.68649745  0.71136792  1
  In  In34  1  0.67440894  0.00790002  0.01729353  1
  In  In35  1  0.33943853  0.48958219  0.80130458  1
  In  In36  1  0.14362848  0.69826894  0.46140639  1
  In  In37  1  0.12840797  0.02926675  0.18562943  1
  In  In38  1  0.32731975  0.84603109  0.18312723  1
  In  In39  1  0.15268625  0.00156935  0.80954955  1
  In  In40  1  0.01612227  0.00650159  0.00826648  1
  In  In41  1  0.48229908  0.67934690  0.81755353  1
  In  In42  1  0.18097036  0.68584289  0.19620643  1
  In  In43  1  0.67329712  0.49241954  0.50619095  1
  In  In44  1  0.30409335  -0.04824667  0.58789513  1
  In  In45  1  0.15008022  0.49879380  0.66418628  1
  In  In46  1  0.52849205  0.52579920  -0.01518486  1
  In  In47  1  0.49937467  0.00554771  0.84099459  1
  In  In48  1  0.01254726  0.00088943  0.61079131  1
  In  In49  1  0.83802017  0.44793421  0.03368246  1
  In  In50  1  0.12165523  0.49488168  -0.00667005  1
  In  In51  1  0.51306900  0.68170745  0.17457772  1
  In  In52  1  0.67739529  0.67946545  0.31514066  1
  In  In53  1  0.66639188  0.00005281  0.66510102  1
  In  In54  1  0.66438793  0.65696046  0.64337905  1
  In  In55  1  0.84075136  0.67751364  0.16643228  1
  In  In56  1  0.68547266  0.67113062  0.00890134  1
  In  In57  1  0.51205594  -0.00744096  0.16176443  1
  In  In58  1  0.66489543  0.13918585  0.47925288  1
  In  In59  1  0.31637925  0.67544855  0.65511211  1
  In  In60  1  0.48931140  0.33232975  0.51213619  1
  In  In61  1  -0.00963068  0.16846757  0.81904914  1
  In  In62  1  0.69811494  0.31258569  0.33212766  1
  In  In63  1  0.15560506  0.50659183  0.32289793  1
  In  In64  1  0.83947528  0.66755426  0.82767834  1
  In  In65  1  0.31014571  0.86386238  0.82975216  1
  In  In66  1  0.83230124  0.65151544  0.49815810  1
  In  In67  1  -0.01188668  0.32797362  0.34830346  1
  In  In68  1  0.33548633  0.34350100  0.67369199  1
  In  In69  1  0.17695398  0.85260178  -0.00140280  1
  In  In70  1  0.00274954  0.84930772  0.19175162  1
  In  In71  1  0.16000365  0.16210099  0.00907900  1
  Te  Te72  1  0.04496821  0.12564993  0.10105437  1
  Te  Te73  1  0.11361613  0.09757935  0.44983578  1
  Te  Te74  1  0.07589607  0.09483199  0.71908407  1
  Te  Te75  1  0.08215946  0.38235958  0.08583491  1
  Te  Te76  1  0.09319925  0.41275655  0.42216905  1
  Te  Te77  1  0.07234431  0.40783243  0.75570162  1
  Te  Te78  1  0.09584887  0.76130122  0.09121963  1
  Te  Te79  1  0.02489519  0.75302076  0.38901038  1
  Te  Te80  1  0.12794231  0.77035856  0.73969209  1
  Te  Te81  1  0.44927626  0.10517169  0.07799756  1
  Te  Te82  1  0.39489521  0.09181367  0.43901842  1
  Te  Te83  1  0.39795025  0.06186257  0.74105044  1
  Te  Te84  1  0.44369384  0.41119362  0.08508428  1
  Te  Te85  1  0.41002969  0.42352592  0.41900162  1
  Te  Te86  1  0.43763900  0.37771766  0.78229683  1
  Te  Te87  1  0.40597032  0.75540160  0.08957285  1
  Te  Te88  1  0.39058159  0.79971939  0.42053017  1
  Te  Te89  1  0.39681713  0.77593166  0.73857823  1
  Te  Te90  1  0.78882856  0.08724053  0.08365067  1
  Te  Te91  1  0.76490503  0.08302793  0.38947464  1
  Te  Te92  1  0.75125542  0.08405870  0.75847554  1
  Te  Te93  1  0.72128350  0.36209722  0.07123791  1
  Te  Te94  1  0.76903896  0.41923479  0.41543273  1
  Te  Te95  1  0.75069738  0.36377408  0.74131538  1
  Te  Te96  1  0.75115100  0.77003837  0.09399248  1
  Te  Te97  1  0.74082819  0.75425091  0.43223742  1
  Te  Te98  1  0.73691352  0.76024125  0.73735350  1
  Te  Te99  1  0.08463366  0.24003597  0.27748257  1
  Te  Te100  1  0.06680721  0.22483336  0.53172372  1
  Te  Te101  1  0.08252034  0.24779419  0.91091648  1
  Te  Te102  1  0.06433557  0.60214424  0.24972390  1
  Te  Te103  1  0.08842136  0.60195715  0.57207635  1
  Te  Te104  1  0.07714278  0.59434596  0.89782614  1
  Te  Te105  1  0.11446770  0.90790557  0.27375692  1
  Te  Te106  1  0.07452705  0.88597433  0.53511362  1
  Te  Te107  1  0.07397102  0.91119879  0.90353607  1
  Te  Te108  1  0.40648094  0.26179759  0.25986909  1
  Te  Te109  1  0.41512465  0.23671377  0.60063223  1
  Te  Te110  1  0.43273872  0.22869270  0.91586457  1
  Te  Te111  1  0.41116394  0.60730370  0.26520921  1
  Te  Te112  1  0.42529068  0.57690909  0.59918102  1
  Te  Te113  1  0.40364677  0.58280502  0.91790270  1
  Te  Te114  1  0.40689114  0.94837339  0.26100377  1
  Te  Te115  1  0.43124874  0.90096046  0.52793129  1
  Te  Te116  1  0.42072763  0.90173082  0.92700247  1
  Te  Te117  1  0.80288614  0.24303216  0.25756927  1
  Te  Te118  1  0.73176708  0.23749936  0.57305505  1
  Te  Te119  1  0.71082887  0.27494018  0.86026132  1
  Te  Te120  1  0.75508294  0.58174596  0.24008284  1
  Te  Te121  1  0.76817518  0.55563701  0.60660085  1
  Te  Te122  1  0.76361246  0.57352479  0.92128451  1
  Te  Te123  1  0.74804621  0.89641611  0.24504199  1
  Te  Te124  1  0.75653497  0.93781836  0.56035803  1
  Te  Te125  1  0.75711940  0.91255443  0.92085357  1
  Te  Te126  1  0.26033828  0.24870820  0.08534157  1
  Te  Te127  1  0.23011257  0.21712260  0.47286915  1
  Te  Te128  1  0.23604276  0.23525687  0.72567237  1
  Te  Te129  1  0.22430608  0.56915862  0.09490806  1
  Te  Te130  1  0.24580317  0.59115139  0.41177817  1
  Te  Te131  1  0.23662487  0.58815215  0.75235026  1
  Te  Te132  1  0.24320120  0.95155401  0.09517315  1
  Te  Te133  1  0.21478193  0.92031943  0.46620966  1
  Te  Te134  1  0.21312077  0.89903856  0.71156910  1
  Te  Te135  1  0.60953351  0.24844477  0.07302211  1
  Te  Te136  1  0.57409558  0.25566764  0.41059749  1
  Te  Te137  1  0.61390306  0.25927028  0.73779787  1
  Te  Te138  1  0.60209257  0.58072037  0.10359822  1
  Te  Te139  1  0.57940188  0.58228044  0.42806050  1
  Te  Te140  1  0.59261067  0.58530235  0.76486378  1
  Te  Te141  1  0.58888296  0.90336862  0.07663808  1
  Te  Te142  1  0.56428651  0.93677566  0.42716099  1
  Te  Te143  1  0.56720281  0.91248347  0.73961678  1
  Te  Te144  1  0.90952709  0.31658874  0.07743915  1
  Te  Te145  1  0.92716700  0.22378500  0.44040218  1
  Te  Te146  1  0.90555041  0.26344474  0.73921015  1
  Te  Te147  1  0.92276886  0.57444558  0.07224245  1
  Te  Te148  1  0.90326235  0.57844429  0.39281603  1
  Te  Te149  1  0.92569194  0.57724934  0.75174459  1
  Te  Te150  1  0.92318258  0.91238212  0.08113395  1
  Te  Te151  1  0.94886476  0.87794885  0.44383242  1
  Te  Te152  1  0.94106553  0.91699465  0.72247217  1
  Te  Te153  1  0.23375572  0.10191386  0.26842837  1
  Te  Te154  1  0.22125747  0.07429933  0.56159426  1
  Te  Te155  1  0.24380959  0.07578103  0.91430371  1
  Te  Te156  1  0.27045427  0.42892436  0.25285234  1
  Te  Te157  1  0.23216319  0.40349255  0.57913576  1
  Te  Te158  1  0.25233204  0.42446225  0.92640745  1
  Te  Te159  1  0.26322520  0.76479589  0.28951631  1
  Te  Te160  1  0.26389542  0.75082281  0.53823391  1
  Te  Te161  1  0.24175651  0.74917141  0.90810994  1
  Te  Te162  1  0.59494504  0.09908096  0.24408282  1
  Te  Te163  1  0.56886492  0.08088338  0.58162267  1
  Te  Te164  1  0.60205559  0.08182622  0.91203344  1
  Te  Te165  1  0.60976811  0.41613159  0.25480706  1
  Te  Te166  1  0.59100856  0.40400369  0.59875554  1
  Te  Te167  1  0.58819101  0.41173501  0.91688118  1
  Te  Te168  1  0.57478497  0.77355785  0.27014876  1
  Te  Te169  1  0.55770360  0.75228948  0.59681142  1
  Te  Te170  1  0.57356131  0.73861892  0.92394409  1
  Te  Te171  1  0.95170056  0.05758776  0.27201888  1
  Te  Te172  1  0.90539463  0.08063908  0.54647631  1
  Te  Te173  1  0.91698600  0.07821337  0.91462297  1
  Te  Te174  1  0.90756454  0.41063281  0.25527654  1
  Te  Te175  1  0.93202528  0.42013214  0.58491801  1
  Te  Te176  1  0.91203124  0.38364216  0.92203043  1
  Te  Te177  1  0.91066522  0.76224828  0.27056426  1
  Te  Te178  1  0.92021299  0.72949120  0.59445841  1
  Te  Te179  1  0.91236028  0.76576746  0.90887818  1
