# generated using pymatgen
data_In2Te3
_symmetry_space_group_name_H-M   'P 1'
_cell_length_a   18.75697464
_cell_length_b   18.75841728
_cell_length_c   18.76325757
_cell_angle_alpha   90.02829407
_cell_angle_beta   90.01484926
_cell_angle_gamma   89.92941529
_symmetry_Int_Tables_number   1
_chemical_formula_structural   In2Te3
_chemical_formula_sum   'In72 Te108'
_cell_volume   6601.86785596
_cell_formula_units_Z   36
loop_
 _symmetry_equiv_pos_site_id
 _symmetry_equiv_pos_as_xyz
  1  'x, y, z'
loop_
 _atom_site_type_symbol
 _atom_site_label
 _atom_site_symmetry_multiplicity
 _atom_site_fract_x
 _atom_site_fract_y
 _atom_site_fract_z
 _atom_site_occupancy
  In  In0  1  0.01707509  0.81765689  0.52357691  1
  In  In1  1  0.31868108  0.32619671  0.00094759  1
  In  In2  1  0.46391776  -0.00427949  0.82010793  1
  In  In3  1  0.67108233  0.82527508  0.48430466  1
  In  In4  1  0.82872784  0.33564551  0.84144456  1
  In  In5  1  0.66003787  0.02230631  0.29273970  1
  In  In6  1  0.32683622  0.48552804  0.84664899  1
  In  In7  1  0.50548362  0.16436333  0.30793420  1
  In  In8  1  0.48158410  -0.02525625  0.50429596  1
  In  In9  1  0.83497831  0.81849623  0.33275484  1
  In  In10  1  0.50480924  0.50993707  0.66706357  1
  In  In11  1  -0.01424632  0.00201788  -0.02075931  1
  In  In12  1  0.66729737  0.16258471  0.86084197  1
  In  In13  1  0.85856075  0.15865177  0.65166573  1
  In  In14  1  0.02214906  0.33541119  0.35628801  1
  In  In15  1  0.50593293  0.50373394  0.00283690  1
  In  In16  1  -0.00845794  0.33848770  -0.00532835  1
  In  In17  1  0.16810919  0.17318331  0.67213362  1
  In  In18  1  0.68132125  0.36133578  0.32714349  1
  In  In19  1  0.83580518  0.65232327  0.83372075  1
  In  In20  1  0.19063379  0.64219275  0.47209755  1
  In  In21  1  0.64990424  0.82174435  0.85143868  1
  In  In22  1  0.17488607  0.00575153  0.16931511  1
  In  In23  1  0.01353881  0.67736836  0.31932153  1
  In  In24  1  0.17440579  0.84648308  0.01214884  1
  In  In25  1  0.33595235  0.67416990  0.68681839  1
  In  In26  1  0.51261577  0.32165278  0.16769599  1
  In  In27  1  0.00947441  0.48475736  0.49872954  1
  In  In28  1  0.86394926  0.82019703  0.69120095  1
  In  In29  1  -0.00262368  0.17709070  0.17883198  1
  In  In30  1  0.46507569  0.81880271  0.65625829  1
  In  In31  1  0.28630286  0.35080848  0.64861056  1
  In  In32  1  0.32196342  0.17026065  0.51326361  1
  In  In33  1  -0.00384572  0.65094137  0.66008830  1
  In  In34  1  0.48840074  0.66654202  0.48261900  1
  In  In35  1  0.04077871  0.36181826  0.66809050  1
  In  In36  1  0.84655216  0.19454628  0.32241533  1
  In  In37  1  0.65687246  0.51246452  0.84236366  1
  In  In38  1  0.47691070  0.14314066  0.69585547  1
  In  In39  1  0.17824568  0.14998864  -0.03091963  1
  In  In40  1  0.48152989  0.32398059  0.85734402  1
  In  In41  1  0.00495425  0.15669084  0.83021545  1
  In  In42  1  -0.00160644  0.84603436  0.82269870  1
  In  In43  1  0.33391709  0.34109189  0.34226015  1
  In  In44  1  0.66690875  0.33734592  0.66444501  1
  In  In45  1  0.01350090  0.82728360  0.16537833  1
  In  In46  1  0.01131968  0.52647659  0.17133075  1
  In  In47  1  0.79658167  0.79719922  0.02521232  1
  In  In48  1  0.33082604  0.66148933  0.00236582  1
  In  In49  1  0.47714436  0.35055894  0.49441466  1
  In  In50  1  0.86244181  0.01207827  0.50422031  1
  In  In51  1  0.16762432  0.65020995  0.84508244  1
  In  In52  1  0.84442725  0.49593903  0.33514608  1
  In  In53  1  0.00773143  0.65092967  -0.01030936  1
  In  In54  1  0.33065769  0.53113181  0.17461976  1
  In  In55  1  0.30605797  0.81960334  0.18584481  1
  In  In56  1  0.67370158  0.17679469  0.49476076  1
  In  In57  1  0.19105837  0.85699172  0.68409509  1
  In  In58  1  0.80995980  0.34292314  0.17205771  1
  In  In59  1  0.65399195  0.49042121  0.16444143  1
  In  In60  1  0.15937639  0.31996379  0.16097499  1
  In  In61  1  0.33812009  0.84700454  0.49997172  1
  In  In62  1  0.49646526  0.82583291  0.31762735  1
  In  In63  1  0.65971437  0.00280913  0.00640672  1
  In  In64  1  0.67147278  -0.00077243  0.66032024  1
  In  In65  1  0.32328671  -0.01479286  0.33179429  1
  In  In66  1  0.82073076  0.00480161  0.16066931  1
  In  In67  1  0.04237374  0.02074977  0.36189386  1
  In  In68  1  0.69672636  0.62450070  0.63792757  1
  In  In69  1  0.86633167  -0.00684067  0.83581945  1
  In  In70  1  0.50015694  0.82376512  0.00620634  1
  In  In71  1  0.65156092  0.65375379  0.32284399  1
  Te  Te72  1  0.07275349  0.08658849  0.07824088  1
  Te  Te73  1  0.07617659  0.12808197  0.45826725  1
  Te  Te74  1  0.09256578  0.06956165  0.75174501  1
  Te  Te75  1  0.08520205  0.42569719  0.07986183  1
  Te  Te76  1  0.12538180  0.42828113  0.41741657  1
  Te  Te77  1  0.09824315  0.44385233  0.77656360  1
  Te  Te78  1  0.10169048  0.73210877  0.08391651  1
  Te  Te79  1  0.10476164  0.75576214  0.41397047  1
  Te  Te80  1  0.08830348  0.74825087  0.74523040  1
  Te  Te81  1  0.46399051  0.14014238  0.08187006  1
  Te  Te82  1  0.42409144  0.08865593  0.41611113  1
  Te  Te83  1  0.35498772  0.08822486  0.76464643  1
  Te  Te84  1  0.41127603  0.41724880  0.08624115  1
  Te  Te85  1  0.39887916  0.45394515  0.41925992  1
  Te  Te86  1  0.41914602  0.40816445  0.74279346  1
  Te  Te87  1  0.40908613  0.73986095  0.10563804  1
  Te  Te88  1  0.38886864  0.74924902  0.39260145  1
  Te  Te89  1  0.41756749  0.75522298  0.77946530  1
  Te  Te90  1  0.74829879  0.10021900  0.07625807  1
  Te  Te91  1  0.75537892  0.07655281  0.41152545  1
  Te  Te92  1  0.75765108  0.08956162  0.74841998  1
  Te  Te93  1  0.74205804  0.42071546  0.06709351  1
  Te  Te94  1  0.76067980  0.42486377  0.43767608  1
  Te  Te95  1  0.74922104  0.43191875  0.75029882  1
  Te  Te96  1  0.69484642  0.72570202  0.10305519  1
  Te  Te97  1  0.75650993  0.71883335  0.41838424  1
  Te  Te98  1  0.74259454  0.74845682  0.74530914  1
  Te  Te99  1  0.10202443  0.23180464  0.27358833  1
  Te  Te100  1  0.08919879  0.25693461  0.57259008  1
  Te  Te101  1  0.09048415  0.25737244  0.90702072  1
  Te  Te102  1  0.12146676  0.59373671  0.25426498  1
  Te  Te103  1  0.10428734  0.57600207  0.58200620  1
  Te  Te104  1  0.06500318  0.54894001  0.89147071  1
  Te  Te105  1  0.09458530  0.91380139  0.26066988  1
  Te  Te106  1  0.10945509  0.92095569  0.57640967  1
  Te  Te107  1  0.09680097  0.92826703  0.90665347  1
  Te  Te108  1  0.39750907  0.24665030  0.23800930  1
  Te  Te109  1  0.41983129  0.25540353  0.59920510  1
  Te  Te110  1  0.39770314  0.22359668  0.92532440  1
  Te  Te111  1  0.40351024  0.60962122  0.27619732  1
  Te  Te112  1  0.40296060  0.58407078  0.58106956  1
  Te  Te113  1  0.42435385  0.58703006  0.90402522  1
  Te  Te114  1  0.41990879  0.92506657  0.23212771  1
  Te  Te115  1  0.38346345  0.94142191  0.61407571  1
  Te  Te116  1  0.40789302  0.91656325  0.93316969  1
  Te  Te117  1  0.72304744  0.23833361  0.24487214  1
  Te  Te118  1  0.76899922  0.26149452  0.57776590  1
  Te  Te119  1  0.74243057  0.26240912  0.93883787  1
  Te  Te120  1  0.75778929  0.57722015  0.24128853  1
  Te  Te121  1  0.77985275  0.52674064  0.56752404  1
  Te  Te122  1  0.74447501  0.59149374  0.93247262  1
  Te  Te123  1  0.74231990  0.90197630  0.24257037  1
  Te  Te124  1  0.76303991  0.90955230  0.57668653  1
  Te  Te125  1  0.75834046  0.91508494  0.91195322  1
  Te  Te126  1  0.24713572  0.21842532  0.08645423  1
  Te  Te127  1  0.24183676  0.25977794  0.42662043  1
  Te  Te128  1  0.24952296  0.26385454  0.75933302  1
  Te  Te129  1  0.23836719  0.56448231  0.06378259  1
  Te  Te130  1  0.29343780  0.57726243  0.37994823  1
  Te  Te131  1  0.24465651  0.56486460  0.74249819  1
  Te  Te132  1  0.27761993  0.93588512  0.08126595  1
  Te  Te133  1  0.23127044  0.92460467  0.43006006  1
  Te  Te134  1  0.26096470  0.93265906  0.78946933  1
  Te  Te135  1  0.57408061  0.23632745  0.06431472  1
  Te  Te136  1  0.57661435  0.26220286  0.41133435  1
  Te  Te137  1  0.58372430  0.24518113  0.75470065  1
  Te  Te138  1  0.57195033  0.59768968  0.09838088  1
  Te  Te139  1  0.58321756  0.56952832  0.42296687  1
  Te  Te140  1  0.58640871  0.60940521  0.74655501  1
  Te  Te141  1  0.58291048  0.91239002  0.09410374  1
  Te  Te142  1  0.58809927  0.92702135  0.40234940  1
  Te  Te143  1  0.57880141  0.91275652  0.74410485  1
  Te  Te144  1  0.90381394  0.25208127  0.08779732  1
  Te  Te145  1  0.91467637  0.26441378  0.43130881  1
  Te  Te146  1  0.92726122  0.26133194  0.74485848  1
  Te  Te147  1  0.91058398  0.58594258  0.08073518  1
  Te  Te148  1  0.93414516  0.58949763  0.41560515  1
  Te  Te149  1  0.91787990  0.56292908  0.74913258  1
  Te  Te150  1  0.91374726  0.90843868  0.07717375  1
  Te  Te151  1  0.93176342  0.90597750  0.41556797  1
  Te  Te152  1  0.94777428  0.94436539  0.71528569  1
  Te  Te153  1  0.25009398  0.09308581  0.26157456  1
  Te  Te154  1  0.23822300  0.07168582  0.58388227  1
  Te  Te155  1  0.25942025  0.05082074  0.89526938  1
  Te  Te156  1  0.24692867  0.41637078  0.23933584  1
  Te  Te157  1  0.21617660  0.43080282  0.54840435  1
  Te  Te158  1  0.22417014  0.40425129  0.91463623  1
  Te  Te159  1  0.20685365  0.72623972  0.24044446  1
  Te  Te160  1  0.24725340  0.74540534  0.58197126  1
  Te  Te161  1  0.25192554  0.75781912  0.91204936  1
  Te  Te162  1  0.55956684  0.07915475  0.19278912  1
  Te  Te163  1  0.57846902  0.09133379  0.58117628  1
  Te  Te164  1  0.55760369  0.07446654  0.91764237  1
  Te  Te165  1  0.55844482  0.42949884  0.26767816  1
  Te  Te166  1  0.58808607  0.42712867  0.56918141  1
  Te  Te167  1  0.59167297  0.40149300  0.92836844  1
  Te  Te168  1  0.59338780  0.75566552  0.22660146  1
  Te  Te169  1  0.58086418  0.74930350  0.58207780  1
  Te  Te170  1  0.58768056  0.72114463  0.93911645  1
  Te  Te171  1  0.92255731  0.06698801  0.26142034  1
  Te  Te172  1  0.97015775  0.09521888  0.57010477  1
  Te  Te173  1  0.89458782  0.11236514  0.92774381  1
  Te  Te174  1  0.93574889  0.40580861  0.24527894  1
  Te  Te175  1  0.91952428  0.42821836  0.60419188  1
  Te  Te176  1  0.90190529  0.43402355  0.92630955  1
  Te  Te177  1  0.90662276  0.73549346  0.22573420  1
  Te  Te178  1  0.89895494  0.73159446  0.57231590  1
  Te  Te179  1  0.91785493  0.76111896  0.92059935  1
