# generated using pymatgen
data_In2Te3
_symmetry_space_group_name_H-M   'P 1'
_cell_length_a   18.88608818
_cell_length_b   18.89063887
_cell_length_c   18.89318413
_cell_angle_alpha   89.84357993
_cell_angle_beta   90.00631483
_cell_angle_gamma   89.97325728
_symmetry_Int_Tables_number   1
_chemical_formula_structural   In2Te3
_chemical_formula_sum   'In72 Te108'
_cell_volume   6740.50053789
_cell_formula_units_Z   36
loop_
 _symmetry_equiv_pos_site_id
 _symmetry_equiv_pos_as_xyz
  1  'x, y, z'
loop_
 _atom_site_type_symbol
 _atom_site_label
 _atom_site_symmetry_multiplicity
 _atom_site_fract_x
 _atom_site_fract_y
 _atom_site_fract_z
 _atom_site_occupancy
  In  In0  1  0.20016202  0.82909451  -0.03490147  1
  In  In1  1  0.80808634  0.35671236  0.12320637  1
  In  In2  1  0.48731485  0.17637681  0.35478300  1
  In  In3  1  0.83434910  0.52440538  0.28613385  1
  In  In4  1  0.34976334  0.15602761  0.50957019  1
  In  In5  1  0.15290155  0.49665652  0.02068173  1
  In  In6  1  0.50451643  0.15698053  0.00153098  1
  In  In7  1  0.00384110  0.83277597  0.51377949  1
  In  In8  1  0.48221509  0.32152498  0.47493223  1
  In  In9  1  0.01794782  0.00301740  0.68158353  1
  In  In10  1  0.83709184  0.18260292  0.29784333  1
  In  In11  1  0.67288680  0.82890105  0.83195114  1
  In  In12  1  0.18176341  0.67111477  0.51425325  1
  In  In13  1  0.62848862  0.14590012  0.48487973  1
  In  In14  1  0.68888822  0.51613068  0.84973703  1
  In  In15  1  0.49798809  0.47501132  0.65477815  1
  In  In16  1  0.15060515  0.34799017  0.49241933  1
  In  In17  1  -0.01547884  0.17550184  0.49621586  1
  In  In18  1  0.82073235  0.31847158  0.49459980  1
  In  In19  1  -0.01009266  0.32424379  0.68221786  1
  In  In20  1  0.15143987  0.52022775  0.30843748  1
  In  In21  1  0.52289092  -0.02359565  0.14491769  1
  In  In22  1  0.52043463  0.65026735  0.85399748  1
  In  In23  1  0.16533872  -0.02938492  0.17103576  1
  In  In24  1  0.80506820  -0.01169032  0.51685306  1
  In  In25  1  -0.00663785  0.82123506  0.16647380  1
  In  In26  1  0.50246259  0.83602391  0.34943744  1
  In  In27  1  0.18066914  0.50181643  0.65029172  1
  In  In28  1  0.02214630  0.66334335  0.69070897  1
  In  In29  1  0.67892900  0.66671653  0.30889288  1
  In  In30  1  0.00490215  0.50349744  0.86841662  1
  In  In31  1  0.67767019  0.17504559  0.15980567  1
  In  In32  1  0.20426303  0.00229247  0.83601366  1
  In  In33  1  0.83852597  0.18628346  0.69309063  1
  In  In34  1  0.01191317  0.84108710  0.83164910  1
  In  In35  1  0.48329636  0.67336100  0.49120380  1
  In  In36  1  0.65543944  0.15872863  0.84642340  1
  In  In37  1  0.01032402  0.67784376  0.32307483  1
  In  In38  1  0.84117522  0.79122579  0.00006802  1
  In  In39  1  0.64239954  0.32204892  0.67477749  1
  In  In40  1  0.52969938  0.35823634  0.17566780  1
  In  In41  1  0.31673266  0.32314223  0.00066941  1
  In  In42  1  0.31469949  0.47953633  0.48451909  1
  In  In43  1  0.85040392  0.49576356  0.66725195  1
  In  In44  1  0.35622693  0.68461506  0.30762368  1
  In  In45  1  0.34269625  0.53057651  0.84686373  1
  In  In46  1  0.18173901  0.14519632  0.68913357  1
  In  In47  1  0.51125108  0.34942981  0.84518426  1
  In  In48  1  0.84192951  0.83047422  0.34421451  1
  In  In49  1  0.47866405  -0.02730913  0.51729322  1
  In  In50  1  0.48543492  0.81534156  0.69791189  1
  In  In51  1  0.16347602  0.31315947  0.82619769  1
  In  In52  1  0.67240527  0.69608219  0.68842393  1
  In  In53  1  0.83633869  0.37377727  0.87543457  1
  In  In54  1  0.35488170  0.80377307  0.15539753  1
  In  In55  1  0.00986230  0.17910519  0.16691165  1
  In  In56  1  0.65046996  -0.02326989  0.66146648  1
  In  In57  1  0.67114918  0.00576551  0.31952950  1
  In  In58  1  0.65715532  0.84416908  0.13120319  1
  In  In59  1  0.15601715  0.16722637  -0.00990614  1
  In  In60  1  0.31142888  0.16293452  0.15114943  1
  In  In61  1  0.34934468  0.67478924  0.69405242  1
  In  In62  1  0.35036674  0.52384016  0.15572145  1
  In  In63  1  0.17795164  0.66913824  0.15417124  1
  In  In64  1  0.15236470  0.15747050  0.32658414  1
  In  In65  1  0.31539317  0.33731185  0.32336996  1
  In  In66  1  0.84623625  -0.00584656  0.83965198  1
  In  In67  1  0.19016025  -0.02735146  0.48274308  1
  In  In68  1  0.84386785  0.67584160  0.48093467  1
  In  In69  1  0.84612446  0.01890441  0.15169237  1
  In  In70  1  0.80584875  0.15359439  -0.01364187  1
  In  In71  1  0.68824938  0.52109311  0.47679463  1
  Te  Te72  1  0.08592139  0.07344667  0.08798597  1
  Te  Te73  1  0.08358839  0.07795578  0.43628818  1
  Te  Te74  1  0.07476318  0.09587066  0.78203251  1
  Te  Te75  1  0.03899977  0.43786358  0.09456826  1
  Te  Te76  1  0.07600602  0.42663607  0.39444683  1
  Te  Te77  1  0.07878550  0.42981299  0.74618106  1
  Te  Te78  1  0.10096397  0.77031544  0.07237566  1
  Te  Te79  1  0.09582216  0.75702938  0.41956129  1
  Te  Te80  1  0.10929800  0.76656756  0.74760506  1
  Te  Te81  1  0.41328155  0.07090170  0.08710724  1
  Te  Te82  1  0.40852947  0.05796266  0.40982944  1
  Te  Te83  1  0.35058632  0.04849556  0.77693363  1
  Te  Te84  1  0.41549659  0.40324522  0.08746219  1
  Te  Te85  1  0.42078501  0.42966227  0.38760381  1
  Te  Te86  1  0.40497168  0.41976463  0.75959142  1
  Te  Te87  1  0.44426685  0.74814592  0.05023273  1
  Te  Te88  1  0.38406374  0.77730456  0.43581012  1
  Te  Te89  1  0.40954823  0.75398335  0.82195034  1
  Te  Te90  1  0.72132543  0.05890663  0.07385507  1
  Te  Te91  1  0.76108916  0.09729491  0.40757169  1
  Te  Te92  1  0.74410475  0.07605555  0.74550209  1
  Te  Te93  1  0.72381431  0.45607347  0.04729368  1
  Te  Te94  1  0.77751741  0.42991465  0.39867599  1
  Te  Te95  1  0.74928787  0.40683022  0.74339535  1
  Te  Te96  1  0.73467350  0.72547285  0.08552866  1
  Te  Te97  1  0.73122834  0.75780223  0.42040872  1
  Te  Te98  1  0.77336820  0.72787670  0.78784037  1
  Te  Te99  1  0.08537924  0.26756127  0.25765986  1
  Te  Te100  1  0.08364879  0.24191431  0.59529934  1
  Te  Te101  1  0.07262740  0.27511079  0.93410704  1
  Te  Te102  1  0.05921504  0.59040968  0.20816172  1
  Te  Te103  1  0.07618197  0.57739878  0.57117475  1
  Te  Te104  1  0.08973540  0.60280022  0.93712080  1
  Te  Te105  1  0.06778920  0.90675730  0.26047924  1
  Te  Te106  1  0.10302647  0.91190808  0.59715627  1
  Te  Te107  1  0.09467216  0.93050720  0.92063505  1
  Te  Te108  1  0.41045848  0.24901145  0.24121600  1
  Te  Te109  1  0.42825585  0.25042142  0.59041382  1
  Te  Te110  1  0.41823113  0.24968261  0.91533248  1
  Te  Te111  1  0.45545303  0.59887585  0.23422153  1
  Te  Te112  1  0.40202093  0.57285898  0.58077920  1
  Te  Te113  1  0.45230242  0.55183238  0.94682723  1
  Te  Te114  1  0.42560530  0.91255836  0.24226297  1
  Te  Te115  1  0.39343002  0.89873720  0.61425753  1
  Te  Te116  1  0.34764601  0.94930399  0.89034336  1
  Te  Te117  1  0.73958461  0.28472170  0.24341021  1
  Te  Te118  1  0.73334481  0.22993733  0.58482367  1
  Te  Te119  1  0.73141685  0.26747447  0.91831391  1
  Te  Te120  1  0.70803899  0.55675027  0.20576440  1
  Te  Te121  1  0.75746651  0.59269776  0.59252995  1
  Te  Te122  1  0.79172088  0.55734888  0.95365342  1
  Te  Te123  1  0.76155801  0.91415449  0.23947522  1
  Te  Te124  1  0.74726689  0.88391812  0.60117941  1
  Te  Te125  1  0.76152828  0.90711280  0.92838898  1
  Te  Te126  1  0.21510594  0.26604335  0.09717391  1
  Te  Te127  1  0.25028077  0.24317452  0.42592035  1
  Te  Te128  1  0.27016844  0.23796537  0.76088503  1
  Te  Te129  1  0.26722172  0.60084327  0.05448057  1
  Te  Te130  1  0.26028659  0.59308203  0.39758262  1
  Te  Te131  1  0.23504118  0.59268923  0.75817983  1
  Te  Te132  1  0.26878982  0.90665885  0.07920337  1
  Te  Te133  1  0.27054683  0.88180171  0.40438969  1
  Te  Te134  1  0.28543986  0.91078349  0.74640944  1
  Te  Te135  1  0.58881539  0.26296263  0.07355984  1
  Te  Te136  1  0.60258782  0.26814284  0.39812679  1
  Te  Te137  1  0.55532982  0.22983097  0.75546301  1
  Te  Te138  1  0.50745140  0.61602504  0.08754416  1
  Te  Te139  1  0.57657311  0.59358383  0.40288178  1
  Te  Te140  1  0.58684766  0.56774089  0.73558017  1
  Te  Te141  1  0.54433583  0.87751792  0.03558852  1
  Te  Te142  1  0.59728043  0.92754246  0.42631446  1
  Te  Te143  1  0.56381541  0.92168703  0.77363222  1
  Te  Te144  1  0.89420168  0.23384184  0.08534598  1
  Te  Te145  1  0.92345741  0.26681482  0.39197287  1
  Te  Te146  1  0.91432574  0.26226634  0.79837128  1
  Te  Te147  1  0.88960769  0.65009405  0.04122034  1
  Te  Te148  1  0.92552864  0.57834308  0.40230585  1
  Te  Te149  1  0.91696178  0.58319094  0.76975042  1
  Te  Te150  1  0.91456941  0.91184064  0.07254240  1
  Te  Te151  1  0.91738946  0.92865322  0.43195517  1
  Te  Te152  1  0.91177466  0.90722300  0.73446949  1
  Te  Te153  1  0.25180296  0.06919843  0.25521949  1
  Te  Te154  1  0.25870075  0.06358615  0.58695316  1
  Te  Te155  1  0.27433520  0.10131028  0.92838497  1
  Te  Te156  1  0.24638749  0.43406141  0.22772184  1
  Te  Te157  1  0.26116948  0.38691528  0.59247444  1
  Te  Te158  1  0.24406906  0.42480024  0.91124759  1
  Te  Te159  1  0.23988915  0.76497031  0.25431566  1
  Te  Te160  1  0.24822993  0.75224370  0.61737402  1
  Te  Te161  1  0.28368888  0.72251289  0.90713523  1
  Te  Te162  1  0.57293313  0.09667175  0.24749449  1
  Te  Te163  1  0.55418539  0.07873677  0.59879806  1
  Te  Te164  1  0.57498426  0.05887923  0.91753829  1
  Te  Te165  1  0.60800321  0.44933808  0.25638612  1
  Te  Te166  1  0.59978377  0.41738187  0.55677914  1
  Te  Te167  1  0.59263521  0.43748305  0.93488268  1
  Te  Te168  1  0.58402493  0.76661600  0.24289265  1
  Te  Te169  1  0.57120728  0.75205963  0.58793119  1
  Te  Te170  1  0.62352973  0.72460414  0.92800836  1
  Te  Te171  1  0.93602486  0.07468623  0.25953499  1
  Te  Te172  1  0.91041809  0.08446681  0.59559861  1
  Te  Te173  1  0.92056594  0.08425220  0.92697448  1
  Te  Te174  1  0.91317606  0.42598733  0.20687928  1
  Te  Te175  1  0.92327851  0.40456022  0.57052931  1
  Te  Te176  1  0.93898885  0.42065044  0.97745288  1
  Te  Te177  1  0.89202983  0.73225604  0.24223238  1
  Te  Te178  1  0.92068023  0.73670284  0.59598959  1
  Te  Te179  1  0.95999449  0.72944346  0.92315025  1
