# generated using pymatgen
data_In2Te3
_symmetry_space_group_name_H-M   'P 1'
_cell_length_a   18.89560253
_cell_length_b   18.89419082
_cell_length_c   18.87623036
_cell_angle_alpha   90.02857102
_cell_angle_beta   90.17942430
_cell_angle_gamma   89.94195928
_symmetry_Int_Tables_number   1
_chemical_formula_structural   In2Te3
_chemical_formula_sum   'In72 Te108'
_cell_volume   6739.10006818
_cell_formula_units_Z   36
loop_
 _symmetry_equiv_pos_site_id
 _symmetry_equiv_pos_as_xyz
  1  'x, y, z'
loop_
 _atom_site_type_symbol
 _atom_site_label
 _atom_site_symmetry_multiplicity
 _atom_site_fract_x
 _atom_site_fract_y
 _atom_site_fract_z
 _atom_site_occupancy
  In  In0  1  0.65612288  0.66855056  -0.00897771  1
  In  In1  1  0.84181657  0.64608742  0.16455787  1
  In  In2  1  0.85278964  0.83777614  -0.02232274  1
  In  In3  1  0.51221090  0.83718061  -0.02970460  1
  In  In4  1  -0.01011426  0.19132716  0.84836854  1
  In  In5  1  0.01093137  0.17317451  0.16470049  1
  In  In6  1  0.48680500  0.05176621  0.50825757  1
  In  In7  1  0.02441570  0.64264969  0.30887352  1
  In  In8  1  -0.02320844  0.16854472  0.49789218  1
  In  In9  1  0.17040567  0.80378128  0.65577573  1
  In  In10  1  0.63896732  0.36683588  0.64542761  1
  In  In11  1  0.18164217  0.20970534  0.69450236  1
  In  In12  1  0.45726253  0.66897083  0.18248607  1
  In  In13  1  0.01281942  0.79731811  0.84220122  1
  In  In14  1  0.83450037  0.48726912  0.30708708  1
  In  In15  1  0.14247044  0.35423780  0.45873447  1
  In  In16  1  0.48007128  0.17604594  0.32876384  1
  In  In17  1  0.15366687  0.51461414  -0.00834031  1
  In  In18  1  0.31313054  0.34456345  0.01466902  1
  In  In19  1  0.16646833  -0.00309518  0.52503428  1
  In  In20  1  0.49191314  0.65675655  0.82015028  1
  In  In21  1  0.14635600  0.51425326  0.64670674  1
  In  In22  1  0.00311949  0.35953070  0.64126888  1
  In  In23  1  0.16498558  -0.01399975  0.84883193  1
  In  In24  1  0.00827949  0.33054135  -0.02034368  1
  In  In25  1  0.68347509  0.62091811  0.63948333  1
  In  In26  1  0.32706399  0.49803225  0.19362814  1
  In  In27  1  0.51362643  0.03420613  0.17501724  1
  In  In28  1  0.33258336  0.64840724  -0.00280597  1
  In  In29  1  0.83898942  0.33810090  0.84650867  1
  In  In30  1  0.67394931  0.81508878  0.51335837  1
  In  In31  1  0.64325443  0.16728089  0.47793376  1
  In  In32  1  0.52506846  0.03424014  0.83372517  1
  In  In33  1  0.67958051  0.48605595  0.82853046  1
  In  In34  1  0.65241756  0.32492871  0.32825462  1
  In  In35  1  0.34209753  0.00912626  0.67043231  1
  In  In36  1  0.15006022  0.81592789  0.34218397  1
  In  In37  1  0.83196459  0.35278730  0.50139708  1
  In  In38  1  0.85932247  0.50409809  0.02157753  1
  In  In39  1  0.82694542  -0.02834568  0.49105661  1
  In  In40  1  -0.02508466  0.65240863  0.62583728  1
  In  In41  1  0.32478650  0.19547085  0.83417953  1
  In  In42  1  0.15722942  0.80064573  0.01533263  1
  In  In43  1  0.67867713  0.01112070  0.00190699  1
  In  In44  1  -0.00204123  0.83617134  0.16199605  1
  In  In45  1  0.65374073  0.01195053  0.65811356  1
  In  In46  1  0.84508019  0.67165778  0.81439925  1
  In  In47  1  0.51876094  0.31235829  0.14903831  1
  In  In48  1  0.30817746  0.82989438  0.17854669  1
  In  In49  1  0.50515452  0.50500600  -0.02083793  1
  In  In50  1  0.49874156  0.36493311  0.82136957  1
  In  In51  1  0.01820959  -0.02528611  0.69494611  1
  In  In52  1  0.67172237  0.48951035  0.16380190  1
  In  In53  1  0.82324404  0.14797669  0.66369858  1
  In  In54  1  0.67434207  0.83413457  0.17766989  1
  In  In55  1  0.21672348  0.16173646  0.33945313  1
  In  In56  1  0.83841028  0.00179982  0.82814032  1
  In  In57  1  0.35586995  0.00592245  0.02461582  1
  In  In58  1  0.63856220  -0.00715753  0.30599649  1
  In  In59  1  0.31305726  0.65827637  0.68554092  1
  In  In60  1  -0.00226707  0.00192018  0.33655602  1
  In  In61  1  0.30703765  0.51549492  0.48577272  1
  In  In62  1  0.33476543  0.83952389  0.51428092  1
  In  In63  1  0.81818677  0.19699158  0.32974453  1
  In  In64  1  0.47845928  0.63444111  0.51887690  1
  In  In65  1  0.33131768  0.80850733  0.84799881  1
  In  In66  1  0.82878787  0.16224213  0.00619537  1
  In  In67  1  0.15435219  0.17971962  0.00482663  1
  In  In68  1  0.17277051  0.33157015  0.18725990  1
  In  In69  1  0.48654603  0.85547802  0.34176670  1
  In  In70  1  0.66804014  0.68576246  0.37961083  1
  In  In71  1  0.80433498  0.81682086  0.35629147  1
  Te  Te72  1  0.08451183  0.07729935  0.08143098  1
  Te  Te73  1  0.09129132  0.08771860  0.42494964  1
  Te  Te74  1  0.09449895  0.09136537  0.75671437  1
  Te  Te75  1  0.09215782  0.40578943  0.08223507  1
  Te  Te76  1  0.04322320  0.44271984  0.38649266  1
  Te  Te77  1  0.07981378  0.42543776  0.74700932  1
  Te  Te78  1  0.09570247  0.73108612  0.12873027  1
  Te  Te79  1  0.07224191  0.72202373  0.42777407  1
  Te  Te80  1  0.07604200  0.71633687  0.73303343  1
  Te  Te81  1  0.41946679  0.11700480  0.09574130  1
  Te  Te82  1  0.38527936  0.06488344  0.38939402  1
  Te  Te83  1  0.42192929  0.11021647  0.75061917  1
  Te  Te84  1  0.41902292  0.43498021  0.08322511  1
  Te  Te85  1  0.43099569  0.43994087  0.45940821  1
  Te  Te86  1  0.41546402  0.42067067  0.71300013  1
  Te  Te87  1  0.40935525  0.76419666  0.06427856  1
  Te  Te88  1  0.42413386  0.74963603  0.42798324  1
  Te  Te89  1  0.41808787  0.76083585  0.73540287  1
  Te  Te90  1  0.76071742  0.07554766  0.10440691  1
  Te  Te91  1  0.75594391  0.08125369  0.41644086  1
  Te  Te92  1  0.73146961  0.09281891  0.76990990  1
  Te  Te93  1  0.76400653  0.40906131  0.08368520  1
  Te  Te94  1  0.73786011  0.42503618  0.40602152  1
  Te  Te95  1  0.76430821  0.40505104  0.73194458  1
  Te  Te96  1  0.75287300  0.75131426  0.07609942  1
  Te  Te97  1  0.79331265  0.71388608  0.47490216  1
  Te  Te98  1  0.74530986  0.72860196  0.72291953  1
  Te  Te99  1  0.09628666  0.23382674  0.27456712  1
  Te  Te100  1  0.08529652  0.24668411  0.57407425  1
  Te  Te101  1  0.11413715  0.26897007  0.88792237  1
  Te  Te102  1  0.12760563  0.53389681  0.28800706  1
  Te  Te103  1  0.08404306  0.59740244  0.53901261  1
  Te  Te104  1  0.06220602  0.61590946  0.93907575  1
  Te  Te105  1  0.09279122  0.92320605  0.24874681  1
  Te  Te106  1  0.07170799  0.89146830  0.57924814  1
  Te  Te107  1  0.07253091  0.90364209  0.93379686  1
  Te  Te108  1  0.41366294  0.27910021  0.24686782  1
  Te  Te109  1  0.38896251  0.16572643  0.50812551  1
  Te  Te110  1  0.41530317  0.27950167  0.92078042  1
  Te  Te111  1  0.41765271  0.57341259  0.28521147  1
  Te  Te112  1  0.40373824  0.55018733  0.62582800  1
  Te  Te113  1  0.39630834  0.56157202  0.88865429  1
  Te  Te114  1  0.40935880  0.93001960  0.23461825  1
  Te  Te115  1  0.43648713  0.92733140  0.58530946  1
  Te  Te116  1  0.41101986  0.92930503  0.89810465  1
  Te  Te117  1  0.75877236  0.28879987  0.23067501  1
  Te  Te118  1  0.75133981  0.23985453  0.56547964  1
  Te  Te119  1  0.75265882  0.23529217  0.90222484  1
  Te  Te120  1  0.72843889  0.60410726  0.25691212  1
  Te  Te121  1  0.76813157  0.51447589  0.58035914  1
  Te  Te122  1  0.75819562  0.58116628  0.92112231  1
  Te  Te123  1  0.76555157  0.92682247  0.25555158  1
  Te  Te124  1  0.75372201  0.90969616  0.60742903  1
  Te  Te125  1  0.74080978  0.91137473  0.90497840  1
  Te  Te126  1  0.25641224  0.23399226  0.10288750  1
  Te  Te127  1  0.26632348  0.27370602  0.42321131  1
  Te  Te128  1  0.30191129  0.29354018  0.72183673  1
  Te  Te129  1  0.24404787  0.58632699  0.10115052  1
  Te  Te130  1  0.24408497  0.59076398  0.37405724  1
  Te  Te131  1  0.22237524  0.57261044  0.76162038  1
  Te  Te132  1  0.24285608  0.91809332  0.07345075  1
  Te  Te133  1  0.24153580  0.91515403  0.42193210  1
  Te  Te134  1  0.24450109  0.90910815  0.74223609  1
  Te  Te135  1  0.59239895  0.22878550  0.05698251  1
  Te  Te136  1  0.54837843  0.27277060  0.42880826  1
  Te  Te137  1  0.58490625  0.27331623  0.74404757  1
  Te  Te138  1  0.56619044  0.59925867  0.09051659  1
  Te  Te139  1  0.58710706  0.57277527  0.43469986  1
  Te  Te140  1  0.58257039  0.56330117  0.74225391  1
  Te  Te141  1  0.57585457  0.91419884  0.08590864  1
  Te  Te142  1  0.59334826  0.92224471  0.43060140  1
  Te  Te143  1  0.57653863  0.92615498  0.74951385  1
  Te  Te144  1  0.91998096  0.26131123  0.08059632  1
  Te  Te145  1  0.92449346  0.27572521  0.40566750  1
  Te  Te146  1  0.92221531  0.24838333  0.72487808  1
  Te  Te147  1  0.95134126  0.55056049  0.13062509  1
  Te  Te148  1  0.91990077  0.57622397  0.39138835  1
  Te  Te149  1  0.92638377  0.57445192  0.74244854  1
  Te  Te150  1  0.90192723  0.92011042  0.08802492  1
  Te  Te151  1  0.92958780  0.89197507  0.41481199  1
  Te  Te152  1  0.91546916  0.88778358  0.76174969  1
  Te  Te153  1  0.29398323  0.06627845  0.25960928  1
  Te  Te154  1  0.24630474  0.10402725  0.59750616  1
  Te  Te155  1  0.25815272  0.08348768  0.91969921  1
  Te  Te156  1  0.27025124  0.39205242  0.28295212  1
  Te  Te157  1  0.23107475  0.41376153  0.56814587  1
  Te  Te158  1  0.24304581  0.42603794  0.91440482  1
  Te  Te159  1  0.26385560  0.73586868  0.28403147  1
  Te  Te160  1  0.25132058  0.72043532  0.55900537  1
  Te  Te161  1  0.22699702  0.71920201  0.90666137  1
  Te  Te162  1  0.60642701  0.12850249  0.25175362  1
  Te  Te163  1  0.57355318  0.12962952  0.60783383  1
  Te  Te164  1  0.57295662  0.10971031  0.95523730  1
  Te  Te165  1  0.56747777  0.42430023  0.24914105  1
  Te  Te166  1  0.56396494  0.43922805  0.54128313  1
  Te  Te167  1  0.60702602  0.40527265  0.93396703  1
  Te  Te168  1  0.56839300  0.75667402  0.25410640  1
  Te  Te169  1  0.57845300  0.72922437  0.59087675  1
  Te  Te170  1  0.59782807  0.75158377  0.87868532  1
  Te  Te171  1  0.91395930  0.09873878  0.25727978  1
  Te  Te172  1  0.92573170  0.05593672  0.59101946  1
  Te  Te173  1  0.93137081  0.07555820  0.92300322  1
  Te  Te174  1  0.96011423  0.43051077  0.25291914  1
  Te  Te175  1  0.91471893  0.45875523  0.56952642  1
  Te  Te176  1  0.93405332  0.44013714  0.90442345  1
  Te  Te177  1  0.90406407  0.74983579  0.25796366  1
  Te  Te178  1  0.88981499  0.76359369  0.58241518  1
  Te  Te179  1  0.93947229  0.71265739  0.94973399  1
