# generated using pymatgen
data_In2Te3
_symmetry_space_group_name_H-M   'P 1'
_cell_length_a   18.75960465
_cell_length_b   18.75351446
_cell_length_c   18.75890394
_cell_angle_alpha   90.01863655
_cell_angle_beta   89.93011656
_cell_angle_gamma   89.94776034
_symmetry_Int_Tables_number   1
_chemical_formula_structural   In2Te3
_chemical_formula_sum   'In72 Te108'
_cell_volume   6599.53417541
_cell_formula_units_Z   36
loop_
 _symmetry_equiv_pos_site_id
 _symmetry_equiv_pos_as_xyz
  1  'x, y, z'
loop_
 _atom_site_type_symbol
 _atom_site_label
 _atom_site_symmetry_multiplicity
 _atom_site_fract_x
 _atom_site_fract_y
 _atom_site_fract_z
 _atom_site_occupancy
  In  In0  1  0.16088085  0.16697306  0.31237352  1
  In  In1  1  0.34255809  0.30733364  0.00231484  1
  In  In2  1  0.35551816  0.50520617  0.51244204  1
  In  In3  1  0.66071058  0.48113428  0.83532205  1
  In  In4  1  0.33641655  0.69913361  0.32383470  1
  In  In5  1  0.67974044  0.50428131  0.14831170  1
  In  In6  1  -0.02531618  0.67191033  0.64597510  1
  In  In7  1  0.81887496  0.67835037  0.16147686  1
  In  In8  1  0.84089054  0.48349088  -0.00239748  1
  In  In9  1  0.34207066  0.49681296  0.11840739  1
  In  In10  1  0.01610658  0.66719794  0.01290284  1
  In  In11  1  0.33261879  0.84229749  0.15345933  1
  In  In12  1  0.16757913  0.66747292  0.84448280  1
  In  In13  1  0.82185159  0.49320063  0.68002683  1
  In  In14  1  0.17726769  0.84895404  0.00975694  1
  In  In15  1  0.51083914  0.50766723  0.33101071  1
  In  In16  1  0.36219423  0.84636579  0.49461772  1
  In  In17  1  0.01119828  0.02154036  0.69296636  1
  In  In18  1  0.34135324  -0.00691429  0.31530911  1
  In  In19  1  -0.00326184  0.66095821  0.31279804  1
  In  In20  1  -0.00338472  0.31337390  0.68179358  1
  In  In21  1  0.84419611  0.33552406  0.16685873  1
  In  In22  1  0.65646523  0.83401717  0.17384060  1
  In  In23  1  -0.01150703  0.50314974  0.49413430  1
  In  In24  1  0.67773035  0.18517403  0.87620305  1
  In  In25  1  0.83556283  0.16653840  0.67971974  1
  In  In26  1  0.65899331  0.50003407  0.50461240  1
  In  In27  1  0.18214397  0.00295919  0.50027505  1
  In  In28  1  0.81706103  -0.02386078  0.86358559  1
  In  In29  1  0.68279573  -0.01614647  0.65916182  1
  In  In30  1  0.66163435  0.67591332  0.02078985  1
  In  In31  1  0.14949535  0.67820536  0.49432014  1
  In  In32  1  0.02182484  -0.02849145  0.29814570  1
  In  In33  1  0.51222743  0.66382610  0.17807079  1
  In  In34  1  0.33820863  0.66142799  0.66254483  1
  In  In35  1  0.00100811  0.32903805  -0.00793200  1
  In  In36  1  0.64329259  0.17542630  0.13303392  1
  In  In37  1  0.34328887  0.15037127  0.50756592  1
  In  In38  1  0.50192848  0.15875455  0.33494603  1
  In  In39  1  0.82905262  0.51288846  0.32769298  1
  In  In40  1  0.17408663  0.49339427  0.00050418  1
  In  In41  1  0.49822788  0.85253440  0.65919813  1
  In  In42  1  0.82836152  0.83266661  0.34401203  1
  In  In43  1  0.14260793  0.32463024  0.50957889  1
  In  In44  1  0.65169727  0.86165238  0.47082559  1
  In  In45  1  0.50744565  0.01697177  0.83651812  1
  In  In46  1  0.15825058  0.51540799  0.32560275  1
  In  In47  1  0.66500788  0.68286270  0.68054372  1
  In  In48  1  0.49117766  0.64871264  0.86160838  1
  In  In49  1  0.34407490  0.32990655  0.32726077  1
  In  In50  1  0.48605257  0.32786155  0.84129352  1
  In  In51  1  -0.01916164  0.82336334  0.49713553  1
  In  In52  1  0.49010667  0.01094417  0.16385857  1
  In  In53  1  0.83220677  0.15391493  0.35773817  1
  In  In54  1  0.49829670  0.16495405  0.67037012  1
  In  In55  1  0.00547419  0.16917006  0.14461896  1
  In  In56  1  -0.00855999  0.84177547  0.83631231  1
  In  In57  1  0.19213004  0.50618796  0.69751161  1
  In  In58  1  0.83197018  0.67330883  0.81921626  1
  In  In59  1  -0.01274925  0.17418734  0.50429331  1
  In  In60  1  0.17071478  0.31820881  0.15455841  1
  In  In61  1  0.50363006  0.83247182  0.00040065  1
  In  In62  1  -0.00636999  0.01440122  -0.00693864  1
  In  In63  1  0.82623478  0.00526095  0.14173196  1
  In  In64  1  0.34351802  0.32829672  0.68859526  1
  In  In65  1  0.16958276  0.31323983  0.84722648  1
  In  In66  1  0.67557505  0.33055034  0.33417310  1
  In  In67  1  0.66605522  0.15380090  0.51145179  1
  In  In68  1  0.33012599  0.15880935  0.16839745  1
  In  In69  1  0.67172663  0.34485929  0.65502762  1
  In  In70  1  0.31988434  0.84502943  0.83811583  1
  In  In71  1  0.17470134  0.85864258  0.68679114  1
  Te  Te72  1  0.09505802  0.06669944  0.08823196  1
  Te  Te73  1  0.08062864  0.08121525  0.41183528  1
  Te  Te74  1  0.08525851  0.10470608  0.79539832  1
  Te  Te75  1  0.07457098  0.41874244  0.09131636  1
  Te  Te76  1  0.07448174  0.41288087  0.40480016  1
  Te  Te77  1  0.09019397  0.41237927  0.75765445  1
  Te  Te78  1  0.07414953  0.77901610  0.09601445  1
  Te  Te79  1  0.07878761  0.76563590  0.39451063  1
  Te  Te80  1  0.08016510  0.74367860  0.74222857  1
  Te  Te81  1  0.41277995  0.08992726  0.06546098  1
  Te  Te82  1  0.43399070  0.05344189  0.42652499  1
  Te  Te83  1  0.40518817  0.10928189  0.77428754  1
  Te  Te84  1  0.44186043  0.38902361  0.08271045  1
  Te  Te85  1  0.43387934  0.40847568  0.42060837  1
  Te  Te86  1  0.43443626  0.42899992  0.74463668  1
  Te  Te87  1  0.41831140  0.73510027  0.08073216  1
  Te  Te88  1  0.43628457  0.74114350  0.42344250  1
  Te  Te89  1  0.42024082  0.75662307  0.75881654  1
  Te  Te90  1  0.73417739  0.08476203  0.05348823  1
  Te  Te91  1  0.73531686  0.05956218  0.41842857  1
  Te  Te92  1  0.73651199  0.08296240  0.76405449  1
  Te  Te93  1  0.73540331  0.38807606  0.06115849  1
  Te  Te94  1  0.76236058  0.41619561  0.42581035  1
  Te  Te95  1  0.76293825  0.38652007  0.77180582  1
  Te  Te96  1  0.76306812  0.78648528  0.06269898  1
  Te  Te97  1  0.72794664  0.74728820  0.41040349  1
  Te  Te98  1  0.74815093  0.77867091  0.75892383  1
  Te  Te99  1  0.06278943  0.26465540  0.25134155  1
  Te  Te100  1  0.09280270  0.21896172  0.60633069  1
  Te  Te101  1  0.08128709  0.22063195  0.92570115  1
  Te  Te102  1  0.09551242  0.59756262  0.22089684  1
  Te  Te103  1  0.09224085  0.57224314  0.59101304  1
  Te  Te104  1  0.07292554  0.56756993  0.91093219  1
  Te  Te105  1  0.11132139  0.88219880  0.22176301  1
  Te  Te106  1  0.07409421  0.91678238  0.58491904  1
  Te  Te107  1  0.10382377  0.92527568  0.89516550  1
  Te  Te108  1  0.43468170  0.25147263  0.23332425  1
  Te  Te109  1  0.42489143  0.25936034  0.57481402  1
  Te  Te110  1  0.40700462  0.21475184  0.90251938  1
  Te  Te111  1  0.39682841  0.57374395  0.24810922  1
  Te  Te112  1  0.44458730  0.60173830  0.57937824  1
  Te  Te113  1  0.38796790  0.56042427  0.91586335  1
  Te  Te114  1  0.43904267  0.89528542  0.25084009  1
  Te  Te115  1  0.39383782  0.94086986  0.60304458  1
  Te  Te116  1  0.41313143  0.92994707  0.92517410  1
  Te  Te117  1  0.75209738  0.23443110  0.24024913  1
  Te  Te118  1  0.76430973  0.25271962  0.57477650  1
  Te  Te119  1  0.76638163  0.26928791  0.95843348  1
  Te  Te120  1  0.72725836  0.60182370  0.25607107  1
  Te  Te121  1  0.75070825  0.59121557  0.58997610  1
  Te  Te122  1  0.74596402  0.58655507  0.92075400  1
  Te  Te123  1  0.74993420  0.92753375  0.25021116  1
  Te  Te124  1  0.76221190  0.90024757  0.56641586  1
  Te  Te125  1  0.73919618  0.87267027  0.93185011  1
  Te  Te126  1  0.23291924  0.21747485  0.06045316  1
  Te  Te127  1  0.24954368  0.24344631  0.41395453  1
  Te  Te128  1  0.25239332  0.23264991  0.75240580  1
  Te  Te129  1  0.23515680  0.59464973  0.09149120  1
  Te  Te130  1  0.25397783  0.58760951  0.42272280  1
  Te  Te131  1  0.28908717  0.58016413  0.79082614  1
  Te  Te132  1  0.27393666  0.94720260  0.06643253  1
  Te  Te133  1  0.25173276  0.90577325  0.40634944  1
  Te  Te134  1  0.26493282  0.95832098  0.75218948  1
  Te  Te135  1  0.54984302  0.27335646  0.07423818  1
  Te  Te136  1  0.58196479  0.25152316  0.42657440  1
  Te  Te137  1  0.59870207  0.24649271  0.75221241  1
  Te  Te138  1  0.56499926  0.56865414  0.06866915  1
  Te  Te139  1  0.59346343  0.59745856  0.41321635  1
  Te  Te140  1  0.57728953  0.57995920  0.75345253  1
  Te  Te141  1  0.59076200  0.93087735  0.07642549  1
  Te  Te142  1  0.56946787  0.96635153  0.40706533  1
  Te  Te143  1  0.59183094  0.91355823  0.76262869  1
  Te  Te144  1  0.89362235  0.23194313  0.06102318  1
  Te  Te145  1  0.91301613  0.26354638  0.41371982  1
  Te  Te146  1  0.92306539  0.23049100  0.78218253  1
  Te  Te147  1  0.91338104  0.58074852  0.09124980  1
  Te  Te148  1  0.90523241  0.60836448  0.42459981  1
  Te  Te149  1  0.92905120  0.57411469  0.75404969  1
  Te  Te150  1  0.92521384  0.91466196  0.07869060  1
  Te  Te151  1  0.92314179  0.93509486  0.40988658  1
  Te  Te152  1  0.90522968  0.92251459  0.74264777  1
  Te  Te153  1  0.23040597  0.05817669  0.23268447  1
  Te  Te154  1  0.24600718  0.09008372  0.60121412  1
  Te  Te155  1  0.19960569  0.04879465  0.87613573  1
  Te  Te156  1  0.25299847  0.41620685  0.24068459  1
  Te  Te157  1  0.24600456  0.41319792  0.57956808  1
  Te  Te158  1  0.26937555  0.40963007  0.91481522  1
  Te  Te159  1  0.23375780  0.76932969  0.24242143  1
  Te  Te160  1  0.24457715  0.75846430  0.58573499  1
  Te  Te161  1  0.26221262  0.74250842  0.93682077  1
  Te  Te162  1  0.59902425  0.08090192  0.24737621  1
  Te  Te163  1  0.57087930  0.05997384  0.58647639  1
  Te  Te164  1  0.59190785  0.08271977  0.94215199  1
  Te  Te165  1  0.59149707  0.41499107  0.23917927  1
  Te  Te166  1  0.56531041  0.42468529  0.59260637  1
  Te  Te167  1  0.57624631  0.40526355  0.93107064  1
  Te  Te168  1  0.58186168  0.75320507  0.27309638  1
  Te  Te169  1  0.58567556  0.76166928  0.57643435  1
  Te  Te170  1  0.59498432  0.75359323  0.90587259  1
  Te  Te171  1  0.92433067  0.08298883  0.24709722  1
  Te  Te172  1  0.90916703  0.07128354  0.58519738  1
  Te  Te173  1  0.91073722  0.08805098  0.89298601  1
  Te  Te174  1  0.92204279  0.43500961  0.24290563  1
  Te  Te175  1  0.91639199  0.40952506  0.59091010  1
  Te  Te176  1  0.92241520  0.41238350  0.89739253  1
  Te  Te177  1  0.91644945  0.76719340  0.23658228  1
  Te  Te178  1  0.87672063  0.76630549  0.58847507  1
  Te  Te179  1  0.91595808  0.74660639  0.92661609  1
