# generated using pymatgen
data_In2Te3
_symmetry_space_group_name_H-M   'P 1'
_cell_length_a   19.02449685
_cell_length_b   19.04886414
_cell_length_c   19.01388410
_cell_angle_alpha   89.99910340
_cell_angle_beta   89.80514478
_cell_angle_gamma   89.70540219
_symmetry_Int_Tables_number   1
_chemical_formula_structural   In2Te3
_chemical_formula_sum   'In72 Te108'
_cell_volume   6890.40665999
_cell_formula_units_Z   36
loop_
 _symmetry_equiv_pos_site_id
 _symmetry_equiv_pos_as_xyz
  1  'x, y, z'
loop_
 _atom_site_type_symbol
 _atom_site_label
 _atom_site_symmetry_multiplicity
 _atom_site_fract_x
 _atom_site_fract_y
 _atom_site_fract_z
 _atom_site_occupancy
  In  In0  1  0.64609089  0.67291277  0.38647644  1
  In  In1  1  0.51704921  0.67596779  0.17658022  1
  In  In2  1  0.00812641  0.66498552  0.34257523  1
  In  In3  1  -0.00896282  0.50039468  0.86273946  1
  In  In4  1  0.33427979  0.50034605  0.12755773  1
  In  In5  1  0.19166412  -0.00342525  0.18749011  1
  In  In6  1  0.36511946  0.70039414  0.37917245  1
  In  In7  1  0.15543600  0.51230227  0.01786372  1
  In  In8  1  0.29888262  0.68403853  0.68914601  1
  In  In9  1  0.19621763  -0.01239879  0.49579475  1
  In  In10  1  0.47271679  0.14322270  -0.01810409  1
  In  In11  1  0.35694606  0.51559612  0.49830272  1
  In  In12  1  0.30464882  0.70034411  -0.03260937  1
  In  In13  1  0.50286105  0.32177690  0.17510448  1
  In  In14  1  0.45428581  0.31021599  0.53787614  1
  In  In15  1  0.47453782  0.05289120  0.50882646  1
  In  In16  1  0.81074790  0.14940978  0.67461775  1
  In  In17  1  0.48308886  0.85373400  -0.01106049  1
  In  In18  1  0.84931784  0.84499599  0.32304515  1
  In  In19  1  0.85679717  0.52961147  0.64580124  1
  In  In20  1  0.48785662  0.17806791  0.32871669  1
  In  In21  1  0.00077357  0.00194538  0.34520611  1
  In  In22  1  0.47464652  0.66818257  0.83104305  1
  In  In23  1  0.82236256  -0.00250651  0.82751188  1
  In  In24  1  0.52016923  0.50763026  0.33455593  1
  In  In25  1  0.83441119  0.48844334  0.02488928  1
  In  In26  1  0.66183197  0.85329349  0.80876676  1
  In  In27  1  -0.00810858  0.51886802  0.18748457  1
  In  In28  1  0.17160568  0.31977560  0.15386166  1
  In  In29  1  0.65442012  0.17628310  0.18160261  1
  In  In30  1  0.83726954  0.33994827  0.49384875  1
  In  In31  1  -0.01200573  0.84114944  0.48779978  1
  In  In32  1  0.69708435  0.50646724  0.15455658  1
  In  In33  1  0.66535163  0.48857896  0.81016006  1
  In  In34  1  0.19342090  0.00885227  0.81659053  1
  In  In35  1  0.84257927  0.68690542  0.84585411  1
  In  In36  1  0.65026111  0.80048675  0.18005182  1
  In  In37  1  0.15574316  0.34645022  0.48282271  1
  In  In38  1  0.01828232  0.16981782  0.50574104  1
  In  In39  1  0.47364806  -0.02052382  0.81017449  1
  In  In40  1  0.19945066  0.65990932  0.50611255  1
  In  In41  1  0.83237113  0.65727570  0.17917183  1
  In  In42  1  0.83827391  0.33140171  0.14974588  1
  In  In43  1  0.36817370  0.84423001  0.17609154  1
  In  In44  1  0.86922602  -0.00370242  0.17223173  1
  In  In45  1  0.66717244  -0.00913535  0.00635111  1
  In  In46  1  0.49920475  0.49490897  -0.05519268  1
  In  In47  1  0.31594612  0.34257868  0.32443169  1
  In  In48  1  0.66677149  0.66610746  -0.00880581  1
  In  In49  1  0.16825302  0.48765564  0.67037187  1
  In  In50  1  0.01507087  0.33439824  0.31171919  1
  In  In51  1  0.05912341  0.68411620  0.68401860  1
  In  In52  1  0.82443676  0.83560825  0.65950706  1
  In  In53  1  0.67925374  0.32349690  0.35544383  1
  In  In54  1  0.05722408  -0.06597281  0.04148189  1
  In  In55  1  0.32906011  0.31818544  -0.01070069  1
  In  In56  1  0.83062527  0.17342301  0.00002941  1
  In  In57  1  0.33664617  0.01336034  0.65822761  1
  In  In58  1  0.01514344  0.13547355  0.84967895  1
  In  In59  1  0.30962986  0.00430947  -0.00307017  1
  In  In60  1  0.06842385  0.73003541  -0.03062946  1
  In  In61  1  -0.03439147  0.32060016  0.66632556  1
  In  In62  1  0.46504535  0.47029586  0.70326566  1
  In  In63  1  0.17689224  0.32206235  0.81866020  1
  In  In64  1  0.65899297  0.15418025  0.52017152  1
  In  In65  1  0.66910860  0.01194381  0.34402165  1
  In  In66  1  0.64449138  0.85071357  0.53326276  1
  In  In67  1  0.76526103  0.28999020  0.79093064  1
  In  In68  1  0.00418458  0.31503690  -0.01440177  1
  In  In69  1  0.83381830  0.68000448  0.49695077  1
  In  In70  1  0.19311073  0.82884058  0.31977204  1
  In  In71  1  0.00541047  0.00460752  0.67918307  1
  Te  Te72  1  0.10991149  0.06329143  0.08813262  1
  Te  Te73  1  0.10495728  0.08167467  0.41738319  1
  Te  Te74  1  0.10262850  0.10574846  0.73169941  1
  Te  Te75  1  0.05838363  0.41653706  0.08506492  1
  Te  Te76  1  0.08557853  0.43407009  0.38965011  1
  Te  Te77  1  0.05918893  0.40963385  0.76018916  1
  Te  Te78  1  0.11479291  0.80340816  0.08823765  1
  Te  Te79  1  0.10190965  0.75989615  0.42702542  1
  Te  Te80  1  0.13519020  0.78915587  0.75016127  1
  Te  Te81  1  0.41482460  0.05645333  0.08369403  1
  Te  Te82  1  0.38203868  0.10133028  0.40034646  1
  Te  Te83  1  0.43318920  0.09940867  0.73295560  1
  Te  Te84  1  0.43880903  0.40868620  0.06389821  1
  Te  Te85  1  0.42619809  0.40556967  0.40708476  1
  Te  Te86  1  0.39108145  0.36817250  0.78011087  1
  Te  Te87  1  0.42869540  0.73351076  0.06515518  1
  Te  Te88  1  0.41881015  0.76616991  0.49942830  1
  Te  Te89  1  0.40733172  0.76752366  0.74790967  1
  Te  Te90  1  0.74809078  0.08248041  0.09765783  1
  Te  Te91  1  0.75063731  0.10687206  0.41666857  1
  Te  Te92  1  0.71983481  0.04878750  0.73368747  1
  Te  Te93  1  0.72758489  0.38750230  0.06176191  1
  Te  Te94  1  0.73619733  0.42908377  0.43570683  1
  Te  Te95  1  0.77348950  0.42611701  0.72559201  1
  Te  Te96  1  0.75428373  0.74671138  0.08203315  1
  Te  Te97  1  0.74796892  0.78346667  0.42211697  1
  Te  Te98  1  0.74292356  0.74073907  0.74515156  1
  Te  Te99  1  0.11563901  0.23500437  0.26181063  1
  Te  Te100  1  0.08814746  0.26600698  0.59799760  1
  Te  Te101  1  0.10938772  0.22960964  0.92061860  1
  Te  Te102  1  0.09296666  0.61002885  0.23627421  1
  Te  Te103  1  0.09156133  0.58171575  0.57685577  1
  Te  Te104  1  0.10037128  0.59363956  0.90336549  1
  Te  Te105  1  0.08269182  0.91058992  0.25839564  1
  Te  Te106  1  0.07976912  0.92419561  0.57365346  1
  Te  Te107  1  0.10503810  0.92151896  0.89764433  1
  Te  Te108  1  0.38883371  0.24356917  0.23237600  1
  Te  Te109  1  0.34027081  0.23031490  0.58029669  1
  Te  Te110  1  0.41578893  0.24829002  0.88998393  1
  Te  Te111  1  0.42784898  0.56585186  0.23188088  1
  Te  Te112  1  0.39833586  0.58130390  0.62400921  1
  Te  Te113  1  0.37990182  0.57829637  0.90736455  1
  Te  Te114  1  0.45367527  0.88101431  0.28626927  1
  Te  Te115  1  0.41776359  0.92860126  0.56587469  1
  Te  Te116  1  0.37699866  0.90377096  0.89770433  1
  Te  Te117  1  0.76335433  0.24829809  0.25521078  1
  Te  Te118  1  0.74939313  0.25627422  0.58689768  1
  Te  Te119  1  0.71923044  0.19704368  0.90417483  1
  Te  Te120  1  0.72185195  0.60462480  0.26730921  1
  Te  Te121  1  0.74677944  0.60215982  0.58450620  1
  Te  Te122  1  0.75594494  0.57055463  0.91402098  1
  Te  Te123  1  0.73765288  0.90996132  0.24366497  1
  Te  Te124  1  0.73732935  0.94140599  0.60359021  1
  Te  Te125  1  0.75212820  0.89924361  0.92073159  1
  Te  Te126  1  0.26111542  0.22938041  0.08280299  1
  Te  Te127  1  0.22085332  0.24970824  0.38889785  1
  Te  Te128  1  0.27947688  0.28292935  0.71711884  1
  Te  Te129  1  0.24619331  0.61526695  0.07967409  1
  Te  Te130  1  0.26932663  0.58343701  0.39583438  1
  Te  Te131  1  0.24244110  0.57066289  0.76387860  1
  Te  Te132  1  0.25775499  0.89000925  0.08654613  1
  Te  Te133  1  0.28636751  0.91891713  0.39497728  1
  Te  Te134  1  0.23951891  0.91270774  0.71284152  1
  Te  Te135  1  0.56640612  0.23012578  0.07296653  1
  Te  Te136  1  0.56930666  0.25230893  0.43123288  1
  Te  Te137  1  0.62459161  0.25228288  0.79221502  1
  Te  Te138  1  0.58266635  0.57243421  0.07436329  1
  Te  Te139  1  0.55877170  0.57752092  0.45840661  1
  Te  Te140  1  0.56792048  0.58313581  0.74652162  1
  Te  Te141  1  0.57830008  0.90479095  0.09447685  1
  Te  Te142  1  0.57467656  0.95114292  0.44466083  1
  Te  Te143  1  0.54464569  0.87992639  0.72477952  1
  Te  Te144  1  0.93776867  0.23140277  0.09239520  1
  Te  Te145  1  0.93261492  0.25364062  0.41394981  1
  Te  Te146  1  0.91250906  0.22463044  0.77230795  1
  Te  Te147  1  0.92414908  0.59715634  0.07249752  1
  Te  Te148  1  0.90169338  0.58947329  0.40517676  1
  Te  Te149  1  0.93741748  0.60123947  0.75903886  1
  Te  Te150  1  0.91736419  0.89964499  0.07778913  1
  Te  Te151  1  0.89079413  0.94145443  0.43167908  1
  Te  Te152  1  0.91972421  0.90551528  0.75420632  1
  Te  Te153  1  0.29173591  0.03322784  0.28843050  1
  Te  Te154  1  0.24743942  0.10295367  0.57509103  1
  Te  Te155  1  0.27373067  0.10231638  0.89405074  1
  Te  Te156  1  0.24167305  0.43239733  0.22589626  1
  Te  Te157  1  0.25784826  0.42367913  0.56684459  1
  Te  Te158  1  0.22982397  0.41442015  0.92725636  1
  Te  Te159  1  0.29046331  0.73591857  0.25141754  1
  Te  Te160  1  0.26651386  0.77191461  0.57149421  1
  Te  Te161  1  0.19673486  0.77723508  0.89391350  1
  Te  Te162  1  0.56641797  0.07530269  0.25010916  1
  Te  Te163  1  0.55187750  0.12036624  0.61663297  1
  Te  Te164  1  0.56889624  0.04942111  0.90869953  1
  Te  Te165  1  0.60369500  0.41217092  0.24258205  1
  Te  Te166  1  0.54904471  0.38645450  0.61525810  1
  Te  Te167  1  0.58410423  0.38930307  0.88448535  1
  Te  Te168  1  0.55173061  0.76527654  0.30175977  1
  Te  Te169  1  0.56333557  0.72940352  0.54187493  1
  Te  Te170  1  0.58028714  0.75825485  0.90875594  1
  Te  Te171  1  0.93088130  0.09449148  0.25569849  1
  Te  Te172  1  0.91837969  0.08725782  0.58689636  1
  Te  Te173  1  0.91110421  0.06400397  0.93171899  1
  Te  Te174  1  0.89692385  0.42379163  0.25266002  1
  Te  Te175  1  0.93720478  0.42908003  0.56568900  1
  Te  Te176  1  0.89640159  0.39593527  0.91825916  1
  Te  Te177  1  0.93209865  0.75247934  0.24030646  1
  Te  Te178  1  0.93925172  0.74734635  0.59615353  1
  Te  Te179  1  0.93865517  0.77182524  0.91305258  1
