# generated using pymatgen
data_In2Te3
_symmetry_space_group_name_H-M   'P 1'
_cell_length_a   19.00284410
_cell_length_b   18.96207906
_cell_length_c   18.97818083
_cell_angle_alpha   89.94191258
_cell_angle_beta   89.92080985
_cell_angle_gamma   89.98434977
_symmetry_Int_Tables_number   1
_chemical_formula_structural   In2Te3
_chemical_formula_sum   'In72 Te108'
_cell_volume   6838.46273331
_cell_formula_units_Z   36
loop_
 _symmetry_equiv_pos_site_id
 _symmetry_equiv_pos_as_xyz
  1  'x, y, z'
loop_
 _atom_site_type_symbol
 _atom_site_label
 _atom_site_symmetry_multiplicity
 _atom_site_fract_x
 _atom_site_fract_y
 _atom_site_fract_z
 _atom_site_occupancy
  In  In0  1  0.51445566  0.83005221  0.33948661  1
  In  In1  1  0.81611854  -0.00047964  0.16159679  1
  In  In2  1  0.01266735  0.17940264  0.52202178  1
  In  In3  1  0.84023258  0.16581870  0.66611697  1
  In  In4  1  0.65533332  0.66029446  0.01446618  1
  In  In5  1  0.34897241  0.15830940  0.18279900  1
  In  In6  1  0.30966295  0.83379257  0.83356423  1
  In  In7  1  0.83840935  0.02474662  0.84073382  1
  In  In8  1  0.52457361  0.02461086  0.16586010  1
  In  In9  1  0.66167124  0.47671052  0.81915360  1
  In  In10  1  0.18015969  -0.01030540  0.18940053  1
  In  In11  1  0.78721224  0.30266539  0.11135132  1
  In  In12  1  0.17138697  0.65460554  0.16882430  1
  In  In13  1  0.02178066  0.69357907  0.35255954  1
  In  In14  1  -0.00169925  -0.01161003  -0.00807634  1
  In  In15  1  0.81989605  0.64740767  0.15808283  1
  In  In16  1  0.84157004  0.33279801  0.49467935  1
  In  In17  1  0.01284237  0.00859632  0.36102077  1
  In  In18  1  0.84899083  0.84737265  0.30807509  1
  In  In19  1  0.82759128  0.15897676  0.31062612  1
  In  In20  1  0.33809448  0.02666368  0.63994980  1
  In  In21  1  0.82616974  0.67711261  0.52034960  1
  In  In22  1  0.33620715  0.35120140  0.00518562  1
  In  In23  1  0.33558160  0.19373142  0.47672959  1
  In  In24  1  0.31625682  0.29663326  0.69415886  1
  In  In25  1  0.01805018  0.33138692  0.66711399  1
  In  In26  1  0.00314691  0.00689363  0.66527243  1
  In  In27  1  0.51350100  0.33242096  0.84496549  1
  In  In28  1  0.68625514  0.00903290  0.64520594  1
  In  In29  1  0.65663669  0.67458776  0.31417789  1
  In  In30  1  0.49427126  0.82700525  0.68162499  1
  In  In31  1  0.01440085  0.48681203  0.48917256  1
  In  In32  1  0.16886529  0.51403064  -0.00209042  1
  In  In33  1  0.66333185  0.66791019  0.67355758  1
  In  In34  1  0.15962487  0.67372096  0.84572708  1
  In  In35  1  0.50273058  0.17859144  0.69253443  1
  In  In36  1  0.01088109  0.84418505  0.16752029  1
  In  In37  1  0.80844095  0.52306365  0.34347986  1
  In  In38  1  0.48559592  0.50851432  0.63500723  1
  In  In39  1  0.01497077  0.34358416  0.31755342  1
  In  In40  1  0.32096609  -0.01683303  -0.01526060  1
  In  In41  1  0.83459290  0.66407436  0.82959970  1
  In  In42  1  -0.02979970  0.33146614  0.00700135  1
  In  In43  1  0.47417786  0.66839032  0.48377221  1
  In  In44  1  0.18145499  0.48878887  0.33871554  1
  In  In45  1  0.16895437  0.47429787  0.67031133  1
  In  In46  1  0.50117807  -0.00697447  0.49677659  1
  In  In47  1  0.32186001  0.49893191  0.82116287  1
  In  In48  1  0.01011244  0.65824632  0.68238536  1
  In  In49  1  -0.00525983  0.49352961  0.15828949  1
  In  In50  1  0.67421583  0.84727915  0.82731883  1
  In  In51  1  0.67021467  0.85135318  0.49441820  1
  In  In52  1  0.01078224  0.15133656  0.83956531  1
  In  In53  1  0.51507900  0.46285777  0.31863960  1
  In  In54  1  0.32595367  -0.02001655  0.36365794  1
  In  In55  1  0.66999242  0.49859187  0.51487720  1
  In  In56  1  0.50545322  0.49835092  -0.02700864  1
  In  In57  1  0.67007423  0.16980704  0.46084846  1
  In  In58  1  -0.01470185  0.65615614  0.02009176  1
  In  In59  1  0.47146815  0.67903671  0.83611600  1
  In  In60  1  0.80411981  0.31060670  0.87141467  1
  In  In61  1  0.33755289  0.64069663  0.32651831  1
  In  In62  1  0.34210976  0.82599177  0.18523308  1
  In  In63  1  0.00259932  0.81747332  0.83624444  1
  In  In64  1  0.15234182  -0.00086888  0.82121020  1
  In  In65  1  0.47786194  0.83887776  0.01228969  1
  In  In66  1  0.04120420  0.82040715  0.50148103  1
  In  In67  1  0.15615218  0.15252729  0.00210266  1
  In  In68  1  0.50424917  0.21064504  0.32086602  1
  In  In69  1  0.65885554  0.02283874  -0.01041677  1
  In  In70  1  0.51676715  0.19934281  0.02007858  1
  In  In71  1  0.18045771  0.32888257  0.19362002  1
  Te  Te72  1  0.08180949  0.06138745  0.09656580  1
  Te  Te73  1  0.09626252  0.11343496  0.42033293  1
  Te  Te74  1  0.10424826  0.11424701  0.72246415  1
  Te  Te75  1  0.09479477  0.40884865  0.08395747  1
  Te  Te76  1  0.11003785  0.38577651  0.42923513  1
  Te  Te77  1  0.08172212  0.41220276  0.77000725  1
  Te  Te78  1  0.08953698  0.74730397  0.08094157  1
  Te  Te79  1  0.13627723  0.71625731  0.44453944  1
  Te  Te80  1  0.10366963  0.76657739  0.73670403  1
  Te  Te81  1  0.41074173  0.07347028  0.07134583  1
  Te  Te82  1  0.43229256  0.09129297  0.40268161  1
  Te  Te83  1  0.41556454  0.07904469  0.75212726  1
  Te  Te84  1  0.44537685  0.41200891  0.07818022  1
  Te  Te85  1  0.40085347  0.39105628  0.38315108  1
  Te  Te86  1  0.42726461  0.41711226  0.75109365  1
  Te  Te87  1  0.40333744  0.73818768  0.08568715  1
  Te  Te88  1  0.39425848  0.76941807  0.40617789  1
  Te  Te89  1  0.38193758  0.73995125  0.73118219  1
  Te  Te90  1  0.74369066  0.10364587  0.08293803  1
  Te  Te91  1  0.76784640  0.07319046  0.41365257  1
  Te  Te92  1  0.73867199  0.09996937  0.75804341  1
  Te  Te93  1  0.68442263  0.40977814  0.08880735  1
  Te  Te94  1  0.73822590  0.40877116  0.41331017  1
  Te  Te95  1  0.74568860  0.37753382  0.75150434  1
  Te  Te96  1  0.74927724  0.74923436  0.08190859  1
  Te  Te97  1  0.75723742  0.75148388  0.40648160  1
  Te  Te98  1  0.76190238  0.76276172  0.73766390  1
  Te  Te99  1  0.07282678  0.23748806  0.23239600  1
  Te  Te100  1  0.11424072  0.27686367  0.56908655  1
  Te  Te101  1  0.07807291  0.25585843  0.92568147  1
  Te  Te102  1  0.07069534  0.57500610  0.26275420  1
  Te  Te103  1  0.09188016  0.57443694  0.58297326  1
  Te  Te104  1  0.06130481  0.57961161  0.91379204  1
  Te  Te105  1  0.09311003  0.90272917  0.27809047  1
  Te  Te106  1  0.09964152  0.93264005  0.58058701  1
  Te  Te107  1  0.09796183  0.89958511  0.92188253  1
  Te  Te108  1  0.39243175  0.28773186  0.24924097  1
  Te  Te109  1  0.41821059  0.25308943  0.58848449  1
  Te  Te110  1  0.41061241  0.25041848  0.91843718  1
  Te  Te111  1  0.45085396  0.57939726  0.25520358  1
  Te  Te112  1  0.38455912  0.59505836  0.57396677  1
  Te  Te113  1  0.38969673  0.58752722  0.92220863  1
  Te  Te114  1  0.42216661  0.93850548  0.24976737  1
  Te  Te115  1  0.41334218  0.90310490  0.57824481  1
  Te  Te116  1  0.42284170  0.91597143  0.89446690  1
  Te  Te117  1  0.75008702  0.26963484  0.25319335  1
  Te  Te118  1  0.75012207  0.24285029  0.57348082  1
  Te  Te119  1  0.74573292  0.23125781  0.98190115  1
  Te  Te120  1  0.71671787  0.56306659  0.23007988  1
  Te  Te121  1  0.76196258  0.57131748  0.61003616  1
  Te  Te122  1  0.72740246  0.58503895  0.90216960  1
  Te  Te123  1  0.73510939  0.90784784  0.24240806  1
  Te  Te124  1  0.76963072  0.90552942  0.58503624  1
  Te  Te125  1  0.75844455  0.92633879  0.92355421  1
  Te  Te126  1  0.25495426  0.23607020  0.08320799  1
  Te  Te127  1  0.28711819  0.28648988  0.36972509  1
  Te  Te128  1  0.22264882  0.21000747  0.76034754  1
  Te  Te129  1  0.26721870  0.57231063  0.09211644  1
  Te  Te130  1  0.27189740  0.55917593  0.43112380  1
  Te  Te131  1  0.23585417  0.59316287  0.74234879  1
  Te  Te132  1  0.24788575  0.90062322  0.08775831  1
  Te  Te133  1  0.21939988  0.92753629  0.45823127  1
  Te  Te134  1  0.25262466  0.93166452  0.73298889  1
  Te  Te135  1  0.56950401  0.24516078  0.15063608  1
  Te  Te136  1  0.57423728  0.27659240  0.43148070  1
  Te  Te137  1  0.60639336  0.26508356  0.75226158  1
  Te  Te138  1  0.54894933  0.58747020  0.08319209  1
  Te  Te139  1  0.58895624  0.59021834  0.42302619  1
  Te  Te140  1  0.56334359  0.58610905  0.75364183  1
  Te  Te141  1  0.58759871  0.91907421  0.07755729  1
  Te  Te142  1  0.60150503  0.94200501  0.39481541  1
  Te  Te143  1  0.58778467  0.93157539  0.73699769  1
  Te  Te144  1  0.92924856  0.25486151  0.12453149  1
  Te  Te145  1  0.92675502  0.24703835  0.40507865  1
  Te  Te146  1  0.92168290  0.24823173  0.76247169  1
  Te  Te147  1  0.88699990  0.54728430  0.06588395  1
  Te  Te148  1  0.91944779  0.59351710  0.42433517  1
  Te  Te149  1  0.91305116  0.57186023  0.74861932  1
  Te  Te150  1  0.90721613  0.90391990  0.07783811  1
  Te  Te151  1  0.92950458  0.89708072  0.42357578  1
  Te  Te152  1  0.92134702  0.92469429  0.76249823  1
  Te  Te153  1  0.25434260  0.08605209  0.27846717  1
  Te  Te154  1  0.24894419  0.09576514  0.54503148  1
  Te  Te155  1  0.24917841  0.08770590  0.90144389  1
  Te  Te156  1  0.25723608  0.45232664  0.21647921  1
  Te  Te157  1  0.26678902  0.39342468  0.59532876  1
  Te  Te158  1  0.23580300  0.40976186  0.90787981  1
  Te  Te159  1  0.24037183  0.74680608  0.26510948  1
  Te  Te160  1  0.24793135  0.79613342  0.51910882  1
  Te  Te161  1  0.25612539  0.74042949  0.93250001  1
  Te  Te162  1  0.60301577  0.12137570  0.24696293  1
  Te  Te163  1  0.58010106  0.09409432  0.57680424  1
  Te  Te164  1  0.56421623  0.10654364  0.91699715  1
  Te  Te165  1  0.59734113  0.38625207  0.21713495  1
  Te  Te166  1  0.57534299  0.40830370  0.58007885  1
  Te  Te167  1  0.61818892  0.39371456  0.94472908  1
  Te  Te168  1  0.58022331  0.76390992  0.22856250  1
  Te  Te169  1  0.58057868  0.75001273  0.57395233  1
  Te  Te170  1  0.58003174  0.75844516  0.90712793  1
  Te  Te171  1  0.92542330  0.06150147  0.24613604  1
  Te  Te172  1  0.90952648  0.07451314  0.56810211  1
  Te  Te173  1  0.91260685  0.10398901  0.94568205  1
  Te  Te174  1  0.90503282  0.43284469  0.26402068  1
  Te  Te175  1  0.92068555  0.42011491  0.58826135  1
  Te  Te176  1  0.88683884  0.41839311  0.92527516  1
  Te  Te177  1  0.92213034  0.72840784  0.23876199  1
  Te  Te178  1  0.93400688  0.75411058  0.59109183  1
  Te  Te179  1  0.90570412  0.75054582  0.93141325  1
