# generated using pymatgen
data_In2Te3
_symmetry_space_group_name_H-M   'P 1'
_cell_length_a   18.94937222
_cell_length_b   18.95925491
_cell_length_c   18.95960017
_cell_angle_alpha   90.03225540
_cell_angle_beta   90.21865997
_cell_angle_gamma   90.08443764
_symmetry_Int_Tables_number   1
_chemical_formula_structural   In2Te3
_chemical_formula_sum   'In72 Te108'
_cell_volume   6811.48120394
_cell_formula_units_Z   36
loop_
 _symmetry_equiv_pos_site_id
 _symmetry_equiv_pos_as_xyz
  1  'x, y, z'
loop_
 _atom_site_type_symbol
 _atom_site_label
 _atom_site_symmetry_multiplicity
 _atom_site_fract_x
 _atom_site_fract_y
 _atom_site_fract_z
 _atom_site_occupancy
  In  In0  1  0.84519491  0.64759106  0.50018396  1
  In  In1  1  0.85623613  0.31393160  0.84884739  1
  In  In2  1  0.67320806  0.01586325  0.31111745  1
  In  In3  1  0.18857731  0.68036781  0.18339897  1
  In  In4  1  0.00707282  0.16005330  0.51569353  1
  In  In5  1  0.14963950  0.33404871  0.17926613  1
  In  In6  1  0.35338731  0.66870421  -0.02848659  1
  In  In7  1  0.33877463  0.17630559  0.47983579  1
  In  In8  1  0.00212030  0.85891129  0.15709481  1
  In  In9  1  0.50941658  0.81679841  -0.01748743  1
  In  In10  1  -0.00054841  0.31227314  0.00415782  1
  In  In11  1  -0.00389243  0.79016160  0.47931024  1
  In  In12  1  0.51209118  0.67477794  0.14444255  1
  In  In13  1  0.49838422  0.82137221  0.66736236  1
  In  In14  1  0.35314818  0.32338528  0.00790990  1
  In  In15  1  0.33958618  0.01728043  0.01051292  1
  In  In16  1  0.48123325  0.16733616  0.66433465  1
  In  In17  1  -0.03270043  0.49260299  0.18648396  1
  In  In18  1  0.17471136  -0.02368701  0.84978392  1
  In  In19  1  0.79696293  0.03045171  0.48473526  1
  In  In20  1  0.33242193  0.81800973  0.81147532  1
  In  In21  1  0.01648587  0.65844848  0.64315468  1
  In  In22  1  0.33333300  0.15627675  0.82666491  1
  In  In23  1  0.01281686  -0.00842436  0.33748914  1
  In  In24  1  0.53132158  0.32083321  0.47324833  1
  In  In25  1  0.01574609  0.66377854  0.34562994  1
  In  In26  1  0.01315048  0.83357647  0.85976644  1
  In  In27  1  0.65944580  0.47300017  0.84994317  1
  In  In28  1  -0.01034238  0.48306817  0.82896197  1
  In  In29  1  0.65118535  0.67707371  0.32147844  1
  In  In30  1  -0.00391861  0.65237551  -0.00116909  1
  In  In31  1  0.74477818  0.01854699  0.89625762  1
  In  In32  1  0.48273397  0.50256228  0.66161413  1
  In  In33  1  0.79922683  0.69222890  0.15861547  1
  In  In34  1  0.19438522  0.00144857  0.50170340  1
  In  In35  1  0.32330087  0.32906858  0.32610303  1
  In  In36  1  -0.00271813  0.35209831  0.65492825  1
  In  In37  1  0.64198655  0.35123814  0.67340121  1
  In  In38  1  0.64464519  0.00035857  0.67295265  1
  In  In39  1  0.82730616  0.50682204  0.65658240  1
  In  In40  1  0.49283523  0.33206918  0.83719666  1
  In  In41  1  0.33675769  0.50876068  0.49658776  1
  In  In42  1  0.17818885  0.81740475  0.64845630  1
  In  In43  1  0.17287409  0.49600425  -0.01365755  1
  In  In44  1  0.52446182  -0.00331088  0.86791100  1
  In  In45  1  0.35236334  0.67357033  0.34831630  1
  In  In46  1  0.64787140  0.19152926  0.19614732  1
  In  In47  1  0.51525122  0.36243652  0.17241133  1
  In  In48  1  0.33386615  0.82978780  0.50072297  1
  In  In49  1  0.84759806  0.84434824  0.32652978  1
  In  In50  1  0.18389684  0.84656553  0.00071155  1
  In  In51  1  0.82867328  -0.00274705  0.14603170  1
  In  In52  1  0.83334911  0.15524674  0.31623391  1
  In  In53  1  0.69304934  0.49321827  0.16425720  1
  In  In54  1  0.33939608  0.15669159  0.15929487  1
  In  In55  1  0.81658941  0.18857327  0.01769352  1
  In  In56  1  0.00161467  0.34931135  0.34047155  1
  In  In57  1  0.48657472  0.85782021  0.33061731  1
  In  In58  1  0.79579596  0.34240485  0.45848049  1
  In  In59  1  0.00621249  0.14875926  0.87025815  1
  In  In60  1  0.33682770  0.51469672  0.82050443  1
  In  In61  1  0.48773807  0.01096797  0.48687336  1
  In  In62  1  0.81400437  0.82680905  0.71626428  1
  In  In63  1  0.80637144  0.64709192  0.85661869  1
  In  In64  1  0.15970250  0.02237817  0.16481199  1
  In  In65  1  0.66567683  0.82502850  0.51597969  1
  In  In66  1  0.32541158  0.48026424  0.17060371  1
  In  In67  1  0.81585531  0.18406834  0.66544619  1
  In  In68  1  0.52975596  0.50518108  0.32202000  1
  In  In69  1  0.16436199  0.17429385  0.66131934  1
  In  In70  1  0.18202702  0.49948949  0.65586051  1
  In  In71  1  0.00206973  -0.02706566  0.66955301  1
  Te  Te72  1  0.07466742  0.06482497  0.05523679  1
  Te  Te73  1  0.09811866  0.08658957  0.41999848  1
  Te  Te74  1  0.08931575  0.06741376  0.75242208  1
  Te  Te75  1  0.07468936  0.43506075  0.08466266  1
  Te  Te76  1  0.04800769  0.45997009  0.42503733  1
  Te  Te77  1  0.09554792  0.40866351  0.75484541  1
  Te  Te78  1  0.08833275  0.74755086  0.07698007  1
  Te  Te79  1  0.11868418  0.73938905  0.41995304  1
  Te  Te80  1  0.07751094  0.75670746  0.74432230  1
  Te  Te81  1  0.44637793  0.07781856  0.09246784  1
  Te  Te82  1  0.42609448  0.09959325  0.38946167  1
  Te  Te83  1  0.43190666  0.06230681  0.76151978  1
  Te  Te84  1  0.42985985  0.43810287  0.07049626  1
  Te  Te85  1  0.42921744  0.41682572  0.39671556  1
  Te  Te86  1  0.40123637  0.40147987  0.73953775  1
  Te  Te87  1  0.40576364  0.76233951  0.07936236  1
  Te  Te88  1  0.44854036  0.75522983  0.43395827  1
  Te  Te89  1  0.43788375  0.72884972  0.76574856  1
  Te  Te90  1  0.72733473  0.09634610  0.10029531  1
  Te  Te91  1  0.70591292  0.13142442  0.40909831  1
  Te  Te92  1  0.75042924  0.07770351  0.74978171  1
  Te  Te93  1  0.76584791  0.43120874  0.05356858  1
  Te  Te94  1  0.71209813  0.45124431  0.40870044  1
  Te  Te95  1  0.76873427  0.40405804  0.75350843  1
  Te  Te96  1  0.70629906  0.75207266  0.05615839  1
  Te  Te97  1  0.76235379  0.75268958  0.41214103  1
  Te  Te98  1  0.72259395  0.72380839  0.76324865  1
  Te  Te99  1  0.07425573  0.24553809  0.26705354  1
  Te  Te100  1  0.09333389  0.27314732  0.56772050  1
  Te  Te101  1  0.09500864  0.25728771  0.90932510  1
  Te  Te102  1  0.08288127  0.58517760  0.23454684  1
  Te  Te103  1  0.07643684  0.55302279  0.56034984  1
  Te  Te104  1  0.08423956  0.58248236  0.89821221  1
  Te  Te105  1  0.10189263  0.90062200  0.25978153  1
  Te  Te106  1  0.08738547  0.90702388  0.56108782  1
  Te  Te107  1  0.06713700  0.94617333  0.95868369  1
  Te  Te108  1  0.42394405  0.26202985  0.23647677  1
  Te  Te109  1  0.42477563  0.26853311  0.56789788  1
  Te  Te110  1  0.42931509  0.22319262  0.92483312  1
  Te  Te111  1  0.42144985  0.58100215  0.23673737  1
  Te  Te112  1  0.39718302  0.60341091  0.59387857  1
  Te  Te113  1  0.44542583  0.58272241  0.89649774  1
  Te  Te114  1  0.37289451  0.93193563  0.27866647  1
  Te  Te115  1  0.41733356  0.92313773  0.58763041  1
  Te  Te116  1  0.39876676  0.91151723  0.91630459  1
  Te  Te117  1  0.77904910  0.26204420  0.22864244  1
  Te  Te118  1  0.72754483  0.26779246  0.57778576  1
  Te  Te119  1  0.73961325  0.24864447  0.90611188  1
  Te  Te120  1  0.75946935  0.58922938  0.26236157  1
  Te  Te121  1  0.73685030  0.59474045  0.58249569  1
  Te  Te122  1  0.74702829  0.54554086  0.95118600  1
  Te  Te123  1  0.74457667  0.90487731  0.23543844  1
  Te  Te124  1  0.75487783  0.91866116  0.59972894  1
  Te  Te125  1  0.71668167  0.87649758  0.93602759  1
  Te  Te126  1  0.24398529  0.25686077  0.08870668  1
  Te  Te127  1  0.23371412  0.25774568  0.41626973  1
  Te  Te128  1  0.25848005  0.25035230  0.74341272  1
  Te  Te129  1  0.25884149  0.58834113  0.07465114  1
  Te  Te130  1  0.25114954  0.58301784  0.40200531  1
  Te  Te131  1  0.23782525  0.59641862  0.75041047  1
  Te  Te132  1  0.26107180  0.92498918  0.10171166  1
  Te  Te133  1  0.27851389  0.92921758  0.40029373  1
  Te  Te134  1  0.25283321  0.92035281  0.73183150  1
  Te  Te135  1  0.59258529  0.27492063  0.08510337  1
  Te  Te136  1  0.60378228  0.24486512  0.37084102  1
  Te  Te137  1  0.58162820  0.23861227  0.75368192  1
  Te  Te138  1  0.59099850  0.56622020  0.08763781  1
  Te  Te139  1  0.57525093  0.60324745  0.42184907  1
  Te  Te140  1  0.57405046  0.55738461  0.76539832  1
  Te  Te141  1  0.61864366  0.89887952  0.04660699  1
  Te  Te142  1  0.60384083  0.92509333  0.41940191  1
  Te  Te143  1  0.58524926  0.90070444  0.76807259  1
  Te  Te144  1  0.92085188  0.24489277  0.10603413  1
  Te  Te145  1  0.90694930  0.23331670  0.42867357  1
  Te  Te146  1  0.93846839  0.23596224  0.74245250  1
  Te  Te147  1  0.89608703  0.59192639  0.09419815  1
  Te  Te148  1  0.92683397  0.56042165  0.41100096  1
  Te  Te149  1  0.91823108  0.59186292  0.74863764  1
  Te  Te150  1  0.89274247  0.89195689  0.06635187  1
  Te  Te151  1  0.91059177  0.93090692  0.43331342  1
  Te  Te152  1  0.91442708  0.92103821  0.78171689  1
  Te  Te153  1  0.23537478  0.11202912  0.25199637  1
  Te  Te154  1  0.27212673  0.09259298  0.59159234  1
  Te  Te155  1  0.23804343  0.09122381  0.92647000  1
  Te  Te156  1  0.22396654  0.43234270  0.26945238  1
  Te  Te157  1  0.25596607  0.40960963  0.56765900  1
  Te  Te158  1  0.26917351  0.40833811  0.91323489  1
  Te  Te159  1  0.28666408  0.76520804  0.25097527  1
  Te  Te160  1  0.27471652  0.72404870  0.58723021  1
  Te  Te161  1  0.23789164  0.74366839  0.90466218  1
  Te  Te162  1  0.56589092  0.06908244  0.22583393  1
  Te  Te163  1  0.58094581  0.09572618  0.57476982  1
  Te  Te164  1  0.62092291  0.09474367  0.92135172  1
  Te  Te165  1  0.63512964  0.39907879  0.28713876  1
  Te  Te166  1  0.57998852  0.43432340  0.56502288  1
  Te  Te167  1  0.58762383  0.38074494  0.94083939  1
  Te  Te168  1  0.57641610  0.77809604  0.23659800  1
  Te  Te169  1  0.59372111  0.73102557  0.60007574  1
  Te  Te170  1  0.61847889  0.73027312  0.93174683  1
  Te  Te171  1  0.93045677  0.06911670  0.23735946  1
  Te  Te172  1  0.91147380  0.07424287  0.59823737  1
  Te  Te173  1  0.88515133  0.08386266  0.92836285  1
  Te  Te174  1  0.88519823  0.39148246  0.25611898  1
  Te  Te175  1  0.89339387  0.40918054  0.56249855  1
  Te  Te176  1  0.91068332  0.42186287  0.94283017  1
  Te  Te177  1  0.92510606  0.74533815  0.24269814  1
  Te  Te178  1  0.90403216  0.75979398  0.60008507  1
  Te  Te179  1  0.90421004  0.74563316  0.92237890  1
