# generated using pymatgen
data_In2Te3
_symmetry_space_group_name_H-M   'P 1'
_cell_length_a   18.99782047
_cell_length_b   18.99409264
_cell_length_c   19.02070144
_cell_angle_alpha   90.23353305
_cell_angle_beta   90.00079659
_cell_angle_gamma   90.05103356
_symmetry_Int_Tables_number   1
_chemical_formula_structural   In2Te3
_chemical_formula_sum   'In72 Te108'
_cell_volume   6863.49118150
_cell_formula_units_Z   36
loop_
 _symmetry_equiv_pos_site_id
 _symmetry_equiv_pos_as_xyz
  1  'x, y, z'
loop_
 _atom_site_type_symbol
 _atom_site_label
 _atom_site_symmetry_multiplicity
 _atom_site_fract_x
 _atom_site_fract_y
 _atom_site_fract_z
 _atom_site_occupancy
  In  In0  1  0.18171759  0.64506481  0.17120090  1
  In  In1  1  0.65782609  0.82387204  0.48911716  1
  In  In2  1  0.00214160  -0.00392311  0.66252714  1
  In  In3  1  0.47577621  0.81692610  0.65545073  1
  In  In4  1  0.64790321  0.64818304  0.03950700  1
  In  In5  1  0.19432049  0.81717881  -0.00560407  1
  In  In6  1  0.66934938  0.50375020  0.48435605  1
  In  In7  1  0.49197828  -0.01471616  0.16764052  1
  In  In8  1  0.16075068  0.00454732  0.83280706  1
  In  In9  1  0.50797194  0.79815789  0.30495170  1
  In  In10  1  0.67801573  -0.01555244  0.34537005  1
  In  In11  1  0.84707508  0.16800902  0.67808543  1
  In  In12  1  0.18365068  0.50143567  0.01762042  1
  In  In13  1  0.47900334  0.14944218  0.32627621  1
  In  In14  1  0.02863649  0.34026687  0.33660815  1
  In  In15  1  0.32976276  -0.00510811  0.34799344  1
  In  In16  1  0.83153737  0.49236345  0.00230997  1
  In  In17  1  0.67093455  0.67902829  0.66875117  1
  In  In18  1  0.01391146  0.82577975  0.19652598  1
  In  In19  1  0.83298978  0.34666428  0.83399045  1
  In  In20  1  0.16323458  0.18820883  0.66380862  1
  In  In21  1  0.02364198  0.34497259  0.64451946  1
  In  In22  1  0.18248057  0.34182184  0.14890521  1
  In  In23  1  0.20161700  0.81318741  0.65735935  1
  In  In24  1  0.86027078  0.33880936  0.50960612  1
  In  In25  1  0.16601410  0.29737011  0.91469107  1
  In  In26  1  0.67251624  0.17117129  0.15436945  1
  In  In27  1  0.32212844  0.33469143  0.64495753  1
  In  In28  1  0.65209976  0.02490166  0.65893911  1
  In  In29  1  0.83023458  0.50351525  0.33870732  1
  In  In30  1  0.14174042  -0.00411237  0.18626676  1
  In  In31  1  0.00557262  0.02043187  0.37223146  1
  In  In32  1  0.82305139  0.83195140  0.33801074  1
  In  In33  1  0.64138098  0.17791904  0.49215203  1
  In  In34  1  0.49853529  0.65032663  0.82700230  1
  In  In35  1  0.64802031  0.34210220  0.65120786  1
  In  In36  1  0.31979133  0.17044310  0.14323727  1
  In  In37  1  0.66468523  0.19380855  0.82244051  1
  In  In38  1  0.51658758  -0.00531745  0.85797006  1
  In  In39  1  -0.01168040  0.66101986  0.00399879  1
  In  In40  1  0.81811646  0.66547336  0.17731789  1
  In  In41  1  0.17326761  0.50105384  0.32894783  1
  In  In42  1  0.84322603  0.84261989  -0.00804418  1
  In  In43  1  0.64599179  0.32735622  0.00603994  1
  In  In44  1  0.66274194  0.01138230  0.01545758  1
  In  In45  1  0.19940266  0.66102714  0.83654991  1
  In  In46  1  0.83075629  0.82128032  0.68827174  1
  In  In47  1  0.66666355  0.51850607  0.82808666  1
  In  In48  1  0.35197211  -0.03735681  0.00413243  1
  In  In49  1  0.49510988  0.36453083  0.19833072  1
  In  In50  1  0.83955685  0.67131385  0.49678136  1
  In  In51  1  0.34887137  0.65170352  0.30299280  1
  In  In52  1  0.17246988  0.51708249  0.64679547  1
  In  In53  1  0.47081796  0.33593791  0.47454104  1
  In  In54  1  0.83972967  0.18802052  0.30989029  1
  In  In55  1  0.00131585  0.19648379  0.16377107  1
  In  In56  1  0.01362581  0.85493347  0.83154988  1
  In  In57  1  -0.00128660  0.50579741  0.80958716  1
  In  In58  1  0.83136236  0.01775750  0.52659549  1
  In  In59  1  0.82226888  0.35193194  0.15817808  1
  In  In60  1  0.33862177  0.15601517  0.83634701  1
  In  In61  1  0.81933481  -0.01350145  0.17807631  1
  In  In62  1  0.51256440  0.50719343  0.01312943  1
  In  In63  1  0.29548862  0.32842448  0.35644680  1
  In  In64  1  0.11129252  0.74853353  0.50913887  1
  In  In65  1  0.63986523  0.84724085  0.86211961  1
  In  In66  1  0.47780881  0.32159319  0.80820330  1
  In  In67  1  -0.00731389  0.04794791  -0.00555076  1
  In  In68  1  0.34442524  -0.02789313  0.69187753  1
  In  In69  1  0.45984445  0.62566351  0.49381509  1
  In  In70  1  0.17689963  0.01257743  0.50557816  1
  In  In71  1  -0.01354833  0.66722525  0.67517127  1
  Te  Te72  1  0.09534618  0.10295184  0.08719834  1
  Te  Te73  1  0.12010246  0.10835739  0.40605211  1
  Te  Te74  1  0.07447416  0.09631636  0.75081403  1
  Te  Te75  1  0.08087339  0.42488749  0.08678986  1
  Te  Te76  1  0.09430574  0.43048738  0.43052212  1
  Te  Te77  1  0.10588328  0.42102222  0.74632957  1
  Te  Te78  1  0.08484899  0.74791159  0.08423925  1
  Te  Te79  1  0.12585701  0.70621462  0.36544304  1
  Te  Te80  1  0.09181372  0.75038616  0.75325706  1
  Te  Te81  1  0.42225091  0.08132283  0.07593302  1
  Te  Te82  1  0.39058138  0.10127632  0.43114340  1
  Te  Te83  1  0.43756232  0.07358980  0.75476482  1
  Te  Te84  1  0.42439404  0.41283609  0.08156992  1
  Te  Te85  1  0.37103220  0.43571553  0.42705994  1
  Te  Te86  1  0.41271127  0.41912503  0.72318319  1
  Te  Te87  1  0.44016013  0.84458827  0.04199484  1
  Te  Te88  1  0.41280546  0.74239650  0.40961876  1
  Te  Te89  1  0.40447871  0.74483020  0.76065237  1
  Te  Te90  1  0.77677572  0.09156466  0.07807060  1
  Te  Te91  1  0.75917745  0.09628610  0.41132962  1
  Te  Te92  1  0.74930067  0.08393650  0.75799037  1
  Te  Te93  1  0.71796321  0.43433825  0.08487147  1
  Te  Te94  1  0.75325178  0.39493390  0.41999185  1
  Te  Te95  1  0.74474899  0.42142926  0.73690299  1
  Te  Te96  1  0.75167496  0.75634768  0.07560543  1
  Te  Te97  1  0.73392748  0.72756668  0.40202397  1
  Te  Te98  1  0.73588770  0.75368529  0.78247809  1
  Te  Te99  1  0.11272196  0.25001311  0.24829038  1
  Te  Te100  1  0.12098352  0.27808010  0.55138523  1
  Te  Te101  1  0.04640413  0.21047035  0.92529289  1
  Te  Te102  1  0.07605840  0.58217094  0.25172120  1
  Te  Te103  1  0.07731737  0.60959246  0.57142591  1
  Te  Te104  1  0.08601442  0.58962942  0.91152922  1
  Te  Te105  1  0.08557576  0.91168044  0.29903711  1
  Te  Te106  1  0.09534480  0.90437074  0.58629416  1
  Te  Te107  1  0.08269785  0.92417237  0.94605915  1
  Te  Te108  1  0.39061902  0.25007760  0.25355115  1
  Te  Te109  1  0.40598528  0.24279994  0.56723448  1
  Te  Te110  1  0.42576253  0.24146935  0.91703702  1
  Te  Te111  1  0.45769156  0.55910435  0.25229945  1
  Te  Te112  1  0.37254748  0.62752439  0.61550418  1
  Te  Te113  1  0.42485427  0.55068169  0.90532848  1
  Te  Te114  1  0.40428998  0.90071810  0.25258465  1
  Te  Te115  1  0.38975195  0.90041384  0.57143818  1
  Te  Te116  1  0.42209673  0.88380134  0.89378454  1
  Te  Te117  1  0.73063105  0.27267138  0.25057824  1
  Te  Te118  1  0.74977162  0.24146369  0.58683742  1
  Te  Te119  1  0.75610368  0.25578019  0.92700079  1
  Te  Te120  1  0.73242162  0.57005434  0.24973069  1
  Te  Te121  1  0.75340234  0.58362058  0.58466018  1
  Te  Te122  1  0.74764943  0.59408359  0.93078520  1
  Te  Te123  1  0.72375961  0.88639321  0.23796033  1
  Te  Te124  1  0.74088103  0.90715988  0.58660670  1
  Te  Te125  1  0.75179188  0.93636785  0.91667189  1
  Te  Te126  1  0.24565769  0.25461300  0.04268581  1
  Te  Te127  1  0.22220824  0.23340234  0.44076289  1
  Te  Te128  1  0.23989937  0.25362999  0.77628934  1
  Te  Te129  1  0.28349597  0.59194479  0.07968273  1
  Te  Te130  1  0.24138305  0.61524241  0.40710355  1
  Te  Te131  1  0.27310459  0.57298078  0.74351401  1
  Te  Te132  1  0.23905808  0.91596321  0.10037650  1
  Te  Te133  1  0.25208459  0.90633602  0.43711393  1
  Te  Te134  1  0.24847494  0.89322434  0.77818982  1
  Te  Te135  1  0.55850604  0.25486448  0.10528997  1
  Te  Te136  1  0.56988052  0.25645650  0.38712325  1
  Te  Te137  1  0.56684791  0.23347599  0.71545188  1
  Te  Te138  1  0.51373861  0.62929521  0.11250817  1
  Te  Te139  1  0.56666664  0.57395607  0.40202943  1
  Te  Te140  1  0.57588370  0.57309758  0.72001758  1
  Te  Te141  1  0.58148243  0.90325111  0.07820087  1
  Te  Te142  1  0.56463236  0.90808625  0.40706162  1
  Te  Te143  1  0.57924564  0.90860201  0.73488442  1
  Te  Te144  1  0.90431352  0.26083081  0.07757931  1
  Te  Te145  1  0.93282155  0.24640329  0.41335206  1
  Te  Te146  1  0.93139203  0.27327352  0.74438025  1
  Te  Te147  1  0.91352117  0.57417351  0.10085274  1
  Te  Te148  1  0.92415349  0.57816993  0.42347938  1
  Te  Te149  1  0.89302844  0.58849871  0.75381957  1
  Te  Te150  1  0.92794116  0.90939079  0.10037077  1
  Te  Te151  1  0.90260610  0.92347680  0.42937550  1
  Te  Te152  1  0.90505285  0.93257253  0.75983123  1
  Te  Te153  1  0.25471576  0.07940278  0.24413649  1
  Te  Te154  1  0.25164156  0.07456738  0.62146578  1
  Te  Te155  1  0.26055626  0.06374807  0.92660363  1
  Te  Te156  1  0.26865961  0.42625652  0.23968949  1
  Te  Te157  1  0.26486898  0.44043797  0.55691543  1
  Te  Te158  1  0.24859011  0.41818716  0.91587307  1
  Te  Te159  1  0.24606252  0.74981233  0.25476838  1
  Te  Te160  1  0.25706733  0.71150152  0.56094601  1
  Te  Te161  1  0.28422384  0.71054827  0.94776366  1
  Te  Te162  1  0.59873367  0.07448495  0.24921120  1
  Te  Te163  1  0.56692240  0.06681672  0.54959012  1
  Te  Te164  1  0.58969486  0.10856883  0.92627479  1
  Te  Te165  1  0.58019553  0.46730164  0.26200389  1
  Te  Te166  1  0.56327100  0.42537690  0.56121927  1
  Te  Te167  1  0.58562665  0.40935822  0.89405286  1
  Te  Te168  1  0.58818196  0.71854865  0.21242886  1
  Te  Te169  1  0.57031354  0.72532972  0.56398194  1
  Te  Te170  1  0.57704923  0.72957799  0.93101575  1
  Te  Te171  1  0.92473993  0.07441363  0.25137467  1
  Te  Te172  1  0.94382494  0.10656110  0.57598164  1
  Te  Te173  1  0.93644052  0.11269880  0.88014354  1
  Te  Te174  1  0.92013324  0.41221233  0.25529379  1
  Te  Te175  1  0.93368263  0.44125095  0.58151959  1
  Te  Te176  1  0.93508337  0.41993642  0.91863896  1
  Te  Te177  1  0.91842526  0.73637204  0.27050841  1
  Te  Te178  1  0.91966951  0.77089061  0.57975022  1
  Te  Te179  1  0.92412071  0.75217580  0.90173755  1
