# generated using pymatgen
data_In2Te3
_symmetry_space_group_name_H-M   'P 1'
_cell_length_a   19.03456014
_cell_length_b   19.03504226
_cell_length_c   19.03442008
_cell_angle_alpha   90.06743947
_cell_angle_beta   90.12886795
_cell_angle_gamma   90.04891825
_symmetry_Int_Tables_number   1
_chemical_formula_structural   In2Te3
_chemical_formula_sum   'In72 Te108'
_cell_volume   6896.59593243
_cell_formula_units_Z   36
loop_
 _symmetry_equiv_pos_site_id
 _symmetry_equiv_pos_as_xyz
  1  'x, y, z'
loop_
 _atom_site_type_symbol
 _atom_site_label
 _atom_site_symmetry_multiplicity
 _atom_site_fract_x
 _atom_site_fract_y
 _atom_site_fract_z
 _atom_site_occupancy
  In  In0  1  0.82492584  -0.01779398  0.18399172  1
  In  In1  1  0.79718968  0.82174172  0.35702451  1
  In  In2  1  0.00038367  0.31630457  -0.01707947  1
  In  In3  1  0.14947030  0.84502426  0.02687108  1
  In  In4  1  0.50317482  0.45312135  0.34976439  1
  In  In5  1  0.00872354  0.69539005  0.67903647  1
  In  In6  1  0.33575532  0.48559757  0.83232837  1
  In  In7  1  0.36261437  0.65345060  0.34262895  1
  In  In8  1  0.01749672  -0.02219593  0.30955951  1
  In  In9  1  0.82389371  0.02048585  0.49562071  1
  In  In10  1  0.18938918  0.15942856  0.00935428  1
  In  In11  1  0.31621040  0.84081086  0.17465553  1
  In  In12  1  0.66414708  0.66248324  0.01475854  1
  In  In13  1  0.35171909  0.03989885  0.68040818  1
  In  In14  1  0.81679473  0.50535389  0.30532676  1
  In  In15  1  0.30029506  0.00639684  0.35327249  1
  In  In16  1  0.33630656  0.17636973  0.18845090  1
  In  In17  1  0.55827948  0.78542054  0.33912721  1
  In  In18  1  0.83883866  0.32449570  0.48710252  1
  In  In19  1  0.49325888  0.82341867  0.01325476  1
  In  In20  1  0.35902087  0.66932707  0.00465403  1
  In  In21  1  0.34804650  0.01434704  -0.01986852  1
  In  In22  1  0.32974678  0.66412364  0.65133161  1
  In  In23  1  0.18692505  0.67508567  0.14951493  1
  In  In24  1  0.67241849  0.83991095  0.86165420  1
  In  In25  1  0.49932920  -0.01202276  0.17881888  1
  In  In26  1  0.32359769  0.86697788  0.82035353  1
  In  In27  1  0.48907642  0.84243164  0.68199879  1
  In  In28  1  0.01062760  0.51300028  0.50389084  1
  In  In29  1  0.66380935  0.16440686  0.50019687  1
  In  In30  1  0.16054005  0.49067775  -0.03980851  1
  In  In31  1  0.51034932  0.49362098  0.01192294  1
  In  In32  1  0.66219101  0.51155774  0.49220707  1
  In  In33  1  0.83129809  0.67160499  0.15586851  1
  In  In34  1  0.64961236  0.18616868  0.18899355  1
  In  In35  1  0.20320094  0.50546630  0.33072496  1
  In  In36  1  -0.00991820  0.65729696  0.33013137  1
  In  In37  1  0.67148374  0.01010322  0.66338446  1
  In  In38  1  0.03103699  0.68712659  0.00575449  1
  In  In39  1  0.18378075  0.32932668  0.82787061  1
  In  In40  1  0.19556152  0.34613924  0.48597787  1
  In  In41  1  0.36407450  0.32404255  0.64348881  1
  In  In42  1  0.64414939  0.33973162  0.64877433  1
  In  In43  1  0.81151200  0.48123405  0.65138416  1
  In  In44  1  0.01758790  0.16634643  0.18267260  1
  In  In45  1  0.49444802  -0.01860637  0.47715572  1
  In  In46  1  0.50941036  0.30202423  0.83754565  1
  In  In47  1  0.16780893  0.18526089  0.34498531  1
  In  In48  1  0.80795678  0.31958542  0.17242575  1
  In  In49  1  0.82948370  0.14670120  -0.00712954  1
  In  In50  1  0.49475988  0.67135344  0.51521010  1
  In  In51  1  0.50256635  0.19606819  0.34168568  1
  In  In52  1  -0.02755528  0.00090656  0.00137481  1
  In  In53  1  0.01701212  0.84607541  0.49435788  1
  In  In54  1  0.82961682  0.82781507  0.63810158  1
  In  In55  1  0.00109550  0.49783177  0.15533598  1
  In  In56  1  0.16690806  0.01030286  0.52910925  1
  In  In57  1  0.00248535  0.84542013  0.82857250  1
  In  In58  1  0.19123148  0.68192912  0.84468927  1
  In  In59  1  0.67507452  0.49310491  0.81243411  1
  In  In60  1  0.67366739  0.30241544  0.01157688  1
  In  In61  1  -0.03923357  0.47247637  0.83375249  1
  In  In62  1  0.84290847  0.67298673  0.84309277  1
  In  In63  1  0.34369100  0.46842623  0.15345691  1
  In  In64  1  0.16760395  0.16842711  0.66092764  1
  In  In65  1  0.65593575  0.66514869  0.65692073  1
  In  In66  1  -0.01875664  0.15603001  0.50538615  1
  In  In67  1  0.63708180  0.03510699  -0.00679208  1
  In  In68  1  0.00400383  0.30188228  0.68725211  1
  In  In69  1  0.17305524  0.67474024  0.49829154  1
  In  In70  1  0.79762603  0.48033432  0.04512605  1
  In  In71  1  0.82379014  0.02056342  0.81207618  1
  Te  Te72  1  0.07799032  0.07829402  0.07820841  1
  Te  Te73  1  0.07934078  0.07602489  0.41538026  1
  Te  Te74  1  0.10429718  0.04716895  0.71193886  1
  Te  Te75  1  0.08616413  0.41131793  0.06544602  1
  Te  Te76  1  0.09285473  0.43241211  0.40846059  1
  Te  Te77  1  0.07663781  0.41555946  0.75793643  1
  Te  Te78  1  0.06404768  0.77154499  0.13297440  1
  Te  Te79  1  0.08628919  0.75062621  0.39920056  1
  Te  Te80  1  0.11397016  0.77521994  0.75330154  1
  Te  Te81  1  0.41758731  0.08327182  0.09540959  1
  Te  Te82  1  0.41348183  0.08935091  0.40882301  1
  Te  Te83  1  0.44943787  0.09996913  0.77565715  1
  Te  Te84  1  0.44703596  0.38595262  0.08950475  1
  Te  Te85  1  0.38857289  0.38857307  0.41795328  1
  Te  Te86  1  0.43471586  0.40504623  0.75407143  1
  Te  Te87  1  0.42458848  0.73767745  0.12615414  1
  Te  Te88  1  0.42424357  0.76506898  0.42112753  1
  Te  Te89  1  0.39816346  0.75129815  0.76026505  1
  Te  Te90  1  0.73966588  0.08910379  0.10086230  1
  Te  Te91  1  0.75254156  0.10500382  0.39869373  1
  Te  Te92  1  0.71631678  0.10812729  0.76422071  1
  Te  Te93  1  0.69131909  0.41376336  0.13702280  1
  Te  Te94  1  0.74725305  0.41881603  0.40921373  1
  Te  Te95  1  0.75913031  0.38467620  0.75056303  1
  Te  Te96  1  0.75478463  0.76190018  0.07016291  1
  Te  Te97  1  0.69218883  0.71910039  0.37167245  1
  Te  Te98  1  0.75290861  0.75567340  0.75276786  1
  Te  Te99  1  0.09308466  0.26981995  0.25041618  1
  Te  Te100  1  0.08862815  0.25844217  0.56639416  1
  Te  Te101  1  0.09687894  0.23358632  0.90471925  1
  Te  Te102  1  0.09422642  0.58169773  0.24046514  1
  Te  Te103  1  0.09177282  0.59514071  0.60076683  1
  Te  Te104  1  0.07080640  0.59203888  0.89084205  1
  Te  Te105  1  0.09678959  0.89510903  0.22370964  1
  Te  Te106  1  0.06155241  0.93422018  0.60508690  1
  Te  Te107  1  0.08519922  0.93137531  0.92121912  1
  Te  Te108  1  0.43810198  0.27380694  0.23553046  1
  Te  Te109  1  0.44953530  0.29818723  0.52328883  1
  Te  Te110  1  0.41189198  0.20117908  0.89134856  1
  Te  Te111  1  0.42258288  0.55021145  0.25195525  1
  Te  Te112  1  0.42357162  0.56875348  0.59095626  1
  Te  Te113  1  0.43016681  0.57561975  0.91143162  1
  Te  Te114  1  0.39947996  0.92171533  0.27005221  1
  Te  Te115  1  0.40569123  0.92839415  0.59164251  1
  Te  Te116  1  0.43695132  0.91621774  0.90717324  1
  Te  Te117  1  0.75125682  0.23992245  0.28209344  1
  Te  Te118  1  0.75509796  0.25090792  0.58636158  1
  Te  Te119  1  0.73896506  0.22300108  0.90645127  1
  Te  Te120  1  0.73256286  0.61207400  0.24952079  1
  Te  Te121  1  0.76080636  0.59881927  0.57257117  1
  Te  Te122  1  0.75451026  0.57482231  0.91572382  1
  Te  Te123  1  0.72428374  0.91118501  0.26492820  1
  Te  Te124  1  0.73593692  0.91523323  0.56174691  1
  Te  Te125  1  0.74858522  0.95203098  0.92479922  1
  Te  Te126  1  0.25026307  0.25605164  0.09890920  1
  Te  Te127  1  0.28311978  0.26422991  0.39925227  1
  Te  Te128  1  0.27036557  0.24671495  0.73868970  1
  Te  Te129  1  0.24912089  0.57261177  0.05803412  1
  Te  Te130  1  0.27532486  0.57821370  0.44094018  1
  Te  Te131  1  0.24678035  0.57708424  0.75346455  1
  Te  Te132  1  0.25574446  0.93857214  0.07880474  1
  Te  Te133  1  0.22690824  0.91318103  0.43815200  1
  Te  Te134  1  0.24005230  0.96249032  0.74632086  1
  Te  Te135  1  0.56639141  0.22875701  0.07578667  1
  Te  Te136  1  0.58237437  0.27681767  0.44121654  1
  Te  Te137  1  0.56252893  0.23717945  0.71620717  1
  Te  Te138  1  0.57268199  0.59134309  0.10559018  1
  Te  Te139  1  0.56075781  0.58341804  0.40693362  1
  Te  Te140  1  0.58135338  0.58634640  0.75226159  1
  Te  Te141  1  0.59017920  0.91894383  0.07929374  1
  Te  Te142  1  0.59816748  0.91726382  0.39457888  1
  Te  Te143  1  0.59415948  0.91916153  0.75981371  1
  Te  Te144  1  0.90908011  0.24001326  0.08412340  1
  Te  Te145  1  0.93325949  0.25123238  0.40558723  1
  Te  Te146  1  0.93677040  0.20944296  0.77284446  1
  Te  Te147  1  0.92511048  0.58435702  0.05871155  1
  Te  Te148  1  0.90260391  0.57221877  0.41636880  1
  Te  Te149  1  0.90890069  0.58420850  0.73919915  1
  Te  Te150  1  0.90357457  0.90599561  0.08738087  1
  Te  Te151  1  0.91173293  0.91949017  0.41202276  1
  Te  Te152  1  0.90422932  0.91476992  0.73716849  1
  Te  Te153  1  0.22850395  0.08571227  0.24799383  1
  Te  Te154  1  0.27457934  0.10973521  0.57015937  1
  Te  Te155  1  0.26367876  0.10085208  0.89595676  1
  Te  Te156  1  0.24682195  0.40112587  0.23921954  1
  Te  Te157  1  0.25434721  0.41150922  0.60126982  1
  Te  Te158  1  0.27338142  0.39264825  0.93305353  1
  Te  Te159  1  0.25680114  0.73604302  0.26658370  1
  Te  Te160  1  0.24707382  0.76470116  0.58649418  1
  Te  Te161  1  0.26223258  0.77235803  0.94417086  1
  Te  Te162  1  0.57590027  0.08157393  0.26953091  1
  Te  Te163  1  0.56765026  0.07488353  0.57390842  1
  Te  Te164  1  0.53647728  0.09943243  0.90549059  1
  Te  Te165  1  0.60882449  0.39735151  0.26718786  1
  Te  Te166  1  0.57167695  0.45410844  0.59213568  1
  Te  Te167  1  0.60282320  0.40606497  0.91850649  1
  Te  Te168  1  0.56018721  0.73364921  0.20194240  1
  Te  Te169  1  0.58266400  0.77461886  0.58435585  1
  Te  Te170  1  0.57531018  0.73922479  0.91671115  1
  Te  Te171  1  0.91894813  0.07962384  0.25542543  1
  Te  Te172  1  0.89960293  0.08537069  0.60234849  1
  Te  Te173  1  0.93626819  0.09892063  0.88348875  1
  Te  Te174  1  0.91453424  0.40948634  0.23990691  1
  Te  Te175  1  0.92960477  0.41182326  0.58700744  1
  Te  Te176  1  0.88290431  0.40204901  0.93944162  1
  Te  Te177  1  0.89896792  0.75598904  0.26324947  1
  Te  Te178  1  0.92657675  0.74283545  0.56088413  1
  Te  Te179  1  0.92274370  0.76660112  0.93012872  1
