# generated using pymatgen
data_In2Te3
_symmetry_space_group_name_H-M   'P 1'
_cell_length_a   18.88082879
_cell_length_b   18.86185309
_cell_length_c   18.87637790
_cell_angle_alpha   89.96475506
_cell_angle_beta   89.93023996
_cell_angle_gamma   90.01284297
_symmetry_Int_Tables_number   1
_chemical_formula_structural   In2Te3
_chemical_formula_sum   'In72 Te108'
_cell_volume   6722.38931350
_cell_formula_units_Z   36
loop_
 _symmetry_equiv_pos_site_id
 _symmetry_equiv_pos_as_xyz
  1  'x, y, z'
loop_
 _atom_site_type_symbol
 _atom_site_label
 _atom_site_symmetry_multiplicity
 _atom_site_fract_x
 _atom_site_fract_y
 _atom_site_fract_z
 _atom_site_occupancy
  In  In0  1  0.67007995  0.17642109  0.17264879  1
  In  In1  1  0.52432942  0.49161326  0.33241980  1
  In  In2  1  0.16580924  0.17895214  -0.01412298  1
  In  In3  1  0.80879927  0.32420194  0.17247011  1
  In  In4  1  0.31677707  0.01100889  0.65967523  1
  In  In5  1  0.36077595  0.48700794  0.20303499  1
  In  In6  1  0.52181670  0.34506255  0.50600368  1
  In  In7  1  -0.00930485  0.13764216  0.17888907  1
  In  In8  1  0.50114398  -0.00056687  0.48689271  1
  In  In9  1  0.18346544  0.01044568  0.16797249  1
  In  In10  1  0.66692702  0.32496675  0.01318661  1
  In  In11  1  0.00444490  0.33587863  -0.01933724  1
  In  In12  1  0.33920474  0.49963822  0.82086700  1
  In  In13  1  0.66436229  0.81437532  0.53026013  1
  In  In14  1  0.34190325  0.66710489  -0.00128522  1
  In  In15  1  0.81161809  0.65947375  0.18483437  1
  In  In16  1  0.33490275  0.65130864  0.66490506  1
  In  In17  1  0.16333874  0.17759558  0.66899930  1
  In  In18  1  0.16331458  0.22151925  0.36955750  1
  In  In19  1  0.14780132  0.64541081  0.17343327  1
  In  In20  1  0.18496970  0.82759548  0.66025146  1
  In  In21  1  0.49593153  0.19616948  0.34533620  1
  In  In22  1  0.66776075  -0.00052474  0.33961950  1
  In  In23  1  0.01199798  0.34600141  0.34733181  1
  In  In24  1  0.00014102  0.48831541  0.17867160  1
  In  In25  1  0.34191934  0.16882622  0.20691365  1
  In  In26  1  0.52385405  0.67481515  0.85830965  1
  In  In27  1  0.35434704  0.34863386  0.02266511  1
  In  In28  1  0.01113377  0.64671833  -0.01021651  1
  In  In29  1  0.52574407  0.64634435  0.17680113  1
  In  In30  1  0.80641744  0.67681871  0.82996936  1
  In  In31  1  0.34311872  -0.01306611  -0.01462799  1
  In  In32  1  0.17631941  0.65578458  0.50852112  1
  In  In33  1  0.00784303  0.84792899  0.50574748  1
  In  In34  1  0.66067889  0.00721245  0.65985813  1
  In  In35  1  0.32970846  0.49699461  0.50425165  1
  In  In36  1  0.66233122  0.34018674  0.65961857  1
  In  In37  1  0.18137196  0.63851855  0.83015541  1
  In  In38  1  0.19154833  0.35226409  0.19145488  1
  In  In39  1  0.34595661  -0.03022453  0.32807874  1
  In  In40  1  0.83272304  0.49881020  0.66249136  1
  In  In41  1  0.14424618  0.02440171  0.50217084  1
  In  In42  1  0.81028131  0.00881950  0.17797505  1
  In  In43  1  0.15628065  0.35491112  0.78845901  1
  In  In44  1  0.16204583  0.00682425  0.81555271  1
  In  In45  1  0.85242257  0.19443599  0.67469207  1
  In  In46  1  0.17964417  0.51923667  -0.01445955  1
  In  In47  1  0.65002386  0.66555767  0.35609012  1
  In  In48  1  0.50847151  0.15351058  0.66127907  1
  In  In49  1  0.81865871  0.00521681  0.83716500  1
  In  In50  1  0.48444911  0.33343105  0.82863568  1
  In  In51  1  -0.02103802  -0.01380639  -0.02764786  1
  In  In52  1  0.16995557  0.82824339  0.33717800  1
  In  In53  1  -0.01123255  0.18997248  0.51919812  1
  In  In54  1  0.33955429  0.34507583  0.65291602  1
  In  In55  1  -0.02108668  0.79188461  0.15124240  1
  In  In56  1  0.81496438  0.83192968  0.68476067  1
  In  In57  1  0.50326469  0.14384139  -0.00151734  1
  In  In58  1  0.53309597  -0.01322632  0.13148799  1
  In  In59  1  0.81996834  0.47340657  0.00228634  1
  In  In60  1  0.82154852  0.57119851  0.46341782  1
  In  In61  1  -0.01591301  0.00172784  0.30520703  1
  In  In62  1  0.34764046  0.82875838  0.17714745  1
  In  In63  1  0.80705072  0.82449225  0.01792070  1
  In  In64  1  0.82192661  0.35792839  0.49879360  1
  In  In65  1  0.50363428  -0.00209096  0.84067410  1
  In  In66  1  0.48838956  0.81916692  0.67971451  1
  In  In67  1  -0.00815111  0.64381264  0.64036112  1
  In  In68  1  0.66274315  0.50268333  0.83341584  1
  In  In69  1  0.82730311  0.83906220  0.32382011  1
  In  In70  1  0.00230630  0.82799172  0.82240500  1
  In  In71  1  0.82663126  0.16841630  0.00299926  1
  Te  Te72  1  0.08189240  0.07698063  0.06599367  1
  Te  Te73  1  0.05777176  0.09775402  0.39980455  1
  Te  Te74  1  0.06854957  0.08864022  0.73840913  1
  Te  Te75  1  0.09688957  0.42045604  0.07850322  1
  Te  Te76  1  0.07753195  0.44770406  0.43193231  1
  Te  Te77  1  0.03736862  0.40182235  0.71415807  1
  Te  Te78  1  0.09718273  0.74552824  0.06804003  1
  Te  Te79  1  0.07955495  0.74288708  0.42348266  1
  Te  Te80  1  0.08828704  0.73373982  0.73628268  1
  Te  Te81  1  0.40089279  0.07215827  0.10425330  1
  Te  Te82  1  0.40694203  0.08831333  0.40791845  1
  Te  Te83  1  0.41073266  0.08517871  0.75489931  1
  Te  Te84  1  0.44815718  0.44280047  0.08888952  1
  Te  Te85  1  0.41885916  0.40898607  0.41395175  1
  Te  Te86  1  0.43920321  0.43535359  0.72529944  1
  Te  Te87  1  0.43605500  0.74122075  0.08946293  1
  Te  Te88  1  0.39260694  0.83425489  0.36275341  1
  Te  Te89  1  0.40482011  0.73198003  0.77201549  1
  Te  Te90  1  0.72774051  0.07427613  0.06962434  1
  Te  Te91  1  0.77479982  0.08050219  0.39369946  1
  Te  Te92  1  0.74564800  0.09943465  0.74466238  1
  Te  Te93  1  0.72098343  0.44693668  0.12136090  1
  Te  Te94  1  0.74917482  0.45169879  0.40921501  1
  Te  Te95  1  0.75523193  0.40818488  0.75831127  1
  Te  Te96  1  0.72182638  0.72468623  0.08648810  1
  Te  Te97  1  0.76027303  0.75084334  0.42750703  1
  Te  Te98  1  0.71167136  0.73779032  0.73540777  1
  Te  Te99  1  0.08057261  0.25473487  0.23453209  1
  Te  Te100  1  0.10175843  0.27206734  0.56996297  1
  Te  Te101  1  0.08340752  0.25094680  0.88244310  1
  Te  Te102  1  0.06719752  0.57691432  0.27759249  1
  Te  Te103  1  0.08680223  0.55221310  0.57158183  1
  Te  Te104  1  0.06848716  0.55085033  0.88671902  1
  Te  Te105  1  0.08491018  0.90880252  0.23708335  1
  Te  Te106  1  0.08445603  0.92931212  0.60772846  1
  Te  Te107  1  0.09414202  0.90730441  0.91417081  1
  Te  Te108  1  0.42084998  0.28304906  0.25151544  1
  Te  Te109  1  0.42576840  0.24626325  0.57512047  1
  Te  Te110  1  0.40989561  0.24373414  0.92667645  1
  Te  Te111  1  0.42481534  0.60104943  0.28037284  1
  Te  Te112  1  0.42925909  0.58480310  0.57152390  1
  Te  Te113  1  0.42695079  0.56727221  0.92255838  1
  Te  Te114  1  0.46557071  0.90521296  0.24386858  1
  Te  Te115  1  0.41790057  0.92279663  0.58793338  1
  Te  Te116  1  0.44169173  0.89167221  0.92831557  1
  Te  Te117  1  0.71163727  0.27665158  0.27569098  1
  Te  Te118  1  0.74911570  0.24797936  0.57487510  1
  Te  Te119  1  0.75506149  0.26179993  0.91507462  1
  Te  Te120  1  0.74983581  0.57196398  0.28804245  1
  Te  Te121  1  0.75220754  0.59838491  0.58958425  1
  Te  Te122  1  0.74223458  0.58595043  0.93421999  1
  Te  Te123  1  0.72307440  0.89792615  0.23025972  1
  Te  Te124  1  0.75812273  0.92558274  0.57735844  1
  Te  Te125  1  0.74344337  0.90081777  0.90985071  1
  Te  Te126  1  0.25377294  0.24595657  0.09146869  1
  Te  Te127  1  0.27561970  0.29991451  0.41954359  1
  Te  Te128  1  0.26624521  0.25580212  0.75262129  1
  Te  Te129  1  0.26598281  0.57005962  0.09997739  1
  Te  Te130  1  0.25994210  0.58612182  0.40729270  1
  Te  Te131  1  0.23557554  0.54860982  0.72042725  1
  Te  Te132  1  0.25499035  0.90687726  0.08268228  1
  Te  Te133  1  0.23677567  0.92410174  0.43346246  1
  Te  Te134  1  0.26589566  0.90779780  0.76079447  1
  Te  Te135  1  0.56207709  0.24880460  0.09221294  1
  Te  Te136  1  0.60807687  0.26420000  0.41385683  1
  Te  Te137  1  0.58465915  0.24692813  0.75369053  1
  Te  Te138  1  0.58867212  0.53540248  0.10075985  1
  Te  Te139  1  0.57102571  0.57640459  0.44633680  1
  Te  Te140  1  0.58559487  0.59599765  0.74956311  1
  Te  Te141  1  0.57816053  0.89534738  0.02415986  1
  Te  Te142  1  0.59092423  0.89723177  0.42223815  1
  Te  Te143  1  0.58927657  0.90852408  0.75098440  1
  Te  Te144  1  0.92264552  0.25373847  0.08839314  1
  Te  Te145  1  0.90553689  0.26084571  0.41312682  1
  Te  Te146  1  0.93814240  0.28670518  0.74894510  1
  Te  Te147  1  0.91312875  0.57813792  0.08497912  1
  Te  Te148  1  0.96252493  0.54809870  0.42335855  1
  Te  Te149  1  0.91091332  0.59181265  0.75936553  1
  Te  Te150  1  0.91659608  0.92246468  0.09821139  1
  Te  Te151  1  0.91192519  0.92692397  0.41694021  1
  Te  Te152  1  0.91634010  0.92713939  0.74763651  1
  Te  Te153  1  0.22855893  0.10017724  0.28079842  1
  Te  Te154  1  0.25494680  0.10994934  0.56291070  1
  Te  Te155  1  0.25622026  0.08537549  0.90726326  1
  Te  Te156  1  0.24209347  0.45180553  0.28726669  1
  Te  Te157  1  0.23403290  0.37755820  0.54841154  1
  Te  Te158  1  0.25311830  0.40491235  0.91478482  1
  Te  Te159  1  0.24847669  0.73503708  0.24736637  1
  Te  Te160  1  0.27834565  0.75510802  0.56663798  1
  Te  Te161  1  0.24528262  0.73924677  0.91473211  1
  Te  Te162  1  0.57152631  0.08668928  0.25030768  1
  Te  Te163  1  0.59859256  0.09615019  0.55261983  1
  Te  Te164  1  0.60021513  0.08950611  0.90397998  1
  Te  Te165  1  0.60006641  0.42515933  0.22270827  1
  Te  Te166  1  0.60699362  0.44631478  0.57311996  1
  Te  Te167  1  0.57853070  0.40936051  0.92071747  1
  Te  Te168  1  0.59955876  0.75310730  0.24789477  1
  Te  Te169  1  0.54355074  0.73825524  0.56872252  1
  Te  Te170  1  0.60333663  0.75863743  0.95081297  1
  Te  Te171  1  0.86651108  0.11505724  0.27273950  1
  Te  Te172  1  0.91973645  0.08729852  0.59720803  1
  Te  Te173  1  0.92019759  0.10356756  0.90003774  1
  Te  Te174  1  0.89939397  0.41134187  0.26018972  1
  Te  Te175  1  0.92920462  0.40517073  0.59362416  1
  Te  Te176  1  0.90625167  0.41116695  0.90128432  1
  Te  Te177  1  0.92152809  0.72833124  0.27289080  1
  Te  Te178  1  0.91250957  0.76071510  0.58580865  1
  Te  Te179  1  0.91731182  0.75221997  0.92597005  1
