# generated using pymatgen
data_In2Te3
_symmetry_space_group_name_H-M   'P 1'
_cell_length_a   18.86418568
_cell_length_b   18.85623527
_cell_length_c   18.85789535
_cell_angle_alpha   90.04929909
_cell_angle_beta   90.07205069
_cell_angle_gamma   89.92476584
_symmetry_Int_Tables_number   1
_chemical_formula_structural   In2Te3
_chemical_formula_sum   'In72 Te108'
_cell_volume   6707.88168976
_cell_formula_units_Z   36
loop_
 _symmetry_equiv_pos_site_id
 _symmetry_equiv_pos_as_xyz
  1  'x, y, z'
loop_
 _atom_site_type_symbol
 _atom_site_label
 _atom_site_symmetry_multiplicity
 _atom_site_fract_x
 _atom_site_fract_y
 _atom_site_fract_z
 _atom_site_occupancy
  In  In0  1  0.05990981  0.65904903  -0.08033607  1
  In  In1  1  0.33540269  0.32747720  -0.01035106  1
  In  In2  1  0.01154257  0.16690004  0.17464172  1
  In  In3  1  0.81545184  0.34786824  0.18990793  1
  In  In4  1  0.00148309  0.51629294  0.17547021  1
  In  In5  1  0.34203226  0.83627577  0.15562646  1
  In  In6  1  0.63052947  0.87396925  0.15783713  1
  In  In7  1  0.65810511  0.66166261  0.01157493  1
  In  In8  1  0.34244597  0.33628117  0.66652114  1
  In  In9  1  -0.01034694  0.17005280  0.51569843  1
  In  In10  1  0.86247446  0.63238190  0.81709566  1
  In  In11  1  0.15365150  0.32656302  0.50447754  1
  In  In12  1  0.32859323  0.02751997  0.36379438  1
  In  In13  1  0.63084269  0.48242078  0.17129341  1
  In  In14  1  -0.00870959  0.00889352  0.66288850  1
  In  In15  1  0.47044913  0.66384531  0.84118608  1
  In  In16  1  0.33796200  0.64897759  0.32634702  1
  In  In17  1  0.82681952  0.67508580  0.52916594  1
  In  In18  1  0.81229393  0.03697688  0.17415178  1
  In  In19  1  0.50981810  0.65426962  0.49809087  1
  In  In20  1  0.18137759  0.82208569  0.00901267  1
  In  In21  1  0.68915449  0.83288512  0.50093752  1
  In  In22  1  0.15817604  0.81180230  0.69044433  1
  In  In23  1  0.35298106  0.84899449  0.83408048  1
  In  In24  1  0.15196887  0.64280586  0.49030184  1
  In  In25  1  0.00349245  0.33760149  -0.01717520  1
  In  In26  1  0.64240529  0.63485304  0.35273858  1
  In  In27  1  0.83509716  0.84302039  -0.02426166  1
  In  In28  1  0.80482213  0.18326449  0.01587909  1
  In  In29  1  0.17107972  -0.00521087  0.83640025  1
  In  In30  1  0.17785092  -0.01471140  0.15896646  1
  In  In31  1  0.84247614  0.47121142  -0.00196254  1
  In  In32  1  0.16273954  0.33231770  0.15679704  1
  In  In33  1  0.16155418  0.80087323  0.33464453  1
  In  In34  1  0.82087813  0.01565677  0.81246722  1
  In  In35  1  0.51178481  0.47095110  0.66516519  1
  In  In36  1  0.85255981  0.46109042  0.63366727  1
  In  In37  1  0.77485310  0.22085096  0.41816082  1
  In  In38  1  0.66732754  0.84275832  0.83167442  1
  In  In39  1  -0.00787058  -0.02119876  0.34761385  1
  In  In40  1  0.62925776  0.20546025  0.15283846  1
  In  In41  1  0.31972408  0.64987801  -0.00273497  1
  In  In42  1  0.39502126  0.23746725  0.16183867  1
  In  In43  1  0.15947274  0.48519687  0.67073841  1
  In  In44  1  0.33867404  0.19022527  0.51113750  1
  In  In45  1  0.82626595  0.66943482  0.16445323  1
  In  In46  1  0.66368807  0.66884343  0.65286576  1
  In  In47  1  0.17120740  0.34578905  0.83296949  1
  In  In48  1  0.81681404  0.48663826  0.36074151  1
  In  In49  1  0.34076700  0.84476251  0.50955310  1
  In  In50  1  0.51744506  0.83740740  0.31132072  1
  In  In51  1  0.16703701  0.01854168  0.52445752  1
  In  In52  1  0.82716895  0.32259012  0.83307388  1
  In  In53  1  0.49012358  0.47539477  0.34206365  1
  In  In54  1  0.33330546  0.14375231  0.81685309  1
  In  In55  1  -0.00885632  0.65296944  0.34195371  1
  In  In56  1  -0.00795909  -0.00115821  -0.00754769  1
  In  In57  1  0.51183935  0.32031212  0.81036797  1
  In  In58  1  0.47886249  0.65458274  0.16229539  1
  In  In59  1  0.17430602  0.18217042  0.32250667  1
  In  In60  1  0.64368598  0.02468414  0.67052242  1
  In  In61  1  0.84588331  0.84100950  0.67984423  1
  In  In62  1  0.85192375  0.85691205  0.34259100  1
  In  In63  1  0.32813100  0.64435220  0.67044567  1
  In  In64  1  0.67157908  0.04331368  0.34727734  1
  In  In65  1  -0.00633081  0.18840458  0.82012254  1
  In  In66  1  0.16688193  0.47096598  0.34561317  1
  In  In67  1  0.52174411  0.03891063  0.83889670  1
  In  In68  1  0.49380844  0.01560669  0.14845278  1
  In  In69  1  0.65454358  0.47933295  0.84242067  1
  In  In70  1  0.01352618  0.81622947  0.11643325  1
  In  In71  1  0.49800845  0.02915368  0.49694824  1
  Te  Te72  1  0.08970789  0.08020111  0.07719121  1
  Te  Te73  1  0.09218866  0.08556500  0.40826258  1
  Te  Te74  1  0.08640354  0.08969818  0.74962208  1
  Te  Te75  1  0.07942685  0.43207580  0.07485027  1
  Te  Te76  1  0.06195374  0.43082640  0.44591516  1
  Te  Te77  1  0.07409855  0.37722149  0.72595186  1
  Te  Te78  1  0.10446044  0.69680021  0.07036169  1
  Te  Te79  1  0.05792212  0.75555641  0.43374158  1
  Te  Te80  1  0.08340765  0.72873144  0.78345834  1
  Te  Te81  1  0.42732071  0.12204629  0.07274924  1
  Te  Te82  1  0.43232271  0.12815464  0.40175215  1
  Te  Te83  1  0.44093955  0.09401602  0.72810725  1
  Te  Te84  1  0.42533176  0.37680433  0.10155059  1
  Te  Te85  1  0.41442972  0.37245419  0.41684772  1
  Te  Te86  1  0.40741841  0.42899738  0.76737615  1
  Te  Te87  1  0.42430499  0.75258540  0.06179219  1
  Te  Te88  1  0.42361837  0.75068949  0.40599687  1
  Te  Te89  1  0.41682627  0.75274564  0.72948345  1
  Te  Te90  1  0.70580964  0.08738911  0.08063404  1
  Te  Te91  1  0.79129353  0.06867394  0.42761679  1
  Te  Te92  1  0.73637662  0.11953652  0.74482555  1
  Te  Te93  1  0.73226608  0.40764033  0.07724099  1
  Te  Te94  1  0.73769004  0.38103320  0.42720883  1
  Te  Te95  1  0.74713868  0.41750881  0.74184187  1
  Te  Te96  1  0.74734584  0.77238275  0.08035752  1
  Te  Te97  1  0.75192102  0.73673798  0.39932331  1
  Te  Te98  1  0.75572096  0.73652246  0.76003322  1
  Te  Te99  1  0.06865111  0.27451800  0.26560862  1
  Te  Te100  1  0.09564000  0.23017303  0.59922468  1
  Te  Te101  1  0.09657214  0.23759888  0.92129397  1
  Te  Te102  1  0.10272343  0.58640294  0.26483668  1
  Te  Te103  1  0.07157208  0.58479245  0.59880721  1
  Te  Te104  1  0.13074741  0.53382329  0.88341946  1
  Te  Te105  1  0.08125886  0.90195513  0.24156710  1
  Te  Te106  1  0.08629976  0.91163527  0.59218829  1
  Te  Te107  1  0.08331745  0.90153031  0.92048776  1
  Te  Te108  1  0.45723958  0.30239773  0.28883840  1
  Te  Te109  1  0.44895118  0.25542542  0.59598609  1
  Te  Te110  1  0.42056106  0.23802895  0.90164789  1
  Te  Te111  1  0.40258572  0.54639874  0.23487415  1
  Te  Te112  1  0.42014427  0.56290349  0.58035001  1
  Te  Te113  1  0.40928437  0.55853396  0.92217948  1
  Te  Te114  1  0.40626215  0.92922059  0.26107848  1
  Te  Te115  1  0.41350063  0.94614166  0.58654459  1
  Te  Te116  1  0.43462308  0.94283355  0.91526659  1
  Te  Te117  1  0.74504379  0.23185485  0.24784922  1
  Te  Te118  1  0.73075495  0.28613242  0.55406776  1
  Te  Te119  1  0.71749901  0.25696531  0.91608774  1
  Te  Te120  1  0.74527478  0.56700516  0.24220916  1
  Te  Te121  1  0.74112563  0.56066124  0.58205706  1
  Te  Te122  1  0.75181607  0.58109852  0.92042618  1
  Te  Te123  1  0.73779717  0.92400800  0.25697853  1
  Te  Te124  1  0.74662276  0.92705022  0.60458058  1
  Te  Te125  1  0.73771462  0.94563343  0.92011038  1
  Te  Te126  1  0.25357830  0.23818090  0.08212942  1
  Te  Te127  1  0.26331962  0.27214822  0.40484423  1
  Te  Te128  1  0.24744592  0.24742297  0.74302461  1
  Te  Te129  1  0.22321260  0.60189287  0.09476123  1
  Te  Te130  1  0.26553183  0.56378083  0.42681594  1
  Te  Te131  1  0.23828936  0.57452093  0.76569160  1
  Te  Te132  1  0.27726478  0.93264678  0.05674738  1
  Te  Te133  1  0.23728065  0.91078851  0.40997797  1
  Te  Te134  1  0.25743257  0.91780169  0.73640152  1
  Te  Te135  1  0.55675642  0.30215515  0.06577857  1
  Te  Te136  1  0.62379338  0.23358571  0.45045712  1
  Te  Te137  1  0.62317033  0.22733468  0.77022258  1
  Te  Te138  1  0.55596940  0.56304691  0.06523502  1
  Te  Te139  1  0.58809404  0.53290662  0.44824780  1
  Te  Te140  1  0.58046095  0.58793497  0.75202566  1
  Te  Te141  1  0.55076699  0.92391835  0.04417376  1
  Te  Te142  1  0.58823591  0.92155896  0.41714071  1
  Te  Te143  1  0.56901844  0.91698532  0.74599469  1
  Te  Te144  1  0.91712709  0.25958442  0.08934512  1
  Te  Te145  1  0.92274274  0.26985524  0.42664052  1
  Te  Te146  1  0.89500634  0.24483183  0.72471493  1
  Te  Te147  1  0.91298127  0.58587635  0.07122970  1
  Te  Te148  1  0.90873064  0.57685469  0.44206831  1
  Te  Te149  1  0.93537976  0.56422423  0.70748895  1
  Te  Te150  1  0.90074197  0.93339084  0.09680566  1
  Te  Te151  1  0.90366612  0.93380087  0.45812855  1
  Te  Te152  1  0.93253333  0.91986332  0.77629003  1
  Te  Te153  1  0.25947823  0.08697629  0.24003904  1
  Te  Te154  1  0.28120927  0.07987283  0.59281769  1
  Te  Te155  1  0.25447855  0.07790823  0.92325118  1
  Te  Te156  1  0.25269901  0.41191272  0.24205454  1
  Te  Te157  1  0.25622170  0.41870738  0.57335288  1
  Te  Te158  1  0.23816953  0.43198976  0.93882982  1
  Te  Te159  1  0.25499344  0.73709238  0.23225827  1
  Te  Te160  1  0.24729208  0.74137287  0.57243514  1
  Te  Te161  1  0.25736557  0.75007195  0.89826078  1
  Te  Te162  1  0.56975163  0.09987561  0.25286088  1
  Te  Te163  1  0.60968048  0.11266629  0.55345972  1
  Te  Te164  1  0.61128717  0.13934443  0.90399732  1
  Te  Te165  1  0.59606684  0.38560735  0.27846661  1
  Te  Te166  1  0.56984108  0.35349102  0.59792885  1
  Te  Te167  1  0.56395087  0.40029729  0.92823871  1
  Te  Te168  1  0.59288326  0.72934648  0.23307466  1
  Te  Te169  1  0.57416373  0.76726049  0.57878808  1
  Te  Te170  1  0.57978423  0.74777157  0.91280586  1
  Te  Te171  1  0.91928165  0.09046441  0.26775588  1
  Te  Te172  1  0.89304571  0.10758120  0.61038077  1
  Te  Te173  1  0.90256139  0.10247793  0.92287422  1
  Te  Te174  1  0.92202431  0.42381557  0.26678951  1
  Te  Te175  1  0.93318271  0.38335054  0.53457776  1
  Te  Te176  1  0.93060259  0.42598940  0.88291811  1
  Te  Te177  1  0.92563867  0.75373314  0.24411471  1
  Te  Te178  1  0.92989206  0.75135004  0.60015029  1
  Te  Te179  1  0.92168698  0.73499770  0.91719697  1
