# generated using pymatgen
data_In2Te3
_symmetry_space_group_name_H-M   'P 1'
_cell_length_a   18.98925041
_cell_length_b   18.99395528
_cell_length_c   19.01464577
_cell_angle_alpha   89.79990261
_cell_angle_beta   89.95486829
_cell_angle_gamma   89.88399755
_symmetry_Int_Tables_number   1
_chemical_formula_structural   In2Te3
_chemical_formula_sum   'In72 Te108'
_cell_volume   6858.16297027
_cell_formula_units_Z   36
loop_
 _symmetry_equiv_pos_site_id
 _symmetry_equiv_pos_as_xyz
  1  'x, y, z'
loop_
 _atom_site_type_symbol
 _atom_site_label
 _atom_site_symmetry_multiplicity
 _atom_site_fract_x
 _atom_site_fract_y
 _atom_site_fract_z
 _atom_site_occupancy
  In  In0  1  -0.00967970  0.48391002  0.50861011  1
  In  In1  1  0.51836790  0.34345755  0.18786350  1
  In  In2  1  0.32122650  0.47809113  0.17754026  1
  In  In3  1  0.15306391  0.66549912  0.18745396  1
  In  In4  1  0.63984483  -0.04796403  0.34949623  1
  In  In5  1  0.82541505  0.13369341  0.67382538  1
  In  In6  1  0.34032133  0.67770002  0.34124045  1
  In  In7  1  0.17498325  0.15788143  0.01665749  1
  In  In8  1  0.67276767  0.33755830  -0.00776069  1
  In  In9  1  0.34051178  0.80902760  0.82284939  1
  In  In10  1  0.54157947  -0.03325423  0.18547517  1
  In  In11  1  0.14653823  0.47836310  0.00083272  1
  In  In12  1  0.82686396  0.50274751  0.65754818  1
  In  In13  1  0.85231976  0.19369752  0.31816996  1
  In  In14  1  0.34338611  0.67442653  0.01834973  1
  In  In15  1  0.66113865  0.19265086  0.49695326  1
  In  In16  1  0.84463941  0.01176817  0.14875687  1
  In  In17  1  0.18050940  0.35817343  0.81955652  1
  In  In18  1  0.79731459  0.49827049  0.34068529  1
  In  In19  1  0.65051065  0.01165692  0.68005596  1
  In  In20  1  0.01619502  0.32857036  0.35893059  1
  In  In21  1  0.02586722  -0.00352479  0.36267048  1
  In  In22  1  0.02476955  -0.00021400  0.68086363  1
  In  In23  1  0.02644585  0.18758955  0.53724267  1
  In  In24  1  0.51473058  0.65261895  0.48340220  1
  In  In25  1  0.65943686  0.65356215  0.65126272  1
  In  In26  1  0.31908886  0.65082809  0.64631440  1
  In  In27  1  0.51759167  0.00285886  0.85857824  1
  In  In28  1  0.16730526  0.83989286  -0.00952631  1
  In  In29  1  0.16690250  0.64839975  0.50395369  1
  In  In30  1  0.50229669  0.82279691  0.62643108  1
  In  In31  1  0.48930237  0.49095474  0.64260589  1
  In  In32  1  0.52998584  0.52812069  0.00587362  1
  In  In33  1  0.32293986  -0.02429157  0.66152089  1
  In  In34  1  0.84199623  0.33368650  0.80672327  1
  In  In35  1  0.48936593  0.32836945  0.81669388  1
  In  In36  1  0.00230832  0.14055538  0.84177095  1
  In  In37  1  0.18130907  0.82989872  0.35140817  1
  In  In38  1  0.14867571  0.50733721  0.66960945  1
  In  In39  1  0.33756025  0.17040836  0.84725418  1
  In  In40  1  -0.00747488  0.68225012  -0.03282121  1
  In  In41  1  0.47181074  0.48732800  0.33668450  1
  In  In42  1  0.65235568  0.34597225  0.67052263  1
  In  In43  1  -0.03077709  0.82220231  0.17838101  1
  In  In44  1  0.82962537  -0.00347000  0.47759795  1
  In  In45  1  0.18949856  0.00955427  0.49851910  1
  In  In46  1  -0.01664694  0.30246462  -0.01672687  1
  In  In47  1  0.82712915  0.37786515  0.16343523  1
  In  In48  1  0.34630565  0.18415901  0.51022658  1
  In  In49  1  -0.00568962  0.63712061  0.33504819  1
  In  In50  1  -0.01156568  0.52645512  0.17438477  1
  In  In51  1  0.17360734  0.35096714  0.17642804  1
  In  In52  1  0.35433489  -0.00054180  0.00996841  1
  In  In53  1  0.16187179  0.80473091  0.68021370  1
  In  In54  1  0.82542198  0.14969069  -0.00901855  1
  In  In55  1  0.49880790  0.16143333  0.67316642  1
  In  In56  1  -0.02048051  0.50715508  0.82400495  1
  In  In57  1  0.35882011  0.32548497  -0.00883527  1
  In  In58  1  0.81402787  0.84830910  0.65791458  1
  In  In59  1  0.01107664  0.17729687  0.15980541  1
  In  In60  1  0.54607344  0.67738842  0.85677481  1
  In  In61  1  0.50545682  0.20509716  0.34558723  1
  In  In62  1  -0.01946280  0.82293914  0.52361279  1
  In  In63  1  0.38426577  0.07747602  0.21344486  1
  In  In64  1  0.67944365  0.85564677  0.84789451  1
  In  In65  1  0.78908406  0.55242358  -0.02343479  1
  In  In66  1  0.68924542  0.81646334  0.19626314  1
  In  In67  1  -0.01153257  0.83068859  0.83882413  1
  In  In68  1  0.16138996  0.01077834  0.16730866  1
  In  In69  1  0.33104756  0.34582168  0.64164560  1
  In  In70  1  0.49772190  0.70899364  0.16958286  1
  In  In71  1  0.68212849  0.16083722  0.17843637  1
  Te  Te72  1  0.06185633  0.07029433  0.06729497  1
  Te  Te73  1  0.10038215  0.10962352  0.42680263  1
  Te  Te74  1  0.10427769  0.10364991  0.74402973  1
  Te  Te75  1  0.05220628  0.39962774  0.08949992  1
  Te  Te76  1  0.10679029  0.40425592  0.45191229  1
  Te  Te77  1  0.05973520  0.40607456  0.74376865  1
  Te  Te78  1  0.07388947  0.74499191  0.08482068  1
  Te  Te79  1  0.07252196  0.74371723  0.41616149  1
  Te  Te80  1  0.05106798  0.73687667  0.74359110  1
  Te  Te81  1  0.46717507  0.06149598  0.08494972  1
  Te  Te82  1  0.42549588  0.10561150  0.41556008  1
  Te  Te83  1  0.41318825  0.06861462  0.75856622  1
  Te  Te84  1  0.43105035  0.42803926  0.07953769  1
  Te  Te85  1  0.39582487  0.38125936  0.40430305  1
  Te  Te86  1  0.39949301  0.42895642  0.74931090  1
  Te  Te87  1  0.41579462  0.78639308  0.07530040  1
  Te  Te88  1  0.42693599  0.76155806  0.42626299  1
  Te  Te89  1  0.42301074  0.73264932  0.72146816  1
  Te  Te90  1  0.72463346  0.06487322  0.06945298  1
  Te  Te91  1  0.76086751  0.11429422  0.41145347  1
  Te  Te92  1  0.74508443  0.06576027  0.78202831  1
  Te  Te93  1  0.72949137  0.45147198  0.07484803  1
  Te  Te94  1  0.74277205  0.37706058  0.39934755  1
  Te  Te95  1  0.73530841  0.42987468  0.76350463  1
  Te  Te96  1  0.73662865  0.69387094  0.12082692  1
  Te  Te97  1  0.70859357  0.81656013  0.35382060  1
  Te  Te98  1  0.72668511  0.75793605  0.74167358  1
  Te  Te99  1  0.09810379  0.24682401  0.25958927  1
  Te  Te100  1  0.12110270  0.29577377  0.56081799  1
  Te  Te101  1  0.11076890  0.25680141  0.91759806  1
  Te  Te102  1  0.10268867  0.54917416  0.27152718  1
  Te  Te103  1  0.05413448  0.59646335  0.58942517  1
  Te  Te104  1  0.08594188  0.57847175  0.90512263  1
  Te  Te105  1  0.07911713  0.90241758  0.24826516  1
  Te  Te106  1  0.09407147  0.91446275  0.57310310  1
  Te  Te107  1  0.07795195  0.92210561  0.91092618  1
  Te  Te108  1  0.42161111  0.23476621  0.22481245  1
  Te  Te109  1  0.44930377  0.27175933  0.58275072  1
  Te  Te110  1  0.45211676  0.22462341  0.92733619  1
  Te  Te111  1  0.40739916  0.59135599  0.22964858  1
  Te  Te112  1  0.40308770  0.57118240  0.54857509  1
  Te  Te113  1  0.42789421  0.59853520  0.91943373  1
  Te  Te114  1  0.41599583  0.93455636  0.26010915  1
  Te  Te115  1  0.42294650  0.93104021  0.56592586  1
  Te  Te116  1  0.42033917  0.90054243  0.91458514  1
  Te  Te117  1  0.74594054  0.28064764  0.24952550  1
  Te  Te118  1  0.75059311  0.24759699  0.60514075  1
  Te  Te119  1  0.75557730  0.24974593  0.90170738  1
  Te  Te120  1  0.78659402  0.60190709  0.23749909  1
  Te  Te121  1  0.71823711  0.54786191  0.56474180  1
  Te  Te122  1  0.68267455  0.62011384  0.90447090  1
  Te  Te123  1  0.76650750  0.94355467  0.25744149  1
  Te  Te124  1  0.72686158  0.93581091  0.56962233  1
  Te  Te125  1  0.79133560  0.87978496  0.94088810  1
  Te  Te126  1  0.25967991  0.26109087  0.08675520  1
  Te  Te127  1  0.28182873  0.27769552  0.41495252  1
  Te  Te128  1  0.26373972  0.25472906  0.74670947  1
  Te  Te129  1  0.23075258  0.57179698  0.08866885  1
  Te  Te130  1  0.24273052  0.58344349  0.39716415  1
  Te  Te131  1  0.23749846  0.59036147  0.75043958  1
  Te  Te132  1  0.25180008  0.91871912  0.08808274  1
  Te  Te133  1  0.26514951  0.94005896  0.39494772  1
  Te  Te134  1  0.23720859  0.90496409  0.76423058  1
  Te  Te135  1  0.59640608  0.25255746  0.09117646  1
  Te  Te136  1  0.60686692  0.29877444  0.40448411  1
  Te  Te137  1  0.59563781  0.23577213  0.76092330  1
  Te  Te138  1  0.59834697  0.62037131  0.10004626  1
  Te  Te139  1  0.58709788  0.56777964  0.38557513  1
  Te  Te140  1  0.56441409  0.57688139  0.73976535  1
  Te  Te141  1  0.61023719  0.88247450  0.08589166  1
  Te  Te142  1  0.50437348  0.90225157  0.38516385  1
  Te  Te143  1  0.56491850  0.90313835  0.74422518  1
  Te  Te144  1  0.88741470  0.24729185  0.09676904  1
  Te  Te145  1  0.92008575  0.24803959  0.44261467  1
  Te  Te146  1  0.92604420  0.22558389  0.74131014  1
  Te  Te147  1  0.91334621  0.58867060  0.05739823  1
  Te  Te148  1  0.89549383  0.57405291  0.43032471  1
  Te  Te149  1  0.87951369  0.59189675  0.76125497  1
  Te  Te150  1  0.89557565  0.89437169  0.07191174  1
  Te  Te151  1  0.91866406  0.89803458  0.40540852  1
  Te  Te152  1  0.91085206  0.92494350  0.74468443  1
  Te  Te153  1  0.24348230  0.09761779  0.24924293  1
  Te  Te154  1  0.25622766  0.09783065  0.60014984  1
  Te  Te155  1  0.25215331  0.06971386  0.92099185  1
  Te  Te156  1  0.26861400  0.39031759  0.28725468  1
  Te  Te157  1  0.23601863  0.43548762  0.57209275  1
  Te  Te158  1  0.26740879  0.42647493  0.92298290  1
  Te  Te159  1  0.25716220  0.75973476  0.23996733  1
  Te  Te160  1  0.24930360  0.76054544  0.56617943  1
  Te  Te161  1  0.24645029  0.73455053  0.91647075  1
  Te  Te162  1  0.59843968  0.08739799  0.27881546  1
  Te  Te163  1  0.57802933  0.08669157  0.56792966  1
  Te  Te164  1  0.64379874  0.05772046  0.90161255  1
  Te  Te165  1  0.58917573  0.45631395  0.24934700  1
  Te  Te166  1  0.60070207  0.43429528  0.56210543  1
  Te  Te167  1  0.57184124  0.41619664  0.91090955  1
  Te  Te168  1  0.58410922  0.74778405  0.28409661  1
  Te  Te169  1  0.61061662  0.75361612  0.54732748  1
  Te  Te170  1  0.59799715  0.78115677  0.94990893  1
  Te  Te171  1  0.93912944  0.07923929  0.25999956  1
  Te  Te172  1  0.92538905  0.06535689  0.57443656  1
  Te  Te173  1  0.91291095  0.05755127  0.91970805  1
  Te  Te174  1  0.92833954  0.41781903  0.27015817  1
  Te  Te175  1  0.90341140  0.39873297  0.58888398  1
  Te  Te176  1  0.90136303  0.41304521  0.92341830  1
  Te  Te177  1  0.89576065  0.72272835  0.26008226  1
  Te  Te178  1  0.86529664  0.74562787  0.56563313  1
  Te  Te179  1  0.87558400  0.75401474  0.90614745  1
