# generated using pymatgen
data_In2Te3
_symmetry_space_group_name_H-M   'P 1'
_cell_length_a   18.92921472
_cell_length_b   18.95014596
_cell_length_c   18.95200458
_cell_angle_alpha   90.03199509
_cell_angle_beta   90.05435989
_cell_angle_gamma   90.10622797
_symmetry_Int_Tables_number   1
_chemical_formula_structural   In2Te3
_chemical_formula_sum   'In72 Te108'
_cell_volume   6798.28393841
_cell_formula_units_Z   36
loop_
 _symmetry_equiv_pos_site_id
 _symmetry_equiv_pos_as_xyz
  1  'x, y, z'
loop_
 _atom_site_type_symbol
 _atom_site_label
 _atom_site_symmetry_multiplicity
 _atom_site_fract_x
 _atom_site_fract_y
 _atom_site_fract_z
 _atom_site_occupancy
  In  In0  1  0.84562349  0.29553322  0.83950765  1
  In  In1  1  0.68055566  0.02030820  0.68516713  1
  In  In2  1  0.49152666  0.81331622  0.33065083  1
  In  In3  1  0.51886926  0.63484102  0.79023687  1
  In  In4  1  0.34871713  0.85370291  0.83975030  1
  In  In5  1  0.50055496  0.50625109  0.00864271  1
  In  In6  1  0.66393169  -0.00996579  0.31718163  1
  In  In7  1  0.47810565  0.33438925  0.51680218  1
  In  In8  1  0.18981744  0.68025430  0.48739296  1
  In  In9  1  0.32303133  0.16933154  0.83393285  1
  In  In10  1  0.18950670  0.81939509  0.29882250  1
  In  In11  1  0.14248409  0.65939784  0.87331361  1
  In  In12  1  0.34716234  0.52341192  0.16268725  1
  In  In13  1  0.34997663  -0.00757128  0.65954185  1
  In  In14  1  0.86582227  0.09313390  0.30065139  1
  In  In15  1  -0.00833246  -0.00442449  0.64457890  1
  In  In16  1  0.66642795  0.16475424  0.14862192  1
  In  In17  1  0.67469093  0.67609334  -0.00356392  1
  In  In18  1  0.35324064  0.51971356  0.49821051  1
  In  In19  1  -0.01216283  0.14772698  0.49596848  1
  In  In20  1  0.15076400  0.81282480  0.05977784  1
  In  In21  1  -0.02638816  0.85564424  0.43548819  1
  In  In22  1  0.82275722  0.35064024  0.15809731  1
  In  In23  1  0.33289587  0.33552732  0.33442048  1
  In  In24  1  0.00374425  0.33333625  0.35595957  1
  In  In25  1  0.14467932  0.48805042  0.67942524  1
  In  In26  1  0.15471669  0.49355591  -0.00115959  1
  In  In27  1  -0.03626897  0.66425881  0.66396600  1
  In  In28  1  0.51349967  0.17582903  0.00055800  1
  In  In29  1  0.64546745  0.33571761  0.35111803  1
  In  In30  1  0.80213590  0.49850183  0.34997410  1
  In  In31  1  -0.00033084  0.31035397  0.69750015  1
  In  In32  1  0.84684586  0.14753119  0.01457076  1
  In  In33  1  0.81857805  0.67596143  0.83432444  1
  In  In34  1  0.66050500  0.82102026  0.50058869  1
  In  In35  1  0.66853491  0.51628909  0.16173817  1
  In  In36  1  0.50798837  -0.01740029  0.16318317  1
  In  In37  1  0.66495414  0.00210262  0.00465122  1
  In  In38  1  0.49324740  0.33343765  0.81558442  1
  In  In39  1  0.65901138  0.16452815  0.50623705  1
  In  In40  1  0.48981583  0.83686718  0.00477961  1
  In  In41  1  0.66481548  0.83480397  0.84850287  1
  In  In42  1  -0.01030324  0.53560192  0.17199522  1
  In  In43  1  0.86036069  0.85107714  0.02949268  1
  In  In44  1  -0.00031441  0.86151407  0.82917822  1
  In  In45  1  0.18199289  0.79984128  0.67241039  1
  In  In46  1  0.33126702  0.67995199  0.01324163  1
  In  In47  1  0.01298584  0.72561068  0.25544002  1
  In  In48  1  0.33054955  0.65240594  0.65628735  1
  In  In49  1  0.49013372  0.16859611  0.65240750  1
  In  In50  1  0.16203314  0.00465447  0.86463661  1
  In  In51  1  0.18532514  0.33114358  0.16217897  1
  In  In52  1  0.17455438  -0.02298452  0.50605653  1
  In  In53  1  0.67968300  0.31542222  0.65653489  1
  In  In54  1  0.65771630  0.49423271  0.49268267  1
  In  In55  1  0.50905166  0.83571226  0.65479120  1
  In  In56  1  0.01517458  0.32322420  -0.00986353  1
  In  In57  1  0.32882983  0.48891373  0.83933750  1
  In  In58  1  0.83090694  0.48588108  0.67034692  1
  In  In59  1  0.81951784  0.65888029  0.50231803  1
  In  In60  1  0.48297313  0.37148506  0.17320998  1
  In  In61  1  0.35704258  0.02417641  0.37218167  1
  In  In62  1  0.01098010  0.48992274  0.51184485  1
  In  In63  1  0.66956634  0.67956646  0.31962319  1
  In  In64  1  0.82323888  0.84555062  0.66778318  1
  In  In65  1  0.18763019  0.33351386  0.51189270  1
  In  In66  1  0.32525455  0.16557779  0.15287708  1
  In  In67  1  0.68235515  0.34600893  -0.01621623  1
  In  In68  1  0.15209750  0.00865549  0.15047219  1
  In  In69  1  -0.01276924  0.14975484  0.85773549  1
  In  In70  1  0.17948743  0.16353163  0.67837309  1
  In  In71  1  0.16573459  0.16441484  0.35052019  1
  Te  Te72  1  0.05773747  0.08568994  0.06680116  1
  Te  Te73  1  0.08174587  0.05705885  0.41606964  1
  Te  Te74  1  0.08278472  0.07072833  0.74862735  1
  Te  Te75  1  0.06698445  0.41983628  0.11007954  1
  Te  Te76  1  0.11005381  0.42381424  0.41744530  1
  Te  Te77  1  0.06480457  0.41492477  0.77697671  1
  Te  Te78  1  0.04932285  0.71239159  0.10389013  1
  Te  Te79  1  0.08297980  0.74934001  0.40230565  1
  Te  Te80  1  0.06484747  0.74144538  0.75657608  1
  Te  Te81  1  0.42581198  0.07843396  0.07814764  1
  Te  Te82  1  0.45231878  0.11039451  0.43910051  1
  Te  Te83  1  0.42170690  0.08054002  0.75768448  1
  Te  Te84  1  0.39057484  0.41637879  0.06210031  1
  Te  Te85  1  0.43093378  0.42720175  0.40538953  1
  Te  Te86  1  0.42156664  0.43649859  0.73959856  1
  Te  Te87  1  0.39684361  0.77638368  0.10385834  1
  Te  Te88  1  0.38777379  0.71256496  0.37581325  1
  Te  Te89  1  0.41232385  0.74831265  0.75095038  1
  Te  Te90  1  0.76380623  0.05824204  0.10694865  1
  Te  Te91  1  0.73566157  0.10480131  0.38817588  1
  Te  Te92  1  0.77124116  0.10650719  0.75906765  1
  Te  Te93  1  0.76296906  0.45064745  0.06191433  1
  Te  Te94  1  0.75531778  0.38837551  0.44387006  1
  Te  Te95  1  0.75477170  0.39389211  0.76311495  1
  Te  Te96  1  0.77353779  0.74354261  0.08318492  1
  Te  Te97  1  0.76479493  0.76178761  0.40765327  1
  Te  Te98  1  0.72795709  0.75212121  0.73736701  1
  Te  Te99  1  0.08968553  0.25445490  0.25743274  1
  Te  Te100  1  0.08112557  0.24464688  0.57544119  1
  Te  Te101  1  0.09506122  0.23694095  0.90292315  1
  Te  Te102  1  0.07905471  0.59519133  0.27124200  1
  Te  Te103  1  0.08581573  0.60382060  0.58431600  1
  Te  Te104  1  0.04211053  0.57789382  0.94568796  1
  Te  Te105  1  0.08435723  0.91347863  0.24609685  1
  Te  Te106  1  0.08599639  0.88817628  0.59073876  1
  Te  Te107  1  0.08865340  0.89993106  0.94540504  1
  Te  Te108  1  0.41692282  0.25195505  0.23968052  1
  Te  Te109  1  0.38815588  0.26595314  0.61070775  1
  Te  Te110  1  0.41516127  0.25938501  0.92194635  1
  Te  Te111  1  0.41810743  0.62109842  0.24889953  1
  Te  Te112  1  0.44630563  0.59828484  0.58298354  1
  Te  Te113  1  0.41194890  0.59426391  0.91451998  1
  Te  Te114  1  0.41223891  0.92875451  0.26648771  1
  Te  Te115  1  0.41457074  0.90336770  0.56337192  1
  Te  Te116  1  0.42783052  0.94256938  0.92368213  1
  Te  Te117  1  0.73038522  0.26623941  0.24330206  1
  Te  Te118  1  0.76888417  0.23498808  0.57305028  1
  Te  Te119  1  0.74543991  0.22050265  0.92772369  1
  Te  Te120  1  0.77305813  0.59510769  0.23889383  1
  Te  Te121  1  0.73497202  0.58669688  0.60503254  1
  Te  Te122  1  0.73552732  0.57867969  0.90597703  1
  Te  Te123  1  0.77940757  0.91602294  0.25746260  1
  Te  Te124  1  0.74023045  0.92827308  0.57283486  1
  Te  Te125  1  0.76344400  0.91811339  0.92435992  1
  Te  Te126  1  0.23123694  0.23384545  0.06410176  1
  Te  Te127  1  0.27212241  0.23626712  0.43179703  1
  Te  Te128  1  0.25395752  0.26795364  0.74772112  1
  Te  Te129  1  0.23342988  0.59053525  0.08661318  1
  Te  Te130  1  0.25681958  0.58057370  0.40424435  1
  Te  Te131  1  0.23044453  0.59473723  0.76216063  1
  Te  Te132  1  0.25028026  0.91341884  0.09482810  1
  Te  Te133  1  0.25977597  0.90558866  0.40433425  1
  Te  Te134  1  0.23870148  0.91868733  0.74911080  1
  Te  Te135  1  0.58642204  0.29026481  0.09007954  1
  Te  Te136  1  0.54669125  0.23490460  0.41709546  1
  Te  Te137  1  0.58779138  0.23600567  0.74817153  1
  Te  Te138  1  0.57004240  0.60898987  0.09340752  1
  Te  Te139  1  0.59132209  0.59685213  0.41306311  1
  Te  Te140  1  0.62855021  0.57322844  0.72114548  1
  Te  Te141  1  0.60527935  0.89168314  0.09004721  1
  Te  Te142  1  0.57538577  0.91263923  0.41343188  1
  Te  Te143  1  0.58435915  0.92266833  0.75442113  1
  Te  Te144  1  0.91923671  0.25528816  0.09284402  1
  Te  Te145  1  0.91039850  0.21866836  0.38644201  1
  Te  Te146  1  0.90018139  0.19344879  0.73163747  1
  Te  Te147  1  0.93138572  0.61371078  0.06267349  1
  Te  Te148  1  0.91605141  0.57251254  0.42495302  1
  Te  Te149  1  0.91392739  0.56904391  0.76712538  1
  Te  Te150  1  0.94737056  0.90441714  0.14337469  1
  Te  Te151  1  0.88324043  0.95735111  0.37026778  1
  Te  Te152  1  0.89752864  0.94480029  0.75533657  1
  Te  Te153  1  0.25461603  0.08031390  0.25940047  1
  Te  Te154  1  0.25835568  0.08221196  0.57734731  1
  Te  Te155  1  0.26657342  0.07713958  0.93498289  1
  Te  Te156  1  0.25592739  0.43285956  0.24871621  1
  Te  Te157  1  0.25772886  0.43987020  0.59259641  1
  Te  Te158  1  0.23318598  0.40573596  0.91197654  1
  Te  Te159  1  0.29752587  0.72945227  0.24818953  1
  Te  Te160  1  0.28542601  0.76892529  0.56646709  1
  Te  Te161  1  0.24586780  0.76390099  0.91444357  1
  Te  Te162  1  0.57454833  0.09256929  0.24472359  1
  Te  Te163  1  0.57331620  0.06431101  0.58059700  1
  Te  Te164  1  0.58610121  0.08416498  0.91345767  1
  Te  Te165  1  0.58179467  0.44426307  0.26335428  1
  Te  Te166  1  0.58074609  0.41351856  0.59505866  1
  Te  Te167  1  0.57866049  0.42585732  0.90742283  1
  Te  Te168  1  0.59785159  0.77724415  0.23566665  1
  Te  Te169  1  0.56377603  0.72984663  0.56638017  1
  Te  Te170  1  0.55947413  0.74152274  0.90575433  1
  Te  Te171  1  0.96418539  0.06387411  0.18924170  1
  Te  Te172  1  0.89280310  0.05078076  0.55232530  1
  Te  Te173  1  0.94408937  0.04795046  0.95793891  1
  Te  Te174  1  0.90755883  0.41597512  0.26839602  1
  Te  Te175  1  0.92519989  0.39507500  0.59257152  1
  Te  Te176  1  0.91040465  0.39878622  0.92069705  1
  Te  Te177  1  0.88220442  0.79681354  0.23446441  1
  Te  Te178  1  0.91209724  0.76918436  0.56643342  1
  Te  Te179  1  0.91451698  0.76564369  0.91090321  1
