# generated using pymatgen
data_In2Te3
_symmetry_space_group_name_H-M   'P 1'
_cell_length_a   18.95226308
_cell_length_b   18.92856813
_cell_length_c   18.95981173
_cell_angle_alpha   89.94041522
_cell_angle_beta   90.04961527
_cell_angle_gamma   89.84128199
_symmetry_Int_Tables_number   1
_chemical_formula_structural   In2Te3
_chemical_formula_sum   'In72 Te108'
_cell_volume   6801.59540544
_cell_formula_units_Z   36
loop_
 _symmetry_equiv_pos_site_id
 _symmetry_equiv_pos_as_xyz
  1  'x, y, z'
loop_
 _atom_site_type_symbol
 _atom_site_label
 _atom_site_symmetry_multiplicity
 _atom_site_fract_x
 _atom_site_fract_y
 _atom_site_fract_z
 _atom_site_occupancy
  In  In0  1  0.30447047  0.35110126  -0.00155789  1
  In  In1  1  0.51017755  0.16485195  0.67039290  1
  In  In2  1  -0.01200536  -0.00668560  -0.01807169  1
  In  In3  1  0.65424323  0.13089210  0.15154786  1
  In  In4  1  0.14805161  0.66623715  0.47057984  1
  In  In5  1  0.20177012  0.00213781  0.50923882  1
  In  In6  1  0.17577313  0.19095267  0.33602508  1
  In  In7  1  0.00648228  0.51787551  0.16300489  1
  In  In8  1  0.33661503  0.67377932  0.32416639  1
  In  In9  1  0.34511899  0.68564568  0.68011898  1
  In  In10  1  0.00286998  0.18169912  0.51969023  1
  In  In11  1  0.48372557  -0.02237563  0.48836741  1
  In  In12  1  0.81611905  0.00001899  0.82488039  1
  In  In13  1  0.82668047  0.79381914  0.33095276  1
  In  In14  1  0.89301503  0.36589684  0.49449929  1
  In  In15  1  0.02825319  0.17351879  0.18749478  1
  In  In16  1  0.29233981  0.19861257  0.83387579  1
  In  In17  1  0.67514424  0.82818986  0.50009298  1
  In  In18  1  0.69094930  0.64342786  0.64794999  1
  In  In19  1  0.49573616  0.82304769  0.00680277  1
  In  In20  1  0.03108947  0.35355655  -0.01068650  1
  In  In21  1  0.33330198  0.19084350  0.15695537  1
  In  In22  1  0.85417004  0.16328711  0.67124151  1
  In  In23  1  0.49594279  -0.00040600  0.17983065  1
  In  In24  1  -0.00434894  0.00112811  0.34951623  1
  In  In25  1  0.34074529  0.34960713  0.31135699  1
  In  In26  1  0.16046013  0.01567252  0.83159499  1
  In  In27  1  0.32265566  0.80506812  0.13825563  1
  In  In28  1  0.50442834  0.48193560  0.68150757  1
  In  In29  1  0.32214220  0.15798923  0.52079587  1
  In  In30  1  0.84382222  0.35689980  0.84279082  1
  In  In31  1  0.66060129  0.51453042  0.84795392  1
  In  In32  1  0.64454836  0.32810256  0.00115424  1
  In  In33  1  0.30645702  0.80826178  0.87464302  1
  In  In34  1  0.01423783  0.82533741  0.82538520  1
  In  In35  1  0.86609717  0.53054610  0.34038396  1
  In  In36  1  0.69295284  0.34455121  0.33183452  1
  In  In37  1  0.14307161  0.49666813  0.66938526  1
  In  In38  1  0.01958224  0.81797194  0.49428410  1
  In  In39  1  0.31127919  0.52192033  0.15243109  1
  In  In40  1  0.84287000  -0.04296191  0.17899398  1
  In  In41  1  0.83247293  0.17619113  0.34764548  1
  In  In42  1  0.84429108  0.81953869  0.65745353  1
  In  In43  1  -0.00172121  0.50521529  0.83517358  1
  In  In44  1  0.46560466  0.49683112  -0.00818812  1
  In  In45  1  0.49978488  0.32942232  0.50112564  1
  In  In46  1  0.15849803  -0.02530279  0.16219096  1
  In  In47  1  0.83307325  0.34435528  0.15929666  1
  In  In48  1  0.32510990  0.01553874  0.65521945  1
  In  In49  1  0.00706815  0.66180301  0.00943516  1
  In  In50  1  0.13291990  0.79593227  0.35122236  1
  In  In51  1  0.69482594  0.16830324  0.50470708  1
  In  In52  1  0.83865449  0.64817329  0.82259377  1
  In  In53  1  0.83084675  0.17776841  0.00816518  1
  In  In54  1  0.66908100  0.50255530  0.17327667  1
  In  In55  1  0.67076318  0.33116354  0.65479604  1
  In  In56  1  0.49484622  -0.00467145  0.84013052  1
  In  In57  1  0.34687897  -0.00264888  0.31577828  1
  In  In58  1  0.52852861  0.52855011  0.33244539  1
  In  In59  1  0.16503959  0.82603436  0.67604034  1
  In  In60  1  0.14174873  0.36435349  0.48914537  1
  In  In61  1  0.65563516  0.67553683  0.01026592  1
  In  In62  1  0.82082639  0.81825442  0.02145477  1
  In  In63  1  0.53690052  0.78472119  0.30564556  1
  In  In64  1  0.64251484  -0.01437083  -0.00414768  1
  In  In65  1  0.52895800  0.66585510  0.49539380  1
  In  In66  1  0.32292465  0.50882681  0.50900818  1
  In  In67  1  0.33880487  0.85022697  0.51166097  1
  In  In68  1  0.06425780  0.20408893  0.79931703  1
  In  In69  1  0.47123487  0.16036600  -0.00604529  1
  In  In70  1  0.32743875  0.52023194  0.83257286  1
  In  In71  1  0.65996727  -0.00856513  0.67424440  1
  Te  Te72  1  0.07293512  0.07323346  0.08270040  1
  Te  Te73  1  0.10063542  0.08565128  0.42116930  1
  Te  Te74  1  0.05583480  0.06770874  0.74401955  1
  Te  Te75  1  0.10178282  0.45357514  0.06967199  1
  Te  Te76  1  0.06703272  0.46639019  0.41271002  1
  Te  Te77  1  0.10425818  0.41190691  0.78627531  1
  Te  Te78  1  0.12195839  0.71975618  0.08342584  1
  Te  Te79  1  0.01840445  0.68771386  0.33740822  1
  Te  Te80  1  0.06951969  0.72909570  0.72896113  1
  Te  Te81  1  0.39690130  0.06893567  0.08867210  1
  Te  Te82  1  0.41186914  0.09100880  0.41678139  1
  Te  Te83  1  0.40384683  0.09599184  0.75860263  1
  Te  Te84  1  0.40413465  0.40904609  0.09742393  1
  Te  Te85  1  0.42747477  0.43735175  0.41721987  1
  Te  Te86  1  0.39274806  0.41760438  0.74733708  1
  Te  Te87  1  0.41279058  0.71416907  0.06478090  1
  Te  Te88  1  0.42218381  0.75050809  0.42440251  1
  Te  Te89  1  0.41211976  0.76276331  0.78353962  1
  Te  Te90  1  0.76468632  0.05633202  0.07434276  1
  Te  Te91  1  0.75179713  0.07242297  0.40954693  1
  Te  Te92  1  0.73572930  0.10251316  0.74549692  1
  Te  Te93  1  0.74382018  0.42270193  0.06678860  1
  Te  Te94  1  0.77556729  0.43126787  0.42071791  1
  Te  Te95  1  0.74126236  0.42575237  0.75517018  1
  Te  Te96  1  0.72564873  0.75567852  0.11790438  1
  Te  Te97  1  0.74828467  0.71771581  0.43398846  1
  Te  Te98  1  0.74900669  0.74462211  0.74779896  1
  Te  Te99  1  0.10222598  0.28356183  0.24897776  1
  Te  Te100  1  0.07295459  0.28651913  0.59358537  1
  Te  Te101  1  0.10227920  0.23410728  0.93994338  1
  Te  Te102  1  0.08698166  0.55479781  0.28446442  1
  Te  Te103  1  0.07539649  0.55959113  0.54960304  1
  Te  Te104  1  0.08498894  0.61333400  0.89141668  1
  Te  Te105  1  0.06777597  0.90260722  0.25909649  1
  Te  Te106  1  0.09219383  0.91888892  0.57955431  1
  Te  Te107  1  0.09709912  0.90613319  0.92163644  1
  Te  Te108  1  0.42024717  0.23713397  0.26431390  1
  Te  Te109  1  0.41013192  0.25552989  0.59823230  1
  Te  Te110  1  0.40219198  0.26719152  0.91226917  1
  Te  Te111  1  0.42489671  0.58737026  0.23839466  1
  Te  Te112  1  0.42493729  0.59312166  0.58516633  1
  Te  Te113  1  0.41155567  0.61065429  0.91534179  1
  Te  Te114  1  0.41610846  0.88115903  0.24675266  1
  Te  Te115  1  0.43132021  0.91136180  0.61374500  1
  Te  Te116  1  0.40316800  0.91766843  0.93074403  1
  Te  Te117  1  0.74696298  0.23904229  0.22685458  1
  Te  Te118  1  0.78689548  0.27005046  0.57002798  1
  Te  Te119  1  0.74698772  0.25874151  0.91209307  1
  Te  Te120  1  0.75569768  0.59148302  0.25494086  1
  Te  Te121  1  0.79364422  0.54612267  0.60655305  1
  Te  Te122  1  0.75921908  0.58829691  0.93604547  1
  Te  Te123  1  0.74584055  0.90369460  0.27207713  1
  Te  Te124  1  0.75961657  0.92360373  0.58277091  1
  Te  Te125  1  0.74527699  0.90414082  0.91884439  1
  Te  Te126  1  0.22760397  0.24896620  0.07384367  1
  Te  Te127  1  0.26009411  0.27170329  0.43307669  1
  Te  Te128  1  0.19583220  0.23899398  0.73006314  1
  Te  Te129  1  0.23145154  0.61008212  0.06038175  1
  Te  Te130  1  0.24756327  0.57504045  0.39633643  1
  Te  Te131  1  0.23694517  0.59992606  0.73650650  1
  Te  Te132  1  0.24739543  0.90869534  0.06689917  1
  Te  Te133  1  0.24878238  0.90709803  0.39907366  1
  Te  Te134  1  0.25992754  0.91353904  0.75304940  1
  Te  Te135  1  0.56301725  0.23632279  0.08969430  1
  Te  Te136  1  0.60308301  0.25522860  0.41806112  1
  Te  Te137  1  0.58063568  0.26539040  0.74889350  1
  Te  Te138  1  0.57242239  0.56818564  0.07730681  1
  Te  Te139  1  0.63033572  0.58878771  0.42182518  1
  Te  Te140  1  0.58065699  0.59433713  0.74702749  1
  Te  Te141  1  0.58467212  0.90146674  0.10551027  1
  Te  Te142  1  0.57889530  0.89679819  0.40354442  1
  Te  Te143  1  0.59089191  0.90811195  0.77191962  1
  Te  Te144  1  0.93506768  0.25716326  0.08487533  1
  Te  Te145  1  0.94683162  0.25778987  0.39954503  1
  Te  Te146  1  0.92688831  0.26673270  0.75502831  1
  Te  Te147  1  0.90867326  0.62472379  0.11731085  1
  Te  Te148  1  0.91990755  0.62499459  0.44236601  1
  Te  Te149  1  0.91751592  0.56774470  0.72264023  1
  Te  Te150  1  0.93996743  0.89002458  0.08342936  1
  Te  Te151  1  0.91417539  0.89387686  0.41724353  1
  Te  Te152  1  0.91808397  0.91709572  0.74811665  1
  Te  Te153  1  0.23877980  0.08063048  0.24830127  1
  Te  Te154  1  0.21100137  0.11153914  0.61560167  1
  Te  Te155  1  0.24885924  0.09014443  0.92065142  1
  Te  Te156  1  0.23951881  0.42557840  0.23912233  1
  Te  Te157  1  0.24839490  0.41365844  0.59540812  1
  Te  Te158  1  0.22708247  0.43048179  0.89892739  1
  Te  Te159  1  0.22859263  0.74115170  0.24338073  1
  Te  Te160  1  0.24434156  0.74261327  0.56452839  1
  Te  Te161  1  0.21326294  0.71032411  0.93898181  1
  Te  Te162  1  0.58422573  0.07653206  0.26733915  1
  Te  Te163  1  0.57753587  0.07706228  0.56513637  1
  Te  Te164  1  0.58415168  0.09788236  0.91319972  1
  Te  Te165  1  0.58019442  0.40838844  0.25235772  1
  Te  Te166  1  0.59187942  0.42968545  0.56866039  1
  Te  Te167  1  0.56272817  0.41480733  0.90716557  1
  Te  Te168  1  0.63698255  0.70088892  0.23763007  1
  Te  Te169  1  0.58894145  0.75472551  0.60075153  1
  Te  Te170  1  0.59093807  0.76260962  0.91172908  1
  Te  Te171  1  0.91478587  0.08335823  0.24284991  1
  Te  Te172  1  0.91210130  0.07870817  0.56724404  1
  Te  Te173  1  0.90587841  0.09489016  0.90456549  1
  Te  Te174  1  0.92257573  0.41836302  0.25103796  1
  Te  Te175  1  0.91539029  0.44736908  0.61522882  1
  Te  Te176  1  0.91471979  0.44239239  0.94533564  1
  Te  Te177  1  0.91793130  0.73783298  0.22697583  1
  Te  Te178  1  0.92696866  0.72967031  0.57099008  1
  Te  Te179  1  0.91001144  0.75180284  0.91301189  1
