# generated using pymatgen
data_In2Te3
_symmetry_space_group_name_H-M   'P 1'
_cell_length_a   18.97093728
_cell_length_b   19.00446736
_cell_length_c   18.99276273
_cell_angle_alpha   89.92716411
_cell_angle_beta   90.14669576
_cell_angle_gamma   90.17446091
_symmetry_Int_Tables_number   1
_chemical_formula_structural   In2Te3
_chemical_formula_sum   'In72 Te108'
_cell_volume   6847.44968289
_cell_formula_units_Z   36
loop_
 _symmetry_equiv_pos_site_id
 _symmetry_equiv_pos_as_xyz
  1  'x, y, z'
loop_
 _atom_site_type_symbol
 _atom_site_label
 _atom_site_symmetry_multiplicity
 _atom_site_fract_x
 _atom_site_fract_y
 _atom_site_fract_z
 _atom_site_occupancy
  In  In0  1  0.36307006  0.81310748  0.52740609  1
  In  In1  1  0.34928578  0.66069450  -0.01517759  1
  In  In2  1  0.13151127  0.67241102  0.51588602  1
  In  In3  1  0.50216400  0.34634605  0.83516563  1
  In  In4  1  0.83569490  0.34608332  0.83839979  1
  In  In5  1  0.54340871  0.39107153  0.51748833  1
  In  In6  1  0.35803350  -0.03143058  0.32925137  1
  In  In7  1  0.66975873  0.66453746  0.35831614  1
  In  In8  1  0.82495287  0.17605904  0.65473879  1
  In  In9  1  0.82071393  0.51617506  -0.00923893  1
  In  In10  1  0.69124949  0.15269897  0.48071287  1
  In  In11  1  0.51828439  0.50556268  -0.01425470  1
  In  In12  1  0.19220625  0.50870756  -0.01784231  1
  In  In13  1  0.14560282  0.48466801  0.32681467  1
  In  In14  1  -0.02107513  0.35331493  0.68103556  1
  In  In15  1  0.32682345  0.32937898  0.33333526  1
  In  In16  1  0.35389263  -0.01732109  -0.00607017  1
  In  In17  1  0.53910483  -0.00406583  0.19463000  1
  In  In18  1  0.16380154  0.18853502  -0.01267817  1
  In  In19  1  0.81546096  0.67895406  0.53460539  1
  In  In20  1  0.34531177  0.48821003  0.84482699  1
  In  In21  1  0.35715060  0.65446814  0.66417913  1
  In  In22  1  0.81807237  0.52707503  0.70679963  1
  In  In23  1  0.64273669  0.18480809  0.17835564  1
  In  In24  1  -0.02444497  0.30774838  0.34017443  1
  In  In25  1  0.64035468  -0.07801495  0.56130752  1
  In  In26  1  0.16135097  0.83696391  0.32011050  1
  In  In27  1  0.51494664  0.50592009  0.33675888  1
  In  In28  1  -0.00000685  0.68102479  -0.01851437  1
  In  In29  1  0.14691173  0.16227640  0.65052731  1
  In  In30  1  0.66358635  0.67109436  -0.01268971  1
  In  In31  1  0.81745435  -0.01713204  0.18348207  1
  In  In32  1  0.33653600  0.16278132  0.46564346  1
  In  In33  1  0.80404281  0.35228548  0.49784818  1
  In  In34  1  0.00158372  0.35340904  -0.01119132  1
  In  In35  1  -0.01996861  -0.01447311  0.34537584  1
  In  In36  1  0.32792784  0.16604094  0.15060974  1
  In  In37  1  0.82593011  0.33338838  0.17321967  1
  In  In38  1  0.20257863  0.01086549  0.15305113  1
  In  In39  1  -0.00359960  0.14943765  0.18456127  1
  In  In40  1  0.50706093  0.15286071  -0.01232804  1
  In  In41  1  -0.02379493  -0.01388221  0.67183980  1
  In  In42  1  0.13041402  0.52797405  0.66263580  1
  In  In43  1  0.49195142  0.65253601  0.14888821  1
  In  In44  1  0.49360841  0.14938372  0.64817361  1
  In  In45  1  0.16277678  -0.01487770  0.83127957  1
  In  In46  1  0.33671217  0.15291686  0.80665174  1
  In  In47  1  0.34015276  0.52929958  0.50134092  1
  In  In48  1  -0.00687925  0.49886944  0.17114614  1
  In  In49  1  0.58512073  0.71632205  0.76102241  1
  In  In50  1  0.15824997  0.68489983  0.81018769  1
  In  In51  1  0.34474029  0.82575143  0.83914537  1
  In  In52  1  0.37392003  0.48029096  0.16445543  1
  In  In53  1  0.32287561  0.33473713  0.68590430  1
  In  In54  1  0.00035654  0.00541265  -0.03351560  1
  In  In55  1  0.66182799  0.81956177  0.16268172  1
  In  In56  1  0.50215453  0.17021441  0.33181370  1
  In  In57  1  0.81898665  0.66282789  0.19985167  1
  In  In58  1  0.84856813  0.16126785  -0.01067563  1
  In  In59  1  0.67644848  0.19206004  0.82633092  1
  In  In60  1  0.14544278  0.34655423  0.52766652  1
  In  In61  1  0.33434273  -0.00402122  0.66509087  1
  In  In62  1  -0.01852829  0.82785116  0.17353667  1
  In  In63  1  0.16220879  0.66257650  0.17249009  1
  In  In64  1  0.85341901  0.82425652  -0.03142323  1
  In  In65  1  0.33230679  0.69138853  0.36647473  1
  In  In66  1  0.65716767  0.35219274  0.34144488  1
  In  In67  1  0.80710464  -0.04076795  0.78332854  1
  In  In68  1  0.14225427  -0.01027202  0.48173527  1
  In  In69  1  0.69911479  -0.00277964  0.00107175  1
  In  In70  1  -0.02395226  0.83139090  0.51802893  1
  In  In71  1  0.13883766  0.15899713  0.31407686  1
  Te  Te72  1  0.08489170  0.07994785  0.07815011  1
  Te  Te73  1  0.05523748  0.09796980  0.42274647  1
  Te  Te74  1  0.07282317  0.07702468  0.75067570  1
  Te  Te75  1  0.09191119  0.43681933  0.07709903  1
  Te  Te76  1  0.05583205  0.40976661  0.42281534  1
  Te  Te77  1  0.09113120  0.41854998  0.74871843  1
  Te  Te78  1  0.08330017  0.75906674  0.08600786  1
  Te  Te79  1  0.06785029  0.76457578  0.41297430  1
  Te  Te80  1  0.05306376  0.70953535  0.70635068  1
  Te  Te81  1  0.43347108  0.06972346  0.10381835  1
  Te  Te82  1  0.43826717  0.06211585  0.41966370  1
  Te  Te83  1  0.44102911  0.05636491  0.75709368  1
  Te  Te84  1  0.41936142  0.41329611  0.04526911  1
  Te  Te85  1  0.40894340  0.41226388  0.43079814  1
  Te  Te86  1  0.42781760  0.43222267  0.73010324  1
  Te  Te87  1  0.42483415  0.75310181  0.06891345  1
  Te  Te88  1  0.44340179  0.77332536  0.41250442  1
  Te  Te89  1  0.43249075  0.76070299  0.73650072  1
  Te  Te90  1  0.75363175  0.10186796  0.09951794  1
  Te  Te91  1  0.79062132  0.04488823  0.46607540  1
  Te  Te92  1  0.73225914  0.08721711  0.73430028  1
  Te  Te93  1  0.75532303  0.42595243  0.08595265  1
  Te  Te94  1  0.73318469  0.45464376  0.41772266  1
  Te  Te95  1  0.73372881  0.41091010  0.75261156  1
  Te  Te96  1  0.77221095  0.75597340  0.08001066  1
  Te  Te97  1  0.73980393  0.77111254  0.43859936  1
  Te  Te98  1  0.72132171  0.76988323  0.71237091  1
  Te  Te99  1  0.07973798  0.26890351  0.23262243  1
  Te  Te100  1  0.04440621  0.25021428  0.58381399  1
  Te  Te101  1  0.04934410  0.23774065  0.91235480  1
  Te  Te102  1  0.06318965  0.59698315  0.26575978  1
  Te  Te103  1  0.03488736  0.56288216  0.55110888  1
  Te  Te104  1  0.08881910  0.58668507  0.90364335  1
  Te  Te105  1  0.08207883  0.93896887  0.24123841  1
  Te  Te106  1  0.08460672  0.90918628  0.59403429  1
  Te  Te107  1  0.06767532  0.89257966  0.89907794  1
  Te  Te108  1  0.41795127  0.25493115  0.23844387  1
  Te  Te109  1  0.38925168  0.24037787  0.58430130  1
  Te  Te110  1  0.41305961  0.23875353  0.90420217  1
  Te  Te111  1  0.40028218  0.58446064  0.27427824  1
  Te  Te112  1  0.45312136  0.60230678  0.56326902  1
  Te  Te113  1  0.44341316  0.59528558  0.88801698  1
  Te  Te114  1  0.45028793  0.89183840  0.24789517  1
  Te  Te115  1  0.43112638  0.93188460  0.57748209  1
  Te  Te116  1  0.44326197  0.91562029  0.90195522  1
  Te  Te117  1  0.74453444  0.25133344  0.27069769  1
  Te  Te118  1  0.72005227  0.25870875  0.58409526  1
  Te  Te119  1  0.75220921  0.26428535  0.93653764  1
  Te  Te120  1  0.75046683  0.56409961  0.28490415  1
  Te  Te121  1  0.71888998  0.58769693  0.60726904  1
  Te  Te122  1  0.74438582  0.59460044  0.89202348  1
  Te  Te123  1  0.72660147  0.90330200  0.26960519  1
  Te  Te124  1  0.76977053  0.90114339  0.64280940  1
  Te  Te125  1  0.73547842  0.88932414  0.90182560  1
  Te  Te126  1  0.24170351  0.26248113  0.08525452  1
  Te  Te127  1  0.22205424  0.25989538  0.42189494  1
  Te  Te128  1  0.22465659  0.24166021  0.75425402  1
  Te  Te129  1  0.26653327  0.58329366  0.09505834  1
  Te  Te130  1  0.22288994  0.58438034  0.41713811  1
  Te  Te131  1  0.25533445  0.58047644  0.75274747  1
  Te  Te132  1  0.25496156  0.90525435  0.07059806  1
  Te  Te133  1  0.25305677  0.90382593  0.42408007  1
  Te  Te134  1  0.24876200  0.89883194  0.74284119  1
  Te  Te135  1  0.57890431  0.25277310  0.06701078  1
  Te  Te136  1  0.56763070  0.26143509  0.43463938  1
  Te  Te137  1  0.56739033  0.24941838  0.73716372  1
  Te  Te138  1  0.60640688  0.57577391  0.09054406  1
  Te  Te139  1  0.57185637  0.58989154  0.44394820  1
  Te  Te140  1  0.59558380  0.57791557  0.70775489  1
  Te  Te141  1  0.59142300  0.91922264  0.07312545  1
  Te  Te142  1  0.64830699  0.89310675  0.41366258  1
  Te  Te143  1  0.61285760  0.89040868  0.71199546  1
  Te  Te144  1  0.92679979  0.25342746  0.08913626  1
  Te  Te145  1  0.88124135  0.24534800  0.43184643  1
  Te  Te146  1  0.91155458  0.24134071  0.76059930  1
  Te  Te147  1  0.91837495  0.60140584  0.08852161  1
  Te  Te148  1  0.92155338  0.61497062  0.45910666  1
  Te  Te149  1  0.93770735  0.61182448  0.74094553  1
  Te  Te150  1  0.91206609  0.93172090  0.07617863  1
  Te  Te151  1  0.88432651  0.91473920  0.43422271  1
  Te  Te152  1  0.94168406  0.89272660  0.78162081  1
  Te  Te153  1  0.26540471  0.08565680  0.27720050  1
  Te  Te154  1  0.24278463  0.08086519  0.56397698  1
  Te  Te155  1  0.25294391  0.07662374  0.91594224  1
  Te  Te156  1  0.25061702  0.42064871  0.24029878  1
  Te  Te157  1  0.25099175  0.43661260  0.59005793  1
  Te  Te158  1  0.24920403  0.39766007  0.90703155  1
  Te  Te159  1  0.26159052  0.75414751  0.24537097  1
  Te  Te160  1  0.24936528  0.73594623  0.59026226  1
  Te  Te161  1  0.24214924  0.74720269  0.91971751  1
  Te  Te162  1  0.61798171  0.08165915  0.29051558  1
  Te  Te163  1  0.59590226  0.07400074  0.56828982  1
  Te  Te164  1  0.61113191  0.07897518  0.90758041  1
  Te  Te165  1  0.56990649  0.41290834  0.24017208  1
  Te  Te166  1  0.62223198  0.44477341  0.62985750  1
  Te  Te167  1  0.60606814  0.42944953  0.89534032  1
  Te  Te168  1  0.58141759  0.72546049  0.24790822  1
  Te  Te169  1  0.60070171  0.77828557  0.60754919  1
  Te  Te170  1  0.56717224  0.74484928  0.90649735  1
  Te  Te171  1  0.89029704  0.08469993  0.27037825  1
  Te  Te172  1  0.90044686  0.07296816  0.57501402  1
  Te  Te173  1  0.88336783  0.05834437  0.88916193  1
  Te  Te174  1  0.90532331  0.42258334  0.26722934  1
  Te  Te175  1  0.88154069  0.43376242  0.60053931  1
  Te  Te176  1  0.92526743  0.45037294  0.90226677  1
  Te  Te177  1  0.90236049  0.75885484  0.27292083  1
  Te  Te178  1  0.92093905  0.74231052  0.62710309  1
  Te  Te179  1  0.89326918  0.71045206  0.88132026  1
