# generated using pymatgen
data_In2Te3
_symmetry_space_group_name_H-M   'P 1'
_cell_length_a   18.99880501
_cell_length_b   18.98255674
_cell_length_c   18.99189872
_cell_angle_alpha   89.95311954
_cell_angle_beta   90.14027054
_cell_angle_gamma   90.05058526
_symmetry_Int_Tables_number   1
_chemical_formula_structural   In2Te3
_chemical_formula_sum   'In72 Te108'
_cell_volume   6849.32481949
_cell_formula_units_Z   36
loop_
 _symmetry_equiv_pos_site_id
 _symmetry_equiv_pos_as_xyz
  1  'x, y, z'
loop_
 _atom_site_type_symbol
 _atom_site_label
 _atom_site_symmetry_multiplicity
 _atom_site_fract_x
 _atom_site_fract_y
 _atom_site_fract_z
 _atom_site_occupancy
  In  In0  1  0.02352307  0.55008569  0.50369186  1
  In  In1  1  0.66447774  0.17719644  0.12807057  1
  In  In2  1  0.66516532  0.47077590  0.52481008  1
  In  In3  1  0.50408061  0.68687647  0.15748849  1
  In  In4  1  0.83619560  0.82773169  0.30768553  1
  In  In5  1  0.83177920  -0.00701590  0.48509095  1
  In  In6  1  0.85404702  0.15715270  0.00162809  1
  In  In7  1  0.33675955  0.31093537  -0.01764321  1
  In  In8  1  0.49670668  0.29242430  0.15404373  1
  In  In9  1  0.16980269  0.69294196  0.17007018  1
  In  In10  1  0.32717660  0.66972405  0.32083805  1
  In  In11  1  0.84908827  0.49419524  0.33974942  1
  In  In12  1  -0.00615886  0.54797649  0.10604066  1
  In  In13  1  0.01369998  0.17699537  0.83917029  1
  In  In14  1  0.84379668  0.32675481  0.49739643  1
  In  In15  1  0.83841101  0.32917359  0.82086618  1
  In  In16  1  0.15100997  -0.00514598  0.84626603  1
  In  In17  1  0.82012845  -0.00440175  0.17609158  1
  In  In18  1  0.34450087  0.82631833  0.48550881  1
  In  In19  1  0.83385664  0.33821551  0.16711340  1
  In  In20  1  0.18759229  0.55898909  -0.02578243  1
  In  In21  1  0.15800109  0.34099714  0.17299470  1
  In  In22  1  0.00372302  0.37261022  0.66458521  1
  In  In23  1  0.34748733  0.01363631  -0.00311731  1
  In  In24  1  0.35647615  0.49902560  0.83663071  1
  In  In25  1  0.51451467  0.87394561  0.01323818  1
  In  In26  1  0.33211923  0.16218190  0.47774868  1
  In  In27  1  0.04283447  0.79331076  0.48696482  1
  In  In28  1  0.82237891  0.15417283  0.65533368  1
  In  In29  1  0.02496620  0.49730262  0.83937748  1
  In  In30  1  0.00029664  0.82617127  0.14950979  1
  In  In31  1  0.66654193  -0.00186677  0.67510461  1
  In  In32  1  0.18820050  0.32324184  0.49824230  1
  In  In33  1  0.31350667  -0.00090575  0.67379906  1
  In  In34  1  -0.00539852  0.33346634  -0.00701465  1
  In  In35  1  0.50782293  0.67398302  0.83578717  1
  In  In36  1  0.15532091  0.00113978  0.17473613  1
  In  In37  1  0.49265484  0.83726890  0.67997670  1
  In  In38  1  0.17031407  0.16044098  0.01538418  1
  In  In39  1  0.49513706  0.31250950  0.82569122  1
  In  In40  1  0.35634983  0.88106642  0.16460088  1
  In  In41  1  0.51711595  0.49481460  -0.02282492  1
  In  In42  1  0.00883991  0.31652078  0.34346460  1
  In  In43  1  0.85871917  0.84074817  0.67175812  1
  In  In44  1  0.32576946  0.48659791  0.16156233  1
  In  In45  1  0.49998916  0.14517000  0.32983158  1
  In  In46  1  0.65653243  0.66638642  0.31531279  1
  In  In47  1  0.48138555  0.66881252  0.49876235  1
  In  In48  1  0.00505130  0.82875231  0.85203009  1
  In  In49  1  0.48054616  0.49480750  0.36639817  1
  In  In50  1  0.82329807  0.65123822  0.48512044  1
  In  In51  1  0.34244311  0.12223840  0.18060684  1
  In  In52  1  0.64948994  0.30493875  0.31611922  1
  In  In53  1  0.62463488  0.85566245  0.47671533  1
  In  In54  1  0.66516908  0.83761640  0.83405055  1
  In  In55  1  0.46387819  0.15908276  0.65712381  1
  In  In56  1  0.50718678  0.48272320  0.70104827  1
  In  In57  1  0.16591981  0.52914965  0.34153463  1
  In  In58  1  0.17058194  -0.02939559  0.49783084  1
  In  In59  1  0.19319129  0.19129272  0.69067137  1
  In  In60  1  -0.01866662  -0.01383205  0.32454452  1
  In  In61  1  0.67105864  0.48114549  0.17890719  1
  In  In62  1  0.72490175  0.65298680  0.02838747  1
  In  In63  1  0.32301190  0.67857200  0.66806313  1
  In  In64  1  0.82315070  0.49997323  0.68218768  1
  In  In65  1  0.00032083  0.15013309  0.50042586  1
  In  In66  1  0.82795469  0.68574231  0.83898393  1
  In  In67  1  0.80672447  0.85083583  0.00174648  1
  In  In68  1  0.02193643  0.69014319  0.68876536  1
  In  In69  1  0.65134041  0.15164021  0.85586275  1
  In  In70  1  0.32288658  0.49057331  0.50909041  1
  In  In71  1  0.66538225  0.14684510  0.49718266  1
  Te  Te72  1  0.07103239  0.08863254  0.09280574  1
  Te  Te73  1  0.08107409  0.06233722  0.41095208  1
  Te  Te74  1  0.09042760  0.09270968  0.73985161  1
  Te  Te75  1  0.08414527  0.42913315  0.07247195  1
  Te  Te76  1  0.08033898  0.42975514  0.42092356  1
  Te  Te77  1  0.10523545  0.40046524  0.76545624  1
  Te  Te78  1  0.10194267  0.76493402  0.06055094  1
  Te  Te79  1  0.12329630  0.70483372  0.40569318  1
  Te  Te80  1  0.11559383  0.77960302  0.76164013  1
  Te  Te81  1  0.45055669  0.09072543  0.07879138  1
  Te  Te82  1  0.42722866  0.05933475  0.42709660  1
  Te  Te83  1  0.39448392  0.08474517  0.76284651  1
  Te  Te84  1  0.42291317  0.40954573  0.07485059  1
  Te  Te85  1  0.39778308  0.39299938  0.42895827  1
  Te  Te86  1  0.38062667  0.37576518  0.74771412  1
  Te  Te87  1  0.41263676  0.77258452  0.07469199  1
  Te  Te88  1  0.43855632  0.75203783  0.38293401  1
  Te  Te89  1  0.40038187  0.75959050  0.77093751  1
  Te  Te90  1  0.74658920  0.06879807  0.06299323  1
  Te  Te91  1  0.73495911  0.06220287  0.39855074  1
  Te  Te92  1  0.75600646  0.07846253  0.76637404  1
  Te  Te93  1  0.75026865  0.41533404  0.07415205  1
  Te  Te94  1  0.74232036  0.40507762  0.40143300  1
  Te  Te95  1  0.73816795  0.39616973  0.73751405  1
  Te  Te96  1  0.72200779  0.78118675  0.10213898  1
  Te  Te97  1  0.73394524  0.75458438  0.41840817  1
  Te  Te98  1  0.74672905  0.75903971  0.73375138  1
  Te  Te99  1  0.10166091  0.23753397  0.26087267  1
  Te  Te100  1  0.06696624  0.26473240  0.57284326  1
  Te  Te101  1  0.10671405  0.26313465  0.92046584  1
  Te  Te102  1  0.08216960  0.58244663  0.22500507  1
  Te  Te103  1  0.10320424  0.59005236  0.61830023  1
  Te  Te104  1  0.06100367  0.61994459  0.91648263  1
  Te  Te105  1  0.08120451  0.89598006  0.25762296  1
  Te  Te106  1  0.07725910  0.89689012  0.58299361  1
  Te  Te107  1  0.09387923  0.90175532  0.94661856  1
  Te  Te108  1  0.40331937  0.24066353  0.25906385  1
  Te  Te109  1  0.39697201  0.25634332  0.57020831  1
  Te  Te110  1  0.44188137  0.21834353  0.93154944  1
  Te  Te111  1  0.42609064  0.57767482  0.24830215  1
  Te  Te112  1  0.42247799  0.57452402  0.60121785  1
  Te  Te113  1  0.41788918  0.59911350  0.93281435  1
  Te  Te114  1  0.46368614  0.93721958  0.25180415  1
  Te  Te115  1  0.41031397  0.92084305  0.58624929  1
  Te  Te116  1  0.41656875  0.91552410  0.91263005  1
  Te  Te117  1  0.75627624  0.23222567  0.24214546  1
  Te  Te118  1  0.73927862  0.25474562  0.57910819  1
  Te  Te119  1  0.76099975  0.24113509  0.91596242  1
  Te  Te120  1  0.76198220  0.58053804  0.24902659  1
  Te  Te121  1  0.73578563  0.58662345  0.59078598  1
  Te  Te122  1  0.73310481  0.59054556  0.89674850  1
  Te  Te123  1  0.73667936  0.93190891  0.28138236  1
  Te  Te124  1  0.73845664  0.90962192  0.57464552  1
  Te  Te125  1  0.72324179  0.94112375  0.92026810  1
  Te  Te126  1  0.26494100  0.24680060  0.10143746  1
  Te  Te127  1  0.22643475  0.22699176  0.39581855  1
  Te  Te128  1  0.29781624  0.24654925  0.77476497  1
  Te  Te129  1  0.27039044  0.60718462  0.09187479  1
  Te  Te130  1  0.24914052  0.61358731  0.44038901  1
  Te  Te131  1  0.25317867  0.57646600  0.75537945  1
  Te  Te132  1  0.24641510  0.93115996  0.07406529  1
  Te  Te133  1  0.26730198  0.91990073  0.39920810  1
  Te  Te134  1  0.23195977  0.90763605  0.75700119  1
  Te  Te135  1  0.61132114  0.29890944  0.06262640  1
  Te  Te136  1  0.57104985  0.24366600  0.42727144  1
  Te  Te137  1  0.58082386  0.22029868  0.74141270  1
  Te  Te138  1  0.58780801  0.57946753  0.08898763  1
  Te  Te139  1  0.59394798  0.57789343  0.42466868  1
  Te  Te140  1  0.59265997  0.58802544  0.75323618  1
  Te  Te141  1  0.55377722  0.96289489  0.12765519  1
  Te  Te142  1  0.53507946  0.93455441  0.39168227  1
  Te  Te143  1  0.56573470  0.93554325  0.76862626  1
  Te  Te144  1  0.93289755  0.24553345  0.09753995  1
  Te  Te145  1  0.90352253  0.22298842  0.40752890  1
  Te  Te146  1  0.92329372  0.24901527  0.72255135  1
  Te  Te147  1  0.86595681  0.59809106  0.06508209  1
  Te  Te148  1  0.93483430  0.60712659  0.39326619  1
  Te  Te149  1  0.92255172  0.58788001  0.75436644  1
  Te  Te150  1  0.91393386  0.92752272  0.07837260  1
  Te  Te151  1  0.92265877  0.88301498  0.42851365  1
  Te  Te152  1  0.91667819  0.92129212  0.77679675  1
  Te  Te153  1  0.25855404  0.04556975  0.27291884  1
  Te  Te154  1  0.23009670  0.09440593  0.57990414  1
  Te  Te155  1  0.25046593  0.09188571  0.90881411  1
  Te  Te156  1  0.24771732  0.41993849  0.27021760  1
  Te  Te157  1  0.22571110  0.42476604  0.59600187  1
  Te  Te158  1  0.25822131  0.42965142  0.93080839  1
  Te  Te159  1  0.26548142  0.78301625  0.24459360  1
  Te  Te160  1  0.24945554  0.77188904  0.58312000  1
  Te  Te161  1  0.20634413  0.66732238  0.87038532  1
  Te  Te162  1  0.59307602  0.08992328  0.22760605  1
  Te  Te163  1  0.57044639  0.06992298  0.58445075  1
  Te  Te164  1  0.55068854  0.10827240  0.95539751  1
  Te  Te165  1  0.55719872  0.40879717  0.25479829  1
  Te  Te166  1  0.55513746  0.40194100  0.58931361  1
  Te  Te167  1  0.59171494  0.39752888  0.89953179  1
  Te  Te168  1  0.60536904  0.77158263  0.22473296  1
  Te  Te169  1  0.57433347  0.75586223  0.58104553  1
  Te  Te170  1  0.58496324  0.75857354  0.93410712  1
  Te  Te171  1  0.91287210  0.08654682  0.24510735  1
  Te  Te172  1  0.91937048  0.05826117  0.59059988  1
  Te  Te173  1  0.93276417  0.07775766  0.90727957  1
  Te  Te174  1  0.93830630  0.41400828  0.24823923  1
  Te  Te175  1  0.91041858  0.44768902  0.56072745  1
  Te  Te176  1  0.90956540  0.42769229  0.91141205  1
  Te  Te177  1  0.91388735  0.73595837  0.22755335  1
  Te  Te178  1  0.91318039  0.73113991  0.58122751  1
  Te  Te179  1  0.90827338  0.75481435  0.94468462  1
