# generated using pymatgen
data_In2Te3
_symmetry_space_group_name_H-M   'P 1'
_cell_length_a   18.97404739
_cell_length_b   18.99039569
_cell_length_c   18.98372125
_cell_angle_alpha   90.20996022
_cell_angle_beta   89.84960754
_cell_angle_gamma   89.97757842
_symmetry_Int_Tables_number   1
_chemical_formula_structural   In2Te3
_chemical_formula_sum   'In72 Te108'
_cell_volume   6840.23301105
_cell_formula_units_Z   36
loop_
 _symmetry_equiv_pos_site_id
 _symmetry_equiv_pos_as_xyz
  1  'x, y, z'
loop_
 _atom_site_type_symbol
 _atom_site_label
 _atom_site_symmetry_multiplicity
 _atom_site_fract_x
 _atom_site_fract_y
 _atom_site_fract_z
 _atom_site_occupancy
  In  In0  1  0.14144340  0.48292716  0.35489749  1
  In  In1  1  0.81939920  0.83027848  0.01217429  1
  In  In2  1  0.30240650  0.03484162  0.66217643  1
  In  In3  1  0.82135279  0.63772680  0.83201506  1
  In  In4  1  0.80997933  0.48005318  -0.00729190  1
  In  In5  1  0.02289265  0.17033013  0.82412850  1
  In  In6  1  0.15947624  0.35635795  0.15723961  1
  In  In7  1  0.66436895  0.33323196  0.68821564  1
  In  In8  1  0.84120346  -0.00941418  0.17366545  1
  In  In9  1  0.16472089  0.85703810  0.66107832  1
  In  In10  1  0.66150416  0.65762075  0.66022616  1
  In  In11  1  0.67286067  0.17927667  0.18092824  1
  In  In12  1  0.16377385  0.47567350  0.65200533  1
  In  In13  1  0.28510191  0.47656121  0.85904520  1
  In  In14  1  0.31647602  0.19413525  0.82032546  1
  In  In15  1  0.48711692  0.47684458  0.67070458  1
  In  In16  1  0.49569293  -0.01085675  0.13479278  1
  In  In17  1  0.64799008  0.18184675  0.83879260  1
  In  In18  1  0.66450036  0.50070801  0.17269189  1
  In  In19  1  0.84604127  0.84328340  0.65288311  1
  In  In20  1  0.83547393  0.32481957  0.82350470  1
  In  In21  1  0.30606675  0.66120209  0.30855221  1
  In  In22  1  -0.01159267  0.66030533  0.66995505  1
  In  In23  1  0.51062097  0.45860509  -0.03173603  1
  In  In24  1  0.35138499  0.49747987  0.50164947  1
  In  In25  1  0.66966724  -0.02436245  0.68203076  1
  In  In26  1  0.01456640  0.16223046  0.14612928  1
  In  In27  1  0.47252377  0.65903291  0.82890722  1
  In  In28  1  0.48471887  0.82127236  0.65723359  1
  In  In29  1  0.48854705  0.16269479  0.31373381  1
  In  In30  1  0.83991315  0.01186199  0.84123560  1
  In  In31  1  0.84240415  0.66523137  0.16734330  1
  In  In32  1  0.12937206  0.69226730  0.46683873  1
  In  In33  1  0.17365752  0.01495240  0.50697016  1
  In  In34  1  0.70498590  -0.00724636  0.33582410  1
  In  In35  1  -0.01928773  0.65834119  -0.00932072  1
  In  In36  1  0.64293716  0.81451914  0.83886734  1
  In  In37  1  0.67836384  0.13923868  0.50721402  1
  In  In38  1  0.32506376  0.33221687  0.66221554  1
  In  In39  1  -0.01580539  0.48086495  0.50871749  1
  In  In40  1  0.17414474  0.20006023  0.35579138  1
  In  In41  1  0.02170486  -0.01129570  0.31612512  1
  In  In42  1  0.47586508  0.31423303  0.50517690  1
  In  In43  1  0.19651941  0.67858610  0.81840112  1
  In  In44  1  0.68319507  0.51049165  0.50383681  1
  In  In45  1  0.51283354  0.83667444  0.33859912  1
  In  In46  1  0.17884245  0.18350454  0.00914658  1
  In  In47  1  0.67378396  0.33057835  0.33939147  1
  In  In48  1  0.48098521  0.65332422  0.14429808  1
  In  In49  1  0.88085321  0.01870946  0.49321741  1
  In  In50  1  0.04023629  0.47883362  0.84368083  1
  In  In51  1  0.31317923  -0.01375040  0.03272335  1
  In  In52  1  0.16870648  0.00301582  0.83307254  1
  In  In53  1  0.46768256  0.16166188  -0.01578461  1
  In  In54  1  0.50740177  0.00591440  0.49363686  1
  In  In55  1  0.83239367  0.34077079  0.50573872  1
  In  In56  1  0.01162519  0.19426811  0.52294294  1
  In  In57  1  0.32323856  0.67471999  0.00345865  1
  In  In58  1  0.67286062  0.67315012  0.33803707  1
  In  In59  1  0.66765600  0.85625394  0.15951723  1
  In  In60  1  0.86745805  0.36530173  0.19844736  1
  In  In61  1  0.00775589  0.83682783  0.17547216  1
  In  In62  1  0.51624317  0.66666259  0.50028241  1
  In  In63  1  0.48795218  0.31349411  0.15877077  1
  In  In64  1  0.84918308  0.65518176  0.49300591  1
  In  In65  1  0.00823046  0.86230852  0.84415093  1
  In  In66  1  0.31206204  0.83196238  0.49323977  1
  In  In67  1  0.64873378  0.02129500  0.00482250  1
  In  In68  1  0.15401625  0.67171553  0.17849637  1
  In  In69  1  0.31447200  0.01308290  0.32880136  1
  In  In70  1  0.86523500  0.18042828  -0.00498462  1
  In  In71  1  0.32085803  0.49870528  0.16695267  1
  Te  Te72  1  0.10719735  0.07320524  0.07580791  1
  Te  Te73  1  0.07563204  0.09310385  0.41696836  1
  Te  Te74  1  0.09649094  0.08049382  0.72752124  1
  Te  Te75  1  0.11637668  0.45363426  0.05360119  1
  Te  Te76  1  0.06374004  0.38056436  0.42955040  1
  Te  Te77  1  0.07339608  0.39051018  0.72920815  1
  Te  Te78  1  0.07480822  0.74725311  0.07136622  1
  Te  Te79  1  0.06104213  0.75985442  0.35834845  1
  Te  Te80  1  0.07713853  0.75849463  0.74723858  1
  Te  Te81  1  0.39915989  0.09692317  0.10275326  1
  Te  Te82  1  0.40796703  0.09378303  0.42125684  1
  Te  Te83  1  0.40216065  0.09561962  0.74849896  1
  Te  Te84  1  0.40808154  0.41343374  0.07549648  1
  Te  Te85  1  0.42937430  0.41395661  0.41135388  1
  Te  Te86  1  0.39662458  0.41188036  0.77254075  1
  Te  Te87  1  0.39903795  0.76180341  0.09528885  1
  Te  Te88  1  0.41634854  0.74766881  0.41481143  1
  Te  Te89  1  0.39334101  0.75034771  0.74533170  1
  Te  Te90  1  0.76399484  0.09032688  0.08510893  1
  Te  Te91  1  0.78279488  0.10111589  0.40444633  1
  Te  Te92  1  0.73926243  0.08663605  0.75787890  1
  Te  Te93  1  0.74819710  0.39564046  0.10370748  1
  Te  Te94  1  0.76570973  0.43193614  0.40412236  1
  Te  Te95  1  0.73286884  0.42889343  0.78045043  1
  Te  Te96  1  0.73183998  0.73546011  0.08789814  1
  Te  Te97  1  0.75656298  0.74927502  0.42894037  1
  Te  Te98  1  0.75524710  0.75530323  0.74080404  1
  Te  Te99  1  0.08499595  0.25650042  0.24270640  1
  Te  Te100  1  0.11610844  0.20303427  0.62956129  1
  Te  Te101  1  0.08511989  0.26266310  0.92399355  1
  Te  Te102  1  0.07799797  0.55596410  0.24058269  1
  Te  Te103  1  0.08696369  0.58519021  0.57888278  1
  Te  Te104  1  0.09544584  0.60453113  0.90675523  1
  Te  Te105  1  0.11139494  0.94111137  0.20587012  1
  Te  Te106  1  0.07645776  0.92244846  0.56583075  1
  Te  Te107  1  0.10945511  0.91424305  0.93410700  1
  Te  Te108  1  0.39352559  0.25499639  0.25457332  1
  Te  Te109  1  0.43561680  0.23943804  0.62295860  1
  Te  Te110  1  0.40639052  0.27095748  0.91026389  1
  Te  Te111  1  0.41812479  0.57544324  0.25787388  1
  Te  Te112  1  0.42313288  0.59469005  0.59444312  1
  Te  Te113  1  0.39492204  0.56455589  0.92241253  1
  Te  Te114  1  0.42813442  0.93250802  0.25995082  1
  Te  Te115  1  0.40045806  0.92738469  0.57109520  1
  Te  Te116  1  0.43487246  0.92779689  0.97507273  1
  Te  Te117  1  0.77754928  0.25367048  0.25859495  1
  Te  Te118  1  0.74271187  0.24972165  0.58872735  1
  Te  Te119  1  0.74994280  0.25183797  0.92801978  1
  Te  Te120  1  0.76118636  0.57779800  0.26020171  1
  Te  Te121  1  0.77637284  0.57596855  0.60304618  1
  Te  Te122  1  0.73331980  0.59255055  0.93726464  1
  Te  Te123  1  0.77898445  0.88227996  0.25900597  1
  Te  Te124  1  0.76793445  0.94252210  0.57156631  1
  Te  Te125  1  0.74061625  0.91906091  0.91368504  1
  Te  Te126  1  0.26035950  0.27021582  0.09364630  1
  Te  Te127  1  0.26600608  0.25544640  0.45613970  1
  Te  Te128  1  0.21396934  0.26934588  0.74145320  1
  Te  Te129  1  0.22882609  0.57849321  0.07625918  1
  Te  Te130  1  0.24346955  0.59162064  0.42621546  1
  Te  Te131  1  0.25498122  0.56240757  0.73899965  1
  Te  Te132  1  0.25184837  0.89619579  0.13169795  1
  Te  Te133  1  0.22636171  0.91262023  0.40093914  1
  Te  Te134  1  0.26619386  0.91779948  0.75437293  1
  Te  Te135  1  0.57927619  0.22772128  0.07384375  1
  Te  Te136  1  0.58958840  0.22931171  0.41499171  1
  Te  Te137  1  0.55620361  0.25541973  0.74934923  1
  Te  Te138  1  0.57219141  0.56014547  0.06950111  1
  Te  Te139  1  0.58313541  0.57004322  0.40599786  1
  Te  Te140  1  0.57467575  0.57531275  0.75000811  1
  Te  Te141  1  0.56806711  0.88727361  0.04657970  1
  Te  Te142  1  0.60857763  0.91537656  0.42491518  1
  Te  Te143  1  0.55589474  0.90819944  0.75893187  1
  Te  Te144  1  0.93517851  0.27788642  0.08798305  1
  Te  Te145  1  0.93501636  0.27128309  0.42178362  1
  Te  Te146  1  0.90523610  0.21804876  0.74755276  1
  Te  Te147  1  0.91111254  0.56102268  0.08105699  1
  Te  Te148  1  0.92870100  0.56808166  0.40338550  1
  Te  Te149  1  0.92983826  0.55988626  0.76453069  1
  Te  Te150  1  0.92530594  0.91860108  0.07094304  1
  Te  Te151  1  0.93883376  0.91196724  0.40907739  1
  Te  Te152  1  0.92721567  0.93738559  0.74003370  1
  Te  Te153  1  0.23442670  0.11045970  0.25598027  1
  Te  Te154  1  0.25531087  0.13547857  0.55640381  1
  Te  Te155  1  0.26655539  0.08526613  0.91821305  1
  Te  Te156  1  0.24739223  0.41610278  0.27155071  1
  Te  Te157  1  0.24364510  0.39268736  0.54694045  1
  Te  Te158  1  0.18209238  0.39291229  0.93324866  1
  Te  Te159  1  0.25385637  0.77424248  0.23116371  1
  Te  Te160  1  0.22798281  0.74441124  0.58003602  1
  Te  Te161  1  0.25962558  0.77027236  0.91162718  1
  Te  Te162  1  0.60148547  0.06639585  0.24856416  1
  Te  Te163  1  0.58160085  0.07556744  0.60523621  1
  Te  Te164  1  0.55878806  0.07264399  0.89782319  1
  Te  Te165  1  0.57770148  0.40275037  0.24829865  1
  Te  Te166  1  0.58602130  0.41455739  0.57280038  1
  Te  Te167  1  0.61618811  0.40777920  0.88223656  1
  Te  Te168  1  0.57961025  0.74834062  0.23437291  1
  Te  Te169  1  0.60037115  0.76752282  0.57550258  1
  Te  Te170  1  0.56724310  0.72302349  0.92169341  1
  Te  Te171  1  0.92768477  0.08749421  0.24793914  1
  Te  Te172  1  0.90688487  0.12076972  0.59769113  1
  Te  Te173  1  0.94933903  0.07675721  0.92288709  1
  Te  Te174  1  0.95909965  0.45853938  0.26658737  1
  Te  Te175  1  0.91412827  0.40319226  0.61081701  1
  Te  Te176  1  0.92053639  0.41143027  0.91491771  1
  Te  Te177  1  0.94390028  0.73015473  0.25884636  1
  Te  Te178  1  0.93805301  0.75847453  0.56740434  1
  Te  Te179  1  0.90115738  0.76234821  0.90199191  1
