# generated using pymatgen
data_In2Te3
_symmetry_space_group_name_H-M   'P 1'
_cell_length_a   19.02802207
_cell_length_b   19.02760598
_cell_length_c   19.03635287
_cell_angle_alpha   89.98059709
_cell_angle_beta   89.98406494
_cell_angle_gamma   89.94143113
_symmetry_Int_Tables_number   1
_chemical_formula_structural   In2Te3
_chemical_formula_sum   'In72 Te108'
_cell_volume   6892.25400090
_cell_formula_units_Z   36
loop_
 _symmetry_equiv_pos_site_id
 _symmetry_equiv_pos_as_xyz
  1  'x, y, z'
loop_
 _atom_site_type_symbol
 _atom_site_label
 _atom_site_symmetry_multiplicity
 _atom_site_fract_x
 _atom_site_fract_y
 _atom_site_fract_z
 _atom_site_occupancy
  In  In0  1  0.67752450  0.01466391  0.35413872  1
  In  In1  1  0.35313385  0.84830097  0.49344754  1
  In  In2  1  -0.00781560  0.16777332  0.50551690  1
  In  In3  1  0.82258255  -0.02183090  0.14042397  1
  In  In4  1  0.17054402  -0.00114514  0.13841924  1
  In  In5  1  -0.00297660  0.16979214  0.14839171  1
  In  In6  1  0.66169536  0.49806152  0.51695424  1
  In  In7  1  0.18562891  0.48537603  0.66482867  1
  In  In8  1  0.49505112  0.83094025  0.01208811  1
  In  In9  1  0.66156098  0.02391946  0.66932431  1
  In  In10  1  0.66328994  0.32533573  0.35724903  1
  In  In11  1  -0.01405188  0.14701708  0.85557030  1
  In  In12  1  0.81749880  0.49771484  -0.00962346  1
  In  In13  1  0.34888110  0.34720461  0.34172825  1
  In  In14  1  0.35151122  0.68201031  0.62855590  1
  In  In15  1  0.65295980  0.81853511  0.14557611  1
  In  In16  1  0.65855661  0.36001179  -0.02011346  1
  In  In17  1  0.46227386  0.15836188  0.33249529  1
  In  In18  1  0.16947355  0.82523641  -0.00901117  1
  In  In19  1  0.81936566  0.83059272  0.34946779  1
  In  In20  1  0.82802390  0.46516951  0.69883780  1
  In  In21  1  0.49127060  0.84999850  0.32057607  1
  In  In22  1  0.33652172  0.67034937  0.33348930  1
  In  In23  1  0.83908812  0.65492373  0.17150890  1
  In  In24  1  0.18881378  0.16203771  0.31435866  1
  In  In25  1  0.51080472  0.34214860  0.18230332  1
  In  In26  1  0.49951073  0.17133082  -0.00939254  1
  In  In27  1  0.65339816  0.63656260  -0.02694185  1
  In  In28  1  0.79393424  0.67517737  0.50250090  1
  In  In29  1  0.16916767  0.84576561  0.32683263  1
  In  In30  1  -0.00315408  0.84493901  0.84727469  1
  In  In31  1  0.03588982  0.05295460  0.29130101  1
  In  In32  1  0.18946128  0.83444656  0.67836058  1
  In  In33  1  -0.00906241  0.33098604  -0.00265194  1
  In  In34  1  0.51775265  0.33944694  0.51934094  1
  In  In35  1  -0.03118500  0.67026638  0.32005643  1
  In  In36  1  0.64707300  0.64624004  0.70268927  1
  In  In37  1  0.78684793  0.22869314  0.68031082  1
  In  In38  1  0.83883369  0.16957141  0.34673090  1
  In  In39  1  0.02526137  0.66982233  -0.01497862  1
  In  In40  1  0.66022672  -0.00798249  0.01126682  1
  In  In41  1  0.17631026  0.50621757  0.31616731  1
  In  In42  1  0.81957548  0.50144517  0.32658061  1
  In  In43  1  0.83528444  0.01097230  0.51085269  1
  In  In44  1  0.33897004  0.00527557  0.68402073  1
  In  In45  1  0.84284878  0.83998285  0.00402790  1
  In  In46  1  0.67496723  0.15521222  0.16912933  1
  In  In47  1  0.16499611  0.65769093  0.81831644  1
  In  In48  1  0.16866409  0.29245277  0.13369630  1
  In  In49  1  0.00593375  0.32591656  0.67947999  1
  In  In50  1  -0.00837174  0.46844035  0.16044059  1
  In  In51  1  0.01850365  0.84392219  0.47456132  1
  In  In52  1  -0.02180324  0.64763605  0.66265065  1
  In  In53  1  0.17903892  0.68247616  0.17436024  1
  In  In54  1  0.49401905  0.32939824  0.83314323  1
  In  In55  1  -0.00094783  0.49376177  0.51545830  1
  In  In56  1  0.17703051  0.01556670  0.54743427  1
  In  In57  1  0.18891670  0.35351623  0.85955960  1
  In  In58  1  0.49115898  0.64813925  0.13654149  1
  In  In59  1  0.67025465  0.81631856  0.48681752  1
  In  In60  1  0.32956585  0.83754340  0.84381517  1
  In  In61  1  0.46344066  0.63871078  0.86634479  1
  In  In62  1  0.34670185  0.01260342  -0.01042737  1
  In  In63  1  0.33882240  0.19116518  0.84476303  1
  In  In64  1  0.48332207  0.16205182  0.65558478  1
  In  In65  1  0.32962605  0.50050529  0.14667458  1
  In  In66  1  0.36188096  0.50384907  0.50097100  1
  In  In67  1  0.67841472  0.19110173  0.84864583  1
  In  In68  1  0.00507292  -0.00036725  0.71273783  1
  In  In69  1  0.53011375  0.83651246  0.68377048  1
  In  In70  1  0.83439531  0.80967824  0.67477645  1
  In  In71  1  0.15857790  0.33446191  0.47328887  1
  Te  Te72  1  0.09242500  0.09838036  0.06309099  1
  Te  Te73  1  0.09066284  0.07777457  0.42893480  1
  Te  Te74  1  0.08993239  0.10699247  0.75993184  1
  Te  Te75  1  0.10012229  0.41068607  0.07175175  1
  Te  Te76  1  0.07128228  0.43128417  0.39710569  1
  Te  Te77  1  0.08913324  0.42204558  0.76014225  1
  Te  Te78  1  0.07734178  0.76151336  0.09276233  1
  Te  Te79  1  0.08687774  0.73633498  0.39371866  1
  Te  Te80  1  0.07050417  0.75350220  0.74062251  1
  Te  Te81  1  0.42513371  0.08951274  0.08583531  1
  Te  Te82  1  0.40247080  0.04834404  0.40778341  1
  Te  Te83  1  0.42528343  0.08793697  0.77552309  1
  Te  Te84  1  0.43732096  0.42307981  0.07946029  1
  Te  Te85  1  0.45559092  0.42885271  0.40973313  1
  Te  Te86  1  0.37780147  0.39352773  0.76322197  1
  Te  Te87  1  0.39895849  0.74544054  0.08001694  1
  Te  Te88  1  0.43488990  0.74575902  0.41958275  1
  Te  Te89  1  0.41382046  0.75712918  0.74650191  1
  Te  Te90  1  0.76165421  0.09363742  0.06221410  1
  Te  Te91  1  0.73613810  0.11509485  0.45855411  1
  Te  Te92  1  0.75854298  0.09803350  0.75772122  1
  Te  Te93  1  0.72444998  0.43745911  0.08753817  1
  Te  Te94  1  0.75715194  0.41485046  0.43563974  1
  Te  Te95  1  0.72258701  0.36315456  0.71007012  1
  Te  Te96  1  0.74728355  0.73011007  0.06885406  1
  Te  Te97  1  0.72146960  0.71484637  0.37183745  1
  Te  Te98  1  0.75059396  0.73057343  0.76386504  1
  Te  Te99  1  0.08377974  0.24958377  0.25029025  1
  Te  Te100  1  0.09411098  0.25090150  0.58197663  1
  Te  Te101  1  0.08637969  0.25472487  0.90935240  1
  Te  Te102  1  0.06869177  0.58505900  0.23951805  1
  Te  Te103  1  0.09370213  0.58508782  0.58760262  1
  Te  Te104  1  0.09331262  0.56772291  0.90737153  1
  Te  Te105  1  0.07528544  0.92002829  0.23456060  1
  Te  Te106  1  0.07122283  0.91339160  0.59970873  1
  Te  Te107  1  0.10739398  0.92363793  0.90193882  1
  Te  Te108  1  0.39909442  0.25293203  0.23290532  1
  Te  Te109  1  0.40878393  0.26091744  0.57756446  1
  Te  Te110  1  0.40555051  0.28083570  0.94831972  1
  Te  Te111  1  0.41366233  0.57319990  0.24891944  1
  Te  Te112  1  0.44928623  0.58336720  0.58490217  1
  Te  Te113  1  0.40718840  0.53577253  0.95614117  1
  Te  Te114  1  0.39388767  0.95901764  0.29030509  1
  Te  Te115  1  0.43099680  0.91953751  0.60053273  1
  Te  Te116  1  0.43680315  0.92203753  0.90613961  1
  Te  Te117  1  0.75097433  0.25203867  0.25537718  1
  Te  Te118  1  0.74239765  0.24164390  0.54433183  1
  Te  Te119  1  0.76991122  0.28488398  0.91702731  1
  Te  Te120  1  0.73462555  0.57134054  0.22892050  1
  Te  Te121  1  0.76285802  0.57966867  0.61416152  1
  Te  Te122  1  0.75382773  0.57756830  0.88410306  1
  Te  Te123  1  0.72839767  0.91098148  0.24865052  1
  Te  Te124  1  0.75283872  0.90457927  0.57952301  1
  Te  Te125  1  0.73361359  0.89849198  0.92670053  1
  Te  Te126  1  0.25440225  0.20116498  0.06283285  1
  Te  Te127  1  0.26527183  0.24321293  0.41528715  1
  Te  Te128  1  0.26062234  0.27797341  0.75249439  1
  Te  Te129  1  0.22772790  0.58216894  0.08105999  1
  Te  Te130  1  0.25400843  0.57966784  0.42175830  1
  Te  Te131  1  0.26749363  0.59692941  0.72506791  1
  Te  Te132  1  0.26938076  0.90745535  0.06906927  1
  Te  Te133  1  0.23462776  0.92406187  0.43856859  1
  Te  Te134  1  0.23734214  0.93908084  0.77625643  1
  Te  Te135  1  0.59753448  0.25320045  0.08220469  1
  Te  Te136  1  0.56136537  0.23248513  0.41902807  1
  Te  Te137  1  0.57832890  0.24011860  0.74538459  1
  Te  Te138  1  0.59107718  0.55635338  0.07834793  1
  Te  Te139  1  0.62387355  0.61264962  0.43646970  1
  Te  Te140  1  0.54568147  0.56028157  0.76998434  1
  Te  Te141  1  0.55917801  0.93134172  0.10626817  1
  Te  Te142  1  0.58130232  0.91994501  0.42271897  1
  Te  Te143  1  0.62118865  0.91772612  0.76177684  1
  Te  Te144  1  0.90098241  0.25950833  0.08808872  1
  Te  Te145  1  0.93304688  0.25990277  0.40997867  1
  Te  Te146  1  0.91182309  0.24716831  0.76457103  1
  Te  Te147  1  0.92910761  0.57886440  0.07415272  1
  Te  Te148  1  0.90682276  0.58769211  0.43113685  1
  Te  Te149  1  0.92182144  0.55943785  0.76229818  1
  Te  Te150  1  0.93923944  0.94545688  0.05085931  1
  Te  Te151  1  0.91469084  0.93225353  0.40803631  1
  Te  Te152  1  0.89072730  0.91657075  0.76692605  1
  Te  Te153  1  0.26105297  0.05603417  0.24292902  1
  Te  Te154  1  0.27291033  0.10843430  0.60293951  1
  Te  Te155  1  0.24744213  0.11261748  0.93582746  1
  Te  Te156  1  0.24741338  0.39851706  0.23891107  1
  Te  Te157  1  0.26088396  0.40786490  0.55994680  1
  Te  Te158  1  0.29892999  0.45623404  0.87653028  1
  Te  Te159  1  0.27554464  0.77625995  0.24485062  1
  Te  Te160  1  0.24165566  0.76010812  0.55996242  1
  Te  Te161  1  0.25773827  0.72703011  0.91664311  1
  Te  Te162  1  0.58140076  0.08540275  0.26217405  1
  Te  Te163  1  0.56314459  0.06915068  0.57356745  1
  Te  Te164  1  0.59220785  0.08397066  0.91033071  1
  Te  Te165  1  0.59004873  0.42198442  0.27461005  1
  Te  Te166  1  0.59346075  0.41727973  0.62086453  1
  Te  Te167  1  0.58291824  0.43880492  0.87982156  1
  Te  Te168  1  0.56169078  0.74423994  0.23790822  1
  Te  Te169  1  0.59273738  0.73754498  0.58892393  1
  Te  Te170  1  0.56399236  0.74109496  0.91096674  1
  Te  Te171  1  0.89188153  0.06948759  0.24609287  1
  Te  Te172  1  0.92380495  0.08146555  0.60809649  1
  Te  Te173  1  0.91713839  0.05370572  0.94302813  1
  Te  Te174  1  0.90059130  0.40369038  0.25247857  1
  Te  Te175  1  0.91059735  0.39763681  0.58656542  1
  Te  Te176  1  0.89562631  0.40198258  0.90804404  1
  Te  Te177  1  0.90444886  0.77771288  0.23456073  1
  Te  Te178  1  0.92060786  0.75592542  0.55841335  1
  Te  Te179  1  0.91301101  0.73879564  0.91214245  1
