# generated using pymatgen
data_In2Te3
_symmetry_space_group_name_H-M   'P 1'
_cell_length_a   18.97342460
_cell_length_b   18.94709900
_cell_length_c   18.95319691
_cell_angle_alpha   90.16162774
_cell_angle_beta   90.03400516
_cell_angle_gamma   90.17189327
_symmetry_Int_Tables_number   1
_chemical_formula_structural   In2Te3
_chemical_formula_sum   'In72 Te108'
_cell_volume   6813.45142013
_cell_formula_units_Z   36
loop_
 _symmetry_equiv_pos_site_id
 _symmetry_equiv_pos_as_xyz
  1  'x, y, z'
loop_
 _atom_site_type_symbol
 _atom_site_label
 _atom_site_symmetry_multiplicity
 _atom_site_fract_x
 _atom_site_fract_y
 _atom_site_fract_z
 _atom_site_occupancy
  In  In0  1  0.52279038  0.34209287  0.84665312  1
  In  In1  1  0.33203098  0.52775560  0.85945544  1
  In  In2  1  0.82859851  0.49265884  0.32289268  1
  In  In3  1  0.66471758  0.52382462  0.48958513  1
  In  In4  1  0.15827936  0.15527865  0.01485172  1
  In  In5  1  0.32715547  0.33770131  -0.00597447  1
  In  In6  1  0.14480796  0.34394924  0.52153963  1
  In  In7  1  0.81310376  0.15252242  0.01217272  1
  In  In8  1  0.14614633  0.16963368  0.63631846  1
  In  In9  1  0.83305644  0.66015898  0.18745603  1
  In  In10  1  0.86143019  0.33958949  0.80191552  1
  In  In11  1  0.66498783  0.80017583  0.50977034  1
  In  In12  1  0.64542502  0.81958166  0.84692480  1
  In  In13  1  0.80788666  -0.00280464  0.83863539  1
  In  In14  1  0.83864293  0.32918063  0.14206763  1
  In  In15  1  0.85648319  0.12154680  0.30433029  1
  In  In16  1  -0.01255333  0.66181993  -0.00955780  1
  In  In17  1  0.66006037  0.18176809  0.16980685  1
  In  In18  1  0.33752064  0.68658252  0.67076254  1
  In  In19  1  0.50521760  0.13590377  0.68924400  1
  In  In20  1  0.84386545  0.66255114  0.50258606  1
  In  In21  1  0.32692474  -0.02502739  0.67077580  1
  In  In22  1  0.37296754  -0.05073327  -0.01867227  1
  In  In23  1  0.88030420  0.84292231  0.36596633  1
  In  In24  1  0.69064895  0.82470241  0.16551083  1
  In  In25  1  0.15724888  0.15886043  0.34969743  1
  In  In26  1  0.67097657  0.34731930  -0.00766149  1
  In  In27  1  0.64685924  0.52929672  0.84518948  1
  In  In28  1  0.03325546  0.52603087  0.19212486  1
  In  In29  1  0.85557688  0.50746358  0.65726157  1
  In  In30  1  0.16242763  0.67407805  0.52432921  1
  In  In31  1  0.81351791  0.49612460  -0.00497609  1
  In  In32  1  0.32342160  0.84955028  0.19888292  1
  In  In33  1  0.48086154  0.34130064  0.16092629  1
  In  In34  1  0.00624855  0.15217977  0.82841216  1
  In  In35  1  0.31383748  0.50908605  0.49251205  1
  In  In36  1  0.52480147  0.32646356  0.50919938  1
  In  In37  1  0.32792307  0.32235523  0.31475642  1
  In  In38  1  0.84975644  0.83882614  0.65550373  1
  In  In39  1  0.01119450  0.83863752  0.16846378  1
  In  In40  1  0.15563415  0.82715734  0.00850220  1
  In  In41  1  0.16187116  0.00770323  0.17722713  1
  In  In42  1  0.16903016  -0.03685174  0.84750730  1
  In  In43  1  0.65645213  0.34458129  0.35008760  1
  In  In44  1  0.01247704  0.50408907  0.48712217  1
  In  In45  1  0.00147188  0.30952417  0.33682571  1
  In  In46  1  -0.02921314  0.32496425  -0.00247227  1
  In  In47  1  0.11196311  0.37281201  0.79733027  1
  In  In48  1  0.15383801  0.81941668  0.36876404  1
  In  In49  1  0.31877956  0.17099528  0.81466585  1
  In  In50  1  0.67447477  0.16951491  0.49093975  1
  In  In51  1  0.34398852  0.13696923  0.45511492  1
  In  In52  1  0.15101473  0.69928870  0.79624967  1
  In  In53  1  0.33722804  0.68521927  0.01241842  1
  In  In54  1  0.65750915  -0.02445797  0.31016575  1
  In  In55  1  0.15656302  0.52427943  0.00133990  1
  In  In56  1  0.00312270  -0.00098185  0.64253291  1
  In  In57  1  0.48451714  -0.02131348  0.15785883  1
  In  In58  1  0.48973036  0.51012990  0.34751540  1
  In  In59  1  0.84201987  0.68473132  0.83002704  1
  In  In60  1  0.66791481  0.16132152  0.83586068  1
  In  In61  1  0.51034902  0.85436078  0.67252591  1
  In  In62  1  0.69340339  0.34953682  0.64703576  1
  In  In63  1  0.15691978  -0.00672267  0.51026345  1
  In  In64  1  0.32983764  0.68766856  0.33423117  1
  In  In65  1  0.16803020  0.33338750  0.17111472  1
  In  In66  1  0.49921088  0.83367733  0.32201615  1
  In  In67  1  0.34214322  0.31903119  0.65259141  1
  In  In68  1  0.47638994  0.52577418  0.69076600  1
  In  In69  1  0.69345478  0.00368839  0.66438838  1
  In  In70  1  0.64965324  -0.00522035  -0.00142607  1
  In  In71  1  0.51888265  0.65206081  0.14671498  1
  Te  Te72  1  0.06937912  0.04812414  0.06649959  1
  Te  Te73  1  0.06216236  0.07741675  0.43104084  1
  Te  Te74  1  0.10620365  0.06968079  0.74530240  1
  Te  Te75  1  0.07410480  0.41246237  0.07644828  1
  Te  Te76  1  0.09548612  0.41196269  0.39595000  1
  Te  Te77  1  0.03719758  0.46255935  0.70834773  1
  Te  Te78  1  0.08146742  0.72570466  0.09166797  1
  Te  Te79  1  0.05617381  0.75677812  0.46072595  1
  Te  Te80  1  0.06637408  0.77059387  0.70004405  1
  Te  Te81  1  0.41521498  0.06528813  0.06106182  1
  Te  Te82  1  0.44205939  0.04352417  0.40534666  1
  Te  Te83  1  0.41058133  0.05669490  0.77442921  1
  Te  Te84  1  0.39644894  0.43328374  0.08210132  1
  Te  Te85  1  0.41557281  0.40470186  0.43729565  1
  Te  Te86  1  0.41000793  0.40560754  0.75989484  1
  Te  Te87  1  0.41618754  0.76441410  0.11572437  1
  Te  Te88  1  0.40897660  0.77412683  0.42116563  1
  Te  Te89  1  0.41937307  0.77214054  0.76298299  1
  Te  Te90  1  0.73730776  0.06510464  0.10654351  1
  Te  Te91  1  0.74277860  0.07281648  0.39164481  1
  Te  Te92  1  0.77226728  0.10979367  0.74040850  1
  Te  Te93  1  0.73120445  0.43049508  0.10464413  1
  Te  Te94  1  0.75777383  0.41748124  0.43587462  1
  Te  Te95  1  0.73843329  0.42883440  0.76932502  1
  Te  Te96  1  0.77437447  0.74054565  0.07999898  1
  Te  Te97  1  0.76491043  0.74849998  0.40727101  1
  Te  Te98  1  0.74903041  0.76835311  0.74543840  1
  Te  Te99  1  0.07935623  0.22793257  0.23601282  1
  Te  Te100  1  0.04259641  0.24758178  0.56798796  1
  Te  Te101  1  0.08267277  0.24946860  0.91963310  1
  Te  Te102  1  0.11654725  0.59894114  0.28520942  1
  Te  Te103  1  0.08838276  0.56724639  0.60060363  1
  Te  Te104  1  0.08333049  0.59681845  0.89172833  1
  Te  Te105  1  0.08354315  0.92381238  0.27608628  1
  Te  Te106  1  0.11070903  0.89737528  0.61817963  1
  Te  Te107  1  0.05938529  0.89023408  0.91484271  1
  Te  Te108  1  0.42261191  0.23623900  0.24631682  1
  Te  Te109  1  0.43285703  0.22167884  0.58071448  1
  Te  Te110  1  0.41537136  0.25019704  0.90411796  1
  Te  Te111  1  0.41479964  0.59582060  0.24880059  1
  Te  Te112  1  0.41143494  0.59336454  0.57088800  1
  Te  Te113  1  0.43220510  0.62201738  0.91350108  1
  Te  Te114  1  0.39445267  0.95325259  0.28597185  1
  Te  Te115  1  0.43285112  0.93656827  0.57753565  1
  Te  Te116  1  0.44715952  0.85474497  0.89719964  1
  Te  Te117  1  0.75046161  0.27008840  0.25323805  1
  Te  Te118  1  0.76738769  0.24983326  0.57203052  1
  Te  Te119  1  0.76769198  0.26247103  0.90974462  1
  Te  Te120  1  0.73244197  0.58079458  0.25853671  1
  Te  Te121  1  0.74713792  0.59417540  0.59689489  1
  Te  Te122  1  0.74605990  0.61217266  0.92576110  1
  Te  Te123  1  0.78078085  0.90016901  0.26261035  1
  Te  Te124  1  0.75743696  0.91339090  0.56068750  1
  Te  Te125  1  0.74812843  0.89829880  0.93504784  1
  Te  Te126  1  0.25844378  0.24095378  0.08965138  1
  Te  Te127  1  0.24758377  0.25780483  0.43617126  1
  Te  Te128  1  0.22364747  0.26234720  0.73818167  1
  Te  Te129  1  0.26553297  0.57480441  0.08357287  1
  Te  Te130  1  0.22331747  0.58682537  0.39962221  1
  Te  Te131  1  0.25084924  0.58845487  0.74877172  1
  Te  Te132  1  0.25577742  0.92333397  0.07667621  1
  Te  Te133  1  0.24487334  0.92517490  0.41532102  1
  Te  Te134  1  0.26019113  0.88274390  0.76466793  1
  Te  Te135  1  0.57754162  0.25690047  0.06799584  1
  Te  Te136  1  0.56880766  0.23121049  0.39957339  1
  Te  Te137  1  0.59228799  0.25913948  0.73724711  1
  Te  Te138  1  0.59037184  0.55833967  0.06178363  1
  Te  Te139  1  0.57021410  0.60877046  0.42021023  1
  Te  Te140  1  0.58048823  0.61445106  0.74498630  1
  Te  Te141  1  0.57991771  0.88961235  0.08213791  1
  Te  Te142  1  0.58934052  0.90355910  0.42430877  1
  Te  Te143  1  0.60023460  0.93954171  0.76398996  1
  Te  Te144  1  0.92619456  0.21468564  0.09399203  1
  Te  Te145  1  0.89958286  0.22473302  0.39947130  1
  Te  Te146  1  0.94398871  0.24255164  0.72875612  1
  Te  Te147  1  0.91887040  0.56478540  0.08912372  1
  Te  Te148  1  0.92270737  0.58633838  0.39766978  1
  Te  Te149  1  0.92908362  0.58973470  0.75497879  1
  Te  Te150  1  0.94061485  0.95121660  0.10417846  1
  Te  Te151  1  0.95131220  0.95110140  0.44858781  1
  Te  Te152  1  0.91562615  0.93509428  0.75170816  1
  Te  Te153  1  0.24948749  0.09863046  0.25266064  1
  Te  Te154  1  0.26582873  0.09378705  0.58180503  1
  Te  Te155  1  0.24420928  0.08057057  0.91310635  1
  Te  Te156  1  0.25951917  0.42606349  0.23910700  1
  Te  Te157  1  0.24757547  0.42560425  0.59996584  1
  Te  Te158  1  0.23252052  0.41998078  0.90524107  1
  Te  Te159  1  0.22230474  0.74930805  0.24489589  1
  Te  Te160  1  0.26708908  0.76590171  0.56994108  1
  Te  Te161  1  0.24167898  0.74821664  0.91301995  1
  Te  Te162  1  0.57205959  0.07674689  0.23652374  1
  Te  Te163  1  0.59100566  0.07628176  0.57976258  1
  Te  Te164  1  0.57333847  0.09464383  0.92361826  1
  Te  Te165  1  0.57301765  0.42432611  0.25430111  1
  Te  Te166  1  0.57517560  0.43890065  0.59928025  1
  Te  Te167  1  0.55756712  0.45346231  0.94829587  1
  Te  Te168  1  0.59414648  0.74174107  0.24797010  1
  Te  Te169  1  0.57700589  0.73759436  0.60868384  1
  Te  Te170  1  0.54909371  0.74195030  0.92881610  1
  Te  Te171  1  0.94573985  0.02241374  0.24192644  1
  Te  Te172  1  0.89340442  0.04065216  0.55373134  1
  Te  Te173  1  0.90886062  0.07899082  0.91949710  1
  Te  Te174  1  0.93037977  0.41104176  0.23783412  1
  Te  Te175  1  0.91756853  0.41695120  0.56135987  1
  Te  Te176  1  0.92022880  0.43472568  0.90550483  1
  Te  Te177  1  0.93678558  0.74453492  0.26146418  1
  Te  Te178  1  0.94044302  0.73826959  0.59075820  1
  Te  Te179  1  0.93398364  0.77224734  0.90842356  1
