# generated using pymatgen
data_In2Te3
_symmetry_space_group_name_H-M   'P 1'
_cell_length_a   18.77777524
_cell_length_b   18.77450867
_cell_length_c   18.78141586
_cell_angle_alpha   90.04009531
_cell_angle_beta   89.96482049
_cell_angle_gamma   89.95928289
_symmetry_Int_Tables_number   1
_chemical_formula_structural   In2Te3
_chemical_formula_sum   'In72 Te108'
_cell_volume   6621.26161191
_cell_formula_units_Z   36
loop_
 _symmetry_equiv_pos_site_id
 _symmetry_equiv_pos_as_xyz
  1  'x, y, z'
loop_
 _atom_site_type_symbol
 _atom_site_label
 _atom_site_symmetry_multiplicity
 _atom_site_fract_x
 _atom_site_fract_y
 _atom_site_fract_z
 _atom_site_occupancy
  In  In0  1  0.33789808  0.82565869  0.15702059  1
  In  In1  1  -0.01049144  0.33605869  0.01510398  1
  In  In2  1  0.17214146  0.51526972  0.34275165  1
  In  In3  1  0.84025197  -0.00303176  0.82078196  1
  In  In4  1  -0.00352868  0.83598325  0.50628337  1
  In  In5  1  0.32021413  0.33762282  -0.01098269  1
  In  In6  1  0.49961566  0.50150419  0.00101279  1
  In  In7  1  0.16377702  0.00311959  0.18016277  1
  In  In8  1  0.83737707  0.32184823  0.16005044  1
  In  In9  1  0.50283182  0.84337949  0.32335242  1
  In  In10  1  0.84281582  0.82566839  0.68113933  1
  In  In11  1  0.13229363  -0.04475050  0.86566594  1
  In  In12  1  0.82326698  0.82074879  0.01275292  1
  In  In13  1  0.50432443  0.63127020  0.50995477  1
  In  In14  1  0.18740313  0.34525861  0.84132455  1
  In  In15  1  0.81073701  -0.00166799  0.18467241  1
  In  In16  1  0.83776722  0.50313346  0.66311220  1
  In  In17  1  0.00849319  0.50611780  0.85100272  1
  In  In18  1  0.33891470  -0.01142028  -0.00218182  1
  In  In19  1  0.83729364  0.17277323  0.32807992  1
  In  In20  1  0.31998574  0.17950865  0.82766973  1
  In  In21  1  0.84686033  0.67758139  0.84742166  1
  In  In22  1  0.53337432  0.68697989  0.85962447  1
  In  In23  1  0.66436310  0.00894374  0.67467405  1
  In  In24  1  0.65297456  0.84124940  0.48917353  1
  In  In25  1  0.83565048  0.02452960  0.50305396  1
  In  In26  1  -0.01689717  0.34280415  0.33658745  1
  In  In27  1  0.68860296  0.30887640  -0.02843657  1
  In  In28  1  -0.02323437  0.69600983  0.33957355  1
  In  In29  1  0.16705984  0.01209508  0.48742343  1
  In  In30  1  -0.00129046  0.15897783  0.14950684  1
  In  In31  1  0.18488513  0.17494659  0.66461129  1
  In  In32  1  0.32900884  0.66820755  0.32915481  1
  In  In33  1  0.66027738  0.50475369  0.83069383  1
  In  In34  1  -0.01285134  0.14497663  0.82894753  1
  In  In35  1  0.17658863  0.34381436  0.15114830  1
  In  In36  1  0.16577538  0.16897242  0.01141990  1
  In  In37  1  0.18569745  0.65267616  0.14519793  1
  In  In38  1  0.67383651  -0.01583884  0.01995444  1
  In  In39  1  0.51541158  -0.00672097  0.17917092  1
  In  In40  1  0.50206855  -0.00175240  0.84031625  1
  In  In41  1  0.82645935  0.16487833  0.65780893  1
  In  In42  1  0.31174742  0.83070018  0.48501736  1
  In  In43  1  -0.01307085  -0.00356408  0.66781318  1
  In  In44  1  0.51023825  0.69086322  0.16680066  1
  In  In45  1  0.49146573  0.31113530  0.16916301  1
  In  In46  1  0.82793256  0.84256810  0.32406858  1
  In  In47  1  0.00211790  0.50682806  0.50716645  1
  In  In48  1  0.67893906  0.64605453  0.67056989  1
  In  In49  1  0.16978605  0.17042133  0.34052305  1
  In  In50  1  0.50291376  0.51270170  0.32241614  1
  In  In51  1  0.65145964  0.15535384  0.48287295  1
  In  In52  1  0.32418706  0.83472350  0.84995348  1
  In  In53  1  0.00507242  0.83783609  0.17313277  1
  In  In54  1  0.31658582  -0.01389431  0.65697285  1
  In  In55  1  0.82852242  0.66473287  0.51222181  1
  In  In56  1  0.48751751  0.85090293  0.66523979  1
  In  In57  1  0.14410708  0.69811933  0.83036438  1
  In  In58  1  0.69404578  0.35101856  0.35552528  1
  In  In59  1  0.20153319  0.48164457  0.63978436  1
  In  In60  1  0.33904426  0.65321268  0.65637409  1
  In  In61  1  0.33684743  0.32677431  0.32428283  1
  In  In62  1  0.50755989  0.34221111  0.50278291  1
  In  In63  1  0.35783473  0.49316477  0.82545154  1
  In  In64  1  0.49991265  0.19298917  0.66469908  1
  In  In65  1  0.83807307  0.50733664  0.01186447  1
  In  In66  1  0.65873395  0.33301219  0.66504462  1
  In  In67  1  -0.01861391  0.50754483  0.17228581  1
  In  In68  1  0.15924556  0.66420712  0.49964812  1
  In  In69  1  0.00177095  0.31766094  0.66633182  1
  In  In70  1  0.49224735  0.16397561  -0.00181799  1
  In  In71  1  0.68718197  0.52533000  0.19658298  1
  Te  Te72  1  0.07453011  0.05961658  0.06224789  1
  Te  Te73  1  0.06766341  0.09080798  0.41018206  1
  Te  Te74  1  0.09858962  0.07711987  0.74931357  1
  Te  Te75  1  0.08238581  0.43891405  0.07714033  1
  Te  Te76  1  0.08944864  0.41440130  0.42183194  1
  Te  Te77  1  0.08744999  0.41717115  0.74515523  1
  Te  Te78  1  0.09314383  0.75573025  0.08089008  1
  Te  Te79  1  0.09331945  0.76665206  0.40860414  1
  Te  Te80  1  0.06020883  0.77903533  0.74111498  1
  Te  Te81  1  0.41358036  0.07826059  0.09377811  1
  Te  Te82  1  0.47552984  0.06359624  0.36834484  1
  Te  Te83  1  0.40706316  0.07527932  0.74794420  1
  Te  Te84  1  0.41056739  0.41347356  0.08860415  1
  Te  Te85  1  0.41555372  0.42566877  0.41082717  1
  Te  Te86  1  0.40876062  0.37995353  0.74845808  1
  Te  Te87  1  0.40442223  0.72764378  0.06929402  1
  Te  Te88  1  0.42966804  0.74260138  0.42138548  1
  Te  Te89  1  0.41647519  0.74775937  0.75289980  1
  Te  Te90  1  0.73746536  0.09299042  0.09728881  1
  Te  Te91  1  0.74122747  0.06952910  0.39346474  1
  Te  Te92  1  0.74019574  0.10216057  0.76881067  1
  Te  Te93  1  0.73940319  0.41385993  0.08293837  1
  Te  Te94  1  0.76983767  0.45207636  0.42674358  1
  Te  Te95  1  0.75558772  0.41381765  0.75476284  1
  Te  Te96  1  0.71325518  0.74270184  0.07249396  1
  Te  Te97  1  0.74611742  0.74651585  0.41450630  1
  Te  Te98  1  0.73919274  0.75017488  0.76423528  1
  Te  Te99  1  0.07250420  0.26485558  0.23413518  1
  Te  Te100  1  0.09197113  0.24547050  0.57404825  1
  Te  Te101  1  0.08346042  0.25511374  0.91254968  1
  Te  Te102  1  0.07418321  0.59888229  0.25961244  1
  Te  Te103  1  0.08860372  0.58250099  0.60633424  1
  Te  Te104  1  0.07764293  0.60788946  0.93045479  1
  Te  Te105  1  0.07581341  0.92385345  0.26958701  1
  Te  Te106  1  0.09328744  0.92035380  0.58765525  1
  Te  Te107  1  0.07317547  0.85075606  0.95224685  1
  Te  Te108  1  0.41930645  0.21808600  0.26189408  1
  Te  Te109  1  0.41404697  0.23911678  0.55551075  1
  Te  Te110  1  0.42385587  0.26210831  0.90366466  1
  Te  Te111  1  0.40944222  0.58847674  0.22860859  1
  Te  Te112  1  0.41667991  0.54454936  0.59143577  1
  Te  Te113  1  0.41895663  0.60030595  0.91770600  1
  Te  Te114  1  0.39499063  0.92726228  0.25538713  1
  Te  Te115  1  0.41396411  0.92477611  0.55582091  1
  Te  Te116  1  0.43856266  0.89368615  0.93198539  1
  Te  Te117  1  0.73512870  0.24861075  0.24506606  1
  Te  Te118  1  0.74122750  0.24963452  0.56425958  1
  Te  Te119  1  0.77966068  0.23683207  0.88355286  1
  Te  Te120  1  0.78633990  0.61783454  0.24960370  1
  Te  Te121  1  0.73378018  0.55142665  0.55829689  1
  Te  Te122  1  0.74486827  0.59168444  0.92306660  1
  Te  Te123  1  0.71508559  0.89710659  0.24187262  1
  Te  Te124  1  0.75956914  0.91730994  0.58676117  1
  Te  Te125  1  0.75065649  0.91004073  0.90703665  1
  Te  Te126  1  0.27134656  0.23712939  0.09618980  1
  Te  Te127  1  0.24343178  0.26900378  0.42974919  1
  Te  Te128  1  0.28056346  0.29255678  0.72574227  1
  Te  Te129  1  0.24657459  0.54071801  0.07323364  1
  Te  Te130  1  0.27120238  0.57946149  0.43983247  1
  Te  Te131  1  0.24608032  0.57885993  0.75410515  1
  Te  Te132  1  0.23783704  0.91109238  0.07810766  1
  Te  Te133  1  0.25306987  0.93116615  0.39582148  1
  Te  Te134  1  0.23075847  0.90752868  0.75508774  1
  Te  Te135  1  0.59429415  0.24366506  0.07816770  1
  Te  Te136  1  0.57982450  0.25855449  0.39632886  1
  Te  Te137  1  0.59358813  0.24382909  0.76436322  1
  Te  Te138  1  0.59312331  0.58320277  0.08995492  1
  Te  Te139  1  0.59698137  0.59367652  0.40220194  1
  Te  Te140  1  0.56108857  0.58403075  0.74696969  1
  Te  Te141  1  0.56811897  0.89422686  0.07798504  1
  Te  Te142  1  0.57178646  0.94375774  0.41643790  1
  Te  Te143  1  0.59447308  0.90396425  0.76099535  1
  Te  Te144  1  0.89455479  0.22361884  0.05745091  1
  Te  Te145  1  0.90768709  0.25520726  0.42783364  1
  Te  Te146  1  0.90088366  0.25468976  0.76541262  1
  Te  Te147  1  0.92712458  0.60589129  0.07578087  1
  Te  Te148  1  0.90747383  0.57798695  0.41044484  1
  Te  Te149  1  0.92687225  0.59040907  0.75074746  1
  Te  Te150  1  0.90704528  0.92238272  0.09275196  1
  Te  Te151  1  0.91669685  0.92775222  0.41528452  1
  Te  Te152  1  0.95014883  0.88732259  0.77335447  1
  Te  Te153  1  0.25747146  0.09515762  0.24929921  1
  Te  Te154  1  0.27170854  0.09815610  0.56332393  1
  Te  Te155  1  0.24368952  0.07495590  0.91081747  1
  Te  Te156  1  0.25693628  0.43315031  0.24527540  1
  Te  Te157  1  0.24281797  0.37557998  0.54752893  1
  Te  Te158  1  0.23917583  0.45853596  0.93449425  1
  Te  Te159  1  0.23545387  0.75588535  0.24945019  1
  Te  Te160  1  0.24084281  0.75351992  0.59567096  1
  Te  Te161  1  0.24926018  0.73649138  0.92962620  1
  Te  Te162  1  0.57132115  0.10196373  0.26513662  1
  Te  Te163  1  0.56625961  0.07709212  0.58300169  1
  Te  Te164  1  0.59604102  0.08255325  0.92253099  1
  Te  Te165  1  0.58740146  0.41199256  0.24207892  1
  Te  Te166  1  0.57902617  0.43594897  0.59305098  1
  Te  Te167  1  0.57974327  0.40568771  0.91355937  1
  Te  Te168  1  0.60922598  0.76630159  0.25051372  1
  Te  Te169  1  0.58564963  0.74928329  0.59108978  1
  Te  Te170  1  0.60510017  0.76737674  0.96642037  1
  Te  Te171  1  0.92736632  0.07478982  0.25313721  1
  Te  Te172  1  0.94167190  0.10811154  0.57407438  1
  Te  Te173  1  0.92517505  0.05578829  0.92782988  1
  Te  Te174  1  0.88371480  0.42899409  0.25868400  1
  Te  Te175  1  0.91223108  0.40277366  0.57494311  1
  Te  Te176  1  0.90574770  0.41168430  0.91255693  1
  Te  Te177  1  0.88552707  0.73696711  0.22090313  1
  Te  Te178  1  0.93352951  0.73227704  0.59907509  1
  Te  Te179  1  0.93826593  0.75801552  0.93528560  1
