# generated using pymatgen
data_In2Te3
_symmetry_space_group_name_H-M   'P 1'
_cell_length_a   18.96105149
_cell_length_b   18.96749704
_cell_length_c   18.96818497
_cell_angle_alpha   89.87775568
_cell_angle_beta   90.04299388
_cell_angle_gamma   90.11872504
_symmetry_Int_Tables_number   1
_chemical_formula_structural   In2Te3
_chemical_formula_sum   'In72 Te108'
_cell_volume   6821.75592372
_cell_formula_units_Z   36
loop_
 _symmetry_equiv_pos_site_id
 _symmetry_equiv_pos_as_xyz
  1  'x, y, z'
loop_
 _atom_site_type_symbol
 _atom_site_label
 _atom_site_symmetry_multiplicity
 _atom_site_fract_x
 _atom_site_fract_y
 _atom_site_fract_z
 _atom_site_occupancy
  In  In0  1  0.17269126  0.34507785  0.81730167  1
  In  In1  1  0.31047331  0.17479540  0.46697189  1
  In  In2  1  0.32438545  0.51508387  0.16926186  1
  In  In3  1  -0.01420370  -0.03300674  0.64450115  1
  In  In4  1  0.83728473  0.19968533  -0.00402635  1
  In  In5  1  0.88703851  0.17109136  0.29290154  1
  In  In6  1  0.51391807  0.66887605  0.50738660  1
  In  In7  1  0.66794161  0.66577698  0.68253309  1
  In  In8  1  0.48419744  0.35711668  0.85584258  1
  In  In9  1  0.03747001  0.35472811  0.64761453  1
  In  In10  1  0.86010283  0.14147870  0.65606872  1
  In  In11  1  0.02386518  0.17423701  0.81304895  1
  In  In12  1  0.52933782  0.80147314  0.00639052  1
  In  In13  1  0.16138874  0.00619090  0.16727376  1
  In  In14  1  0.32387800  0.85036318  0.15576675  1
  In  In15  1  0.81909400  0.34408716  0.16765352  1
  In  In16  1  0.32552708  0.32090249  -0.00173558  1
  In  In17  1  0.81507085  0.81427816  0.69260912  1
  In  In18  1  0.82541137  -0.01363853  0.87670773  1
  In  In19  1  0.17368614  0.50041731  0.33774048  1
  In  In20  1  0.17727711  0.34789606  0.49340688  1
  In  In21  1  0.82122037  0.68385303  0.50193861  1
  In  In22  1  0.84825061  -0.02941881  0.49242886  1
  In  In23  1  0.65755005  0.35194406  0.33691646  1
  In  In24  1  0.47926428  0.51992711  -0.00577516  1
  In  In25  1  0.67585243  0.14913201  0.49875172  1
  In  In26  1  0.16802798  0.68014870  0.16169775  1
  In  In27  1  0.00477471  0.33871814  0.32092215  1
  In  In28  1  0.64889764  0.65392096  0.33234311  1
  In  In29  1  0.50975074  0.19204133  0.31004492  1
  In  In30  1  0.82130237  0.34710511  0.48759840  1
  In  In31  1  0.66706918  0.33887599  0.68295455  1
  In  In32  1  0.47313479  0.14754836  0.63686602  1
  In  In33  1  0.02765599  0.80581012  0.52468395  1
  In  In34  1  0.32125372  0.67241501  0.70837568  1
  In  In35  1  0.51004853  0.16848324  0.02105145  1
  In  In36  1  0.05725674  0.77660694  0.82485806  1
  In  In37  1  0.66223585  -0.03428055  0.70216053  1
  In  In38  1  -0.00530136  0.35822454  0.00006186  1
  In  In39  1  -0.01277289  0.83246040  0.16227025  1
  In  In40  1  0.69138950  0.66549075  0.01386846  1
  In  In41  1  0.18507106  0.18021699  0.65224254  1
  In  In42  1  0.51811554  0.51072916  0.67837267  1
  In  In43  1  0.15501943  0.13638313  0.00455704  1
  In  In44  1  0.16527637  0.02081211  0.45886771  1
  In  In45  1  0.34083953  -0.00467988  -0.01894583  1
  In  In46  1  0.47756879  0.35256214  0.50529425  1
  In  In47  1  0.84387126  0.36126752  0.83079216  1
  In  In48  1  0.29584006  0.70301423  -0.02240191  1
  In  In49  1  0.34188193  -0.00560616  0.33793086  1
  In  In50  1  0.32812040  -0.03565431  0.67478189  1
  In  In51  1  0.18951890  0.82413804  0.34680398  1
  In  In52  1  0.30976934  0.50556286  0.52055787  1
  In  In53  1  -0.00808794  -0.00772032  0.01411940  1
  In  In54  1  0.66987209  -0.00000584  0.33043539  1
  In  In55  1  -0.01292796  0.66875163  -0.02110576  1
  In  In56  1  0.66401244  0.17433398  0.82517313  1
  In  In57  1  0.33622511  0.50620074  0.82233108  1
  In  In58  1  0.85504387  0.53997995  0.68680907  1
  In  In59  1  -0.01489322  0.67972075  0.32958166  1
  In  In60  1  0.50931462  -0.03256356  0.82949591  1
  In  In61  1  0.67545037  -0.01031856  0.01656620  1
  In  In62  1  0.67477057  0.49527381  0.17672956  1
  In  In63  1  0.82170668  0.84317183  0.33025152  1
  In  In64  1  -0.02655938  0.50119908  0.15287044  1
  In  In65  1  0.50654671  0.81613584  0.34521588  1
  In  In66  1  0.47782835  -0.01937224  0.51796958  1
  In  In67  1  0.16806339  -0.00809590  0.82991711  1
  In  In68  1  0.34207734  0.18108208  0.15652408  1
  In  In69  1  0.68033931  0.16872051  0.15360459  1
  In  In70  1  0.01137205  0.53854655  0.53815194  1
  In  In71  1  0.48973795  0.66358666  0.19598948  1
  Te  Te72  1  0.05113714  0.09439204  0.10821815  1
  Te  Te73  1  0.07467495  0.08090281  0.35663407  1
  Te  Te74  1  0.08579736  0.06978023  0.72423826  1
  Te  Te75  1  0.08623304  0.43168876  0.08915462  1
  Te  Te76  1  0.06195004  0.43460565  0.43135576  1
  Te  Te77  1  0.05749646  0.43057974  0.77282645  1
  Te  Te78  1  0.07863784  0.75731125  0.06772991  1
  Te  Te79  1  0.10074070  0.72482222  0.41925956  1
  Te  Te80  1  0.09055257  0.74786060  0.67999516  1
  Te  Te81  1  0.41838987  0.06873377  0.08883831  1
  Te  Te82  1  0.43314134  0.09165100  0.41436592  1
  Te  Te83  1  0.41827638  0.06177713  0.74979974  1
  Te  Te84  1  0.40769733  0.41771027  0.08026829  1
  Te  Te85  1  0.38846359  0.42934142  0.42025685  1
  Te  Te86  1  0.41590232  0.41042851  0.73389763  1
  Te  Te87  1  0.40365906  0.73821130  0.08826772  1
  Te  Te88  1  0.41318858  0.74582258  0.43184618  1
  Te  Te89  1  0.43108101  0.77008271  0.72791987  1
  Te  Te90  1  0.78172584  0.08524013  0.07949227  1
  Te  Te91  1  0.77485349  0.07899862  0.41114523  1
  Te  Te92  1  0.76084537  0.07833708  0.75560833  1
  Te  Te93  1  0.74689577  0.42403567  0.06706706  1
  Te  Te94  1  0.73910147  0.44319856  0.41628522  1
  Te  Te95  1  0.74785570  0.44732932  0.75154207  1
  Te  Te96  1  0.75441819  0.79876179  0.03268516  1
  Te  Te97  1  0.72730429  0.76204164  0.41603846  1
  Te  Te98  1  0.77295072  0.70516685  0.78317570  1
  Te  Te99  1  0.09946519  0.22772629  0.30023671  1
  Te  Te100  1  0.08455945  0.24127574  0.55895492  1
  Te  Te101  1  0.08842670  0.25589278  0.92286124  1
  Te  Te102  1  0.07293299  0.59232832  0.24231444  1
  Te  Te103  1  0.11969574  0.60804974  0.61093436  1
  Te  Te104  1  0.07610301  0.59063939  0.88704533  1
  Te  Te105  1  0.09785744  0.89467906  0.24947089  1
  Te  Te106  1  0.11001258  0.92674579  0.56813945  1
  Te  Te107  1  0.06201918  0.91615857  0.90518490  1
  Te  Te108  1  0.41515149  0.27716464  0.23999914  1
  Te  Te109  1  0.38501269  0.25392201  0.57469200  1
  Te  Te110  1  0.42005026  0.23470569  0.91659490  1
  Te  Te111  1  0.41853756  0.56165889  0.27296798  1
  Te  Te112  1  0.41100525  0.58995811  0.60661437  1
  Te  Te113  1  0.39974143  0.61536407  0.90736035  1
  Te  Te114  1  0.42788546  0.90979116  0.24933888  1
  Te  Te115  1  0.42562668  0.87228333  0.60666585  1
  Te  Te116  1  0.42476566  0.88435504  0.92404972  1
  Te  Te117  1  0.74997761  0.24228085  0.27021125  1
  Te  Te118  1  0.75298513  0.24426971  0.59121572  1
  Te  Te119  1  0.73866893  0.27530254  0.90825805  1
  Te  Te120  1  0.75523906  0.58757647  0.25638837  1
  Te  Te121  1  0.74922834  0.57984646  0.58446477  1
  Te  Te122  1  0.78515305  0.55835034  0.96936099  1
  Te  Te123  1  0.75797286  0.93405006  0.23500865  1
  Te  Te124  1  0.75146295  0.90885584  0.59008658  1
  Te  Te125  1  0.71741086  0.88923692  0.91079276  1
  Te  Te126  1  0.22489906  0.24525851  0.08521176  1
  Te  Te127  1  0.23323659  0.26640713  0.37961800  1
  Te  Te128  1  0.26110280  0.24565022  0.75714179  1
  Te  Te129  1  0.23916584  0.59169665  0.06236660  1
  Te  Te130  1  0.24214047  0.59508161  0.42401172  1
  Te  Te131  1  0.21867303  0.60005385  0.79970605  1
  Te  Te132  1  0.23123750  0.92314374  0.05901020  1
  Te  Te133  1  0.27256074  0.90846318  0.44062532  1
  Te  Te134  1  0.26281094  0.88702906  0.78363798  1
  Te  Te135  1  0.59985699  0.26627784  0.08034001  1
  Te  Te136  1  0.57997651  0.24918281  0.43887797  1
  Te  Te137  1  0.56409487  0.23501013  0.72829299  1
  Te  Te138  1  0.57515974  0.59050534  0.09209909  1
  Te  Te139  1  0.56602272  0.56690999  0.41572996  1
  Te  Te140  1  0.58191990  0.59407288  0.78249424  1
  Te  Te141  1  0.56864584  0.91784723  0.08550977  1
  Te  Te142  1  0.58291327  0.92055315  0.42755485  1
  Te  Te143  1  0.57211903  0.85767150  0.74994052  1
  Te  Te144  1  0.92821330  0.26376926  0.10014213  1
  Te  Te145  1  0.91614339  0.25355840  0.41774765  1
  Te  Te146  1  0.91743181  0.25687740  0.74242721  1
  Te  Te147  1  0.89652186  0.60737363  0.08189311  1
  Te  Te148  1  0.91535947  0.58921594  0.42971768  1
  Te  Te149  1  0.97570334  0.56890845  0.76797915  1
  Te  Te150  1  0.89419146  0.88880591  0.05887692  1
  Te  Te151  1  0.94114503  0.88041292  0.41732200  1
  Te  Te152  1  0.90182869  0.92098552  0.75896530  1
  Te  Te153  1  0.26270842  0.08548540  0.24784109  1
  Te  Te154  1  0.26530220  0.07301145  0.57722109  1
  Te  Te155  1  0.25598112  0.09361518  0.90095382  1
  Te  Te156  1  0.21833146  0.42452517  0.22141183  1
  Te  Te157  1  0.21904442  0.42780706  0.60933515  1
  Te  Te158  1  0.24916979  0.42532456  0.92002470  1
  Te  Te159  1  0.27321879  0.74192878  0.25207117  1
  Te  Te160  1  0.22709631  0.72480516  0.60540697  1
  Te  Te161  1  0.20471036  0.75704242  0.87168179  1
  Te  Te162  1  0.58345049  0.08446699  0.23600389  1
  Te  Te163  1  0.59760835  0.06151544  0.59521215  1
  Te  Te164  1  0.58750622  0.07811166  0.91456563  1
  Te  Te165  1  0.57000612  0.40928871  0.23628014  1
  Te  Te166  1  0.59115164  0.42090326  0.58006457  1
  Te  Te167  1  0.58004089  0.44913940  0.91189733  1
  Te  Te168  1  0.59783645  0.76195485  0.23618078  1
  Te  Te169  1  0.61491988  0.75128585  0.57517296  1
  Te  Te170  1  0.59061140  0.70596315  0.91129310  1
  Te  Te171  1  0.94273978  0.03847098  0.28617611  1
  Te  Te172  1  0.94300535  0.07832631  0.54835175  1
  Te  Te173  1  0.92652363  0.10214489  0.90795690  1
  Te  Te174  1  0.89700141  0.43066820  0.26421076  1
  Te  Te175  1  0.91174432  0.42362655  0.59347708  1
  Te  Te176  1  0.90051318  0.45383926  0.93407022  1
  Te  Te177  1  0.88676843  0.74342504  0.23453009  1
  Te  Te178  1  0.91591149  0.73958589  0.60578232  1
  Te  Te179  1  0.91729066  0.74844702  0.87307497  1
