# generated using pymatgen
data_In2Te3
_symmetry_space_group_name_H-M   'P 1'
_cell_length_a   18.89315291
_cell_length_b   18.89880918
_cell_length_c   18.89432852
_cell_angle_alpha   89.84350774
_cell_angle_beta   89.98420729
_cell_angle_gamma   90.13386153
_symmetry_Int_Tables_number   1
_chemical_formula_structural   In2Te3
_chemical_formula_sum   'In72 Te108'
_cell_volume   6746.32903923
_cell_formula_units_Z   36
loop_
 _symmetry_equiv_pos_site_id
 _symmetry_equiv_pos_as_xyz
  1  'x, y, z'
loop_
 _atom_site_type_symbol
 _atom_site_label
 _atom_site_symmetry_multiplicity
 _atom_site_fract_x
 _atom_site_fract_y
 _atom_site_fract_z
 _atom_site_occupancy
  In  In0  1  -0.01517797  0.31281655  0.66149455  1
  In  In1  1  0.66368762  -0.01962522  0.02013219  1
  In  In2  1  0.66936104  0.83220886  0.48723909  1
  In  In3  1  0.34312050  0.17045263  0.19154302  1
  In  In4  1  0.83587201  0.15661611  -0.02207235  1
  In  In5  1  0.34139641  0.15928067  0.82875583  1
  In  In6  1  0.33933348  0.02154283  0.67837826  1
  In  In7  1  -0.00625656  -0.00346419  0.68164382  1
  In  In8  1  0.32084223  0.53809041  0.17765215  1
  In  In9  1  0.01841731  0.51861575  0.14480626  1
  In  In10  1  0.81468499  0.51061797  0.63973321  1
  In  In11  1  0.01371305  0.32038158  0.34456750  1
  In  In12  1  0.82055904  0.84487037  0.32384016  1
  In  In13  1  0.82060679  0.68043758  0.50911264  1
  In  In14  1  0.17547193  0.16309015  0.01874078  1
  In  In15  1  -0.01985679  0.66879165  0.64449201  1
  In  In16  1  0.50523925  0.65464784  0.47594320  1
  In  In17  1  0.50750461  -0.02737710  0.49854273  1
  In  In18  1  0.83610273  0.35812872  0.15816581  1
  In  In19  1  0.00911110  0.14413553  0.85764237  1
  In  In20  1  0.51645538  0.46055514  0.65325143  1
  In  In21  1  0.32413573  0.66441271  0.66273505  1
  In  In22  1  0.50893507  0.51492169  -0.00782300  1
  In  In23  1  -0.00217320  0.14758393  0.50517349  1
  In  In24  1  0.53375578  -0.00992131  0.16696071  1
  In  In25  1  0.15470862  0.48038181  0.33263924  1
  In  In26  1  0.18000800  0.49444557  0.67981801  1
  In  In27  1  0.67202647  0.31912095  0.34565029  1
  In  In28  1  0.51681172  0.85717287  0.68810713  1
  In  In29  1  0.83832855  0.31221187  0.50759934  1
  In  In30  1  0.13441381  -0.00294997  0.85282946  1
  In  In31  1  0.01935288  0.51419011  0.79948905  1
  In  In32  1  -0.00540332  0.16170049  0.19050669  1
  In  In33  1  0.14957298  -0.00342745  0.15573909  1
  In  In34  1  0.82526974  0.01437438  0.48841383  1
  In  In35  1  0.51057753  0.69546034  0.86911664  1
  In  In36  1  0.52790472  0.30400979  0.81087216  1
  In  In37  1  0.65896811  0.68165176  0.69120467  1
  In  In38  1  -0.01543224  0.85602948  0.86458930  1
  In  In39  1  0.67191375  0.15700200  0.51865388  1
  In  In40  1  0.01101962  0.34838812  -0.00103908  1
  In  In41  1  -0.02237823  0.69677618  0.30693012  1
  In  In42  1  0.50945202  0.81739913  0.33391610  1
  In  In43  1  0.34914646  0.31748602  0.68358004  1
  In  In44  1  0.32590157  0.50579652  0.48334972  1
  In  In45  1  0.49310238  0.31961153  0.17183100  1
  In  In46  1  0.67100404  0.02318168  0.68498739  1
  In  In47  1  0.32083425  0.83909011  0.47101207  1
  In  In48  1  0.16439240  0.67611630  0.84152397  1
  In  In49  1  0.65789843  0.83491419  0.15879699  1
  In  In50  1  0.15951736  0.84369081  0.66786366  1
  In  In51  1  0.34858029  -0.03267095  0.00909208  1
  In  In52  1  0.31335921  0.20341679  0.49296227  1
  In  In53  1  0.03036685  0.68394764  0.04933447  1
  In  In54  1  0.32250900  -0.02003922  0.32277026  1
  In  In55  1  0.18567993  -0.00909096  0.48324426  1
  In  In56  1  0.49758582  0.16979726  0.36660571  1
  In  In57  1  0.81105001  0.32365746  0.82959160  1
  In  In58  1  0.81607190  0.49801935  0.31703283  1
  In  In59  1  0.48248978  0.50605901  0.32285924  1
  In  In60  1  0.32877609  0.82597004  0.86314303  1
  In  In61  1  0.01460920  0.49567447  0.45778727  1
  In  In62  1  0.34009568  0.34790260  -0.00894833  1
  In  In63  1  0.17674103  0.49562743  0.00016788  1
  In  In64  1  0.14678670  0.65323987  0.46628029  1
  In  In65  1  0.00057030  -0.00858966  0.33151081  1
  In  In66  1  0.81937180  0.69161998  0.85131029  1
  In  In67  1  0.65739298  0.51878624  0.14818710  1
  In  In68  1  0.85191639  0.51940835  -0.01077667  1
  In  In69  1  0.66029986  0.49667726  0.82201988  1
  In  In70  1  0.52803141  0.13919710  -0.00139821  1
  In  In71  1  0.68646811  0.16321505  0.15420448  1
  Te  Te72  1  0.05643962  0.08516036  0.07210092  1
  Te  Te73  1  0.09480779  0.08522767  0.40561946  1
  Te  Te74  1  0.09555866  0.09233862  0.74219597  1
  Te  Te75  1  0.10781103  0.40422224  0.10189298  1
  Te  Te76  1  0.11757568  0.37765299  0.45073478  1
  Te  Te77  1  0.08947281  0.39253012  0.74798851  1
  Te  Te78  1  0.10399531  0.77016058  0.14711152  1
  Te  Te79  1  0.05451697  0.75535439  0.41867602  1
  Te  Te80  1  0.06772449  0.74859404  0.74737976  1
  Te  Te81  1  0.42050095  0.08244170  0.09430531  1
  Te  Te82  1  0.40470464  0.06199398  0.42259379  1
  Te  Te83  1  0.44316738  0.07324427  0.76790621  1
  Te  Te84  1  0.41915350  0.42832081  0.09411189  1
  Te  Te85  1  0.42598670  0.41649942  0.42515420  1
  Te  Te86  1  0.43026358  0.41564220  0.76828217  1
  Te  Te87  1  0.37169160  0.78369099  0.12682807  1
  Te  Te88  1  0.39812967  0.73307324  0.39811460  1
  Te  Te89  1  0.41159153  0.75545191  0.74778706  1
  Te  Te90  1  0.77701897  0.06392843  0.08464355  1
  Te  Te91  1  0.73197747  0.08992958  0.40382654  1
  Te  Te92  1  0.72047236  0.12124935  0.78566969  1
  Te  Te93  1  0.74848765  0.43000207  0.05999507  1
  Te  Te94  1  0.75606199  0.41532010  0.43071928  1
  Te  Te95  1  0.73801890  0.41045122  0.72495503  1
  Te  Te96  1  0.72541047  0.75873369  0.04776253  1
  Te  Te97  1  0.73787804  0.73553564  0.39447044  1
  Te  Te98  1  0.76922901  0.76836058  0.73502832  1
  Te  Te99  1  0.09810568  0.24832370  0.24851347  1
  Te  Te100  1  0.08335201  0.23791509  0.58397897  1
  Te  Te101  1  0.09905309  0.25227590  0.92144006  1
  Te  Te102  1  0.08173421  0.59321012  0.25859936  1
  Te  Te103  1  0.08730312  0.57445639  0.58663727  1
  Te  Te104  1  0.06459180  0.58509642  0.92528203  1
  Te  Te105  1  0.04904932  0.90225960  0.21926284  1
  Te  Te106  1  0.07779529  0.92694601  0.57267189  1
  Te  Te107  1  0.11224380  0.88225065  0.94924458  1
  Te  Te108  1  0.40907474  0.26676208  0.28824719  1
  Te  Te109  1  0.42027539  0.23074188  0.58852303  1
  Te  Te110  1  0.43104206  0.24104080  0.92896918  1
  Te  Te111  1  0.44328923  0.60893456  0.22261155  1
  Te  Te112  1  0.42394039  0.57871498  0.58725089  1
  Te  Te113  1  0.41116327  0.60779154  0.93232460  1
  Te  Te114  1  0.42402114  0.90441058  0.23986380  1
  Te  Te115  1  0.39542086  0.90486752  0.58670906  1
  Te  Te116  1  0.43852013  0.91711209  0.90388761  1
  Te  Te117  1  0.76824676  0.25391218  0.24647594  1
  Te  Te118  1  0.75692460  0.23914134  0.60895086  1
  Te  Te119  1  0.73730737  0.25942319  0.93880127  1
  Te  Te120  1  0.75803906  0.59592924  0.22520326  1
  Te  Te121  1  0.70910725  0.59616105  0.57489327  1
  Te  Te122  1  0.73228999  0.58612470  0.92155681  1
  Te  Te123  1  0.73830981  0.93167702  0.23582765  1
  Te  Te124  1  0.73717248  0.92923380  0.57968176  1
  Te  Te125  1  0.74473311  0.87489465  0.94905501  1
  Te  Te126  1  0.26645724  0.25832929  0.09361394  1
  Te  Te127  1  0.22343304  0.27288155  0.40293310  1
  Te  Te128  1  0.24587910  0.24357961  0.75938842  1
  Te  Te129  1  0.23371685  0.60812407  0.07922062  1
  Te  Te130  1  0.25434702  0.59264393  0.38170308  1
  Te  Te131  1  0.26298630  0.58041459  0.77383061  1
  Te  Te132  1  0.26181610  0.90091845  0.11263574  1
  Te  Te133  1  0.21527105  0.88365083  0.37254253  1
  Te  Te134  1  0.24718414  0.92198194  0.76326186  1
  Te  Te135  1  0.59240165  0.25439648  0.07651652  1
  Te  Te136  1  0.57420954  0.27126170  0.45428485  1
  Te  Te137  1  0.62722638  0.23316970  0.72906626  1
  Te  Te138  1  0.56517942  0.61651600  0.08478497  1
  Te  Te139  1  0.59290393  0.57029253  0.39727690  1
  Te  Te140  1  0.55751573  0.59046690  0.75912345  1
  Te  Te141  1  0.54558101  0.88997323  0.05576231  1
  Te  Te142  1  0.60031949  0.92792513  0.38939481  1
  Te  Te143  1  0.62266254  0.91154046  0.77162670  1
  Te  Te144  1  0.91614288  0.25649728  0.07514724  1
  Te  Te145  1  0.91073319  0.22727441  0.40636949  1
  Te  Te146  1  0.91553057  0.23213955  0.76939891  1
  Te  Te147  1  0.90214220  0.60464379  0.10349037  1
  Te  Te148  1  0.90481850  0.59094224  0.41319817  1
  Te  Te149  1  0.89121916  0.58474811  0.75178071  1
  Te  Te150  1  0.97594181  0.92536063  0.00013037  1
  Te  Te151  1  0.91392366  0.90899066  0.42591051  1
  Te  Te152  1  0.89630633  0.92601675  0.76743003  1
  Te  Te153  1  0.23547363  0.08249206  0.25213628  1
  Te  Te154  1  0.24777900  0.09066627  0.57952975  1
  Te  Te155  1  0.25523027  0.06761317  0.92960516  1
  Te  Te156  1  0.26252301  0.42433740  0.25101488  1
  Te  Te157  1  0.26926999  0.41338429  0.59085048  1
  Te  Te158  1  0.24798536  0.41641998  0.90032806  1
  Te  Te159  1  0.25392588  0.74478864  0.19954437  1
  Te  Te160  1  0.23194219  0.74620479  0.57256288  1
  Te  Te161  1  0.24396969  0.74075135  0.94894389  1
  Te  Te162  1  0.57680626  0.11157746  0.24990019  1
  Te  Te163  1  0.56105479  0.07761363  0.59095152  1
  Te  Te164  1  0.62939647  0.07773235  0.90837387  1
  Te  Te165  1  0.59794476  0.40609453  0.24405837  1
  Te  Te166  1  0.59573388  0.38830363  0.55831446  1
  Te  Te167  1  0.58182771  0.40651730  0.91509160  1
  Te  Te168  1  0.59033812  0.73430914  0.24467093  1
  Te  Te169  1  0.56480796  0.76201901  0.57683798  1
  Te  Te170  1  0.63562905  0.76037175  0.91814745  1
  Te  Te171  1  0.90224189  0.06564628  0.25065639  1
  Te  Te172  1  0.89813709  0.08590865  0.60248571  1
  Te  Te173  1  0.90208590  0.04669692  0.89928300  1
  Te  Te174  1  0.93649198  0.42471374  0.25233985  1
  Te  Te175  1  0.92714028  0.43010215  0.57666995  1
  Te  Te176  1  0.92161315  0.41908982  0.89650758  1
  Te  Te177  1  0.90170057  0.78424140  0.21477171  1
  Te  Te178  1  0.89726288  0.77617190  0.59061305  1
  Te  Te179  1  0.92691449  0.73937488  0.94672565  1
