# generated using pymatgen
data_In2Te3
_symmetry_space_group_name_H-M   'P 1'
_cell_length_a   18.94434592
_cell_length_b   18.89724236
_cell_length_c   18.92852339
_cell_angle_alpha   90.21568245
_cell_angle_beta   89.92056560
_cell_angle_gamma   90.08726896
_symmetry_Int_Tables_number   1
_chemical_formula_structural   In2Te3
_chemical_formula_sum   'In72 Te108'
_cell_volume   6776.27136175
_cell_formula_units_Z   36
loop_
 _symmetry_equiv_pos_site_id
 _symmetry_equiv_pos_as_xyz
  1  'x, y, z'
loop_
 _atom_site_type_symbol
 _atom_site_label
 _atom_site_symmetry_multiplicity
 _atom_site_fract_x
 _atom_site_fract_y
 _atom_site_fract_z
 _atom_site_occupancy
  In  In0  1  0.85563884  0.18696831  0.64267422  1
  In  In1  1  -0.01696311  0.51587440  0.15524910  1
  In  In2  1  0.81804334  0.82474425  0.32992335  1
  In  In3  1  0.01247393  0.15185169  0.85937689  1
  In  In4  1  0.11174061  0.36732134  0.82009758  1
  In  In5  1  0.00827312  0.00952563  0.31472420  1
  In  In6  1  0.66535444  0.48462701  0.50774780  1
  In  In7  1  0.49235435  0.85911908  0.01390988  1
  In  In8  1  0.31549035  0.15880639  0.15674112  1
  In  In9  1  0.68154782  0.31418540  0.70176151  1
  In  In10  1  0.15059509  0.49577421  0.67348553  1
  In  In11  1  0.15820999  0.48210000  0.34517920  1
  In  In12  1  0.66942099  0.14700713  0.48590709  1
  In  In13  1  0.18445115  0.68815756  0.15847445  1
  In  In14  1  0.49385186  0.51022882  0.33369599  1
  In  In15  1  0.68668814  0.49108757  0.84482699  1
  In  In16  1  0.83364473  0.17210537  -0.00714950  1
  In  In17  1  0.03335871  0.16465398  0.13486220  1
  In  In18  1  0.81217826  0.55663380  0.03323935  1
  In  In19  1  0.30454216  0.50183472  0.51580576  1
  In  In20  1  0.33437839  0.33708560  0.35700333  1
  In  In21  1  0.64881205  0.07591454  0.79681749  1
  In  In22  1  0.67045219  0.67619955  0.64291160  1
  In  In23  1  0.65773053  0.31982007  0.02589035  1
  In  In24  1  0.17852882  0.82263934  -0.01540988  1
  In  In25  1  0.66076011  0.31041149  0.35143559  1
  In  In26  1  0.51400572  -0.02513159  0.23620742  1
  In  In27  1  0.49218479  0.53920006  0.66089581  1
  In  In28  1  0.82751903  0.32226689  0.16906543  1
  In  In29  1  0.01201833  0.38223620  -0.02154340  1
  In  In30  1  0.84165656  0.34681160  0.85251383  1
  In  In31  1  0.13656401  0.20574942  0.67708794  1
  In  In32  1  0.33326901  0.53860231  0.83451680  1
  In  In33  1  0.50386718  0.17201548  0.03252202  1
  In  In34  1  0.53626761  0.51524941  0.04209478  1
  In  In35  1  0.50208273  0.69090031  0.84480986  1
  In  In36  1  -0.01418623  0.00759469  0.66003213  1
  In  In37  1  0.17210651  0.85615853  0.32861768  1
  In  In38  1  0.31363178  0.13923151  0.84019297  1
  In  In39  1  0.33352254  0.67545532  0.67243288  1
  In  In40  1  0.50683464  0.30720374  0.82305623  1
  In  In41  1  0.17255611  0.14638268  0.32320143  1
  In  In42  1  -0.01032645  0.67355793  0.31497797  1
  In  In43  1  0.32055013  -0.01404418  0.00886362  1
  In  In44  1  0.53663015  0.31219758  0.50236791  1
  In  In45  1  0.82453245  0.68047811  0.46864739  1
  In  In46  1  0.14632843  0.34267908  0.19610712  1
  In  In47  1  0.83055476  -0.02051205  0.16863151  1
  In  In48  1  0.33746058  0.34194435  0.66135354  1
  In  In49  1  0.49212481  -0.01066747  0.45029266  1
  In  In50  1  0.34217491  0.52527903  0.14888135  1
  In  In51  1  0.82712207  0.86106823  0.65315474  1
  In  In52  1  0.35136786  0.70016269  0.01804918  1
  In  In53  1  -0.00197319  0.28824122  0.41984578  1
  In  In54  1  0.63558182  0.57541414  0.19131066  1
  In  In55  1  0.31150138  0.34105930  -0.00981595  1
  In  In56  1  0.34700945  0.82793110  0.46439474  1
  In  In57  1  0.49593303  0.33473261  0.19534187  1
  In  In58  1  0.67132815  -0.00435852  0.01982528  1
  In  In59  1  0.32238645  -0.00119897  0.63727332  1
  In  In60  1  0.33548644  0.15360524  0.49058738  1
  In  In61  1  0.00819610  0.67393472  0.68318943  1
  In  In62  1  0.18230078  0.64827450  0.48729317  1
  In  In63  1  0.53670189  0.05307756  0.65599935  1
  In  In64  1  0.14324402  0.82286773  0.67768693  1
  In  In65  1  0.81430810  0.49811497  0.32111736  1
  In  In66  1  0.85061464  -0.00727031  0.85024497  1
  In  In67  1  0.18609753  -0.01775604  0.84972696  1
  In  In68  1  -0.00542709  0.84795906  0.48930478  1
  In  In69  1  0.81338888  0.81244130  0.01792720  1
  In  In70  1  0.52776315  0.70260556  0.47383385  1
  In  In71  1  0.82333090  0.68237498  0.81839000  1
  Te  Te72  1  0.11773206  0.04648745  0.10717194  1
  Te  Te73  1  0.10071841  0.06084387  0.41802572  1
  Te  Te74  1  0.09403250  0.07738323  0.75353422  1
  Te  Te75  1  0.10003934  0.44189275  0.09238141  1
  Te  Te76  1  0.06236688  0.42035956  0.43660660  1
  Te  Te77  1  0.02668344  0.41429130  0.70393469  1
  Te  Te78  1  0.08550719  0.73365540  0.06155702  1
  Te  Te79  1  0.08609497  0.74605935  0.41616739  1
  Te  Te80  1  0.08213297  0.74754446  0.78806967  1
  Te  Te81  1  0.42010793  0.06424051  0.09836013  1
  Te  Te82  1  0.37322501  0.05257480  0.38725851  1
  Te  Te83  1  0.40561028  0.08022498  0.73742348  1
  Te  Te84  1  0.42371569  0.40138828  0.07775832  1
  Te  Te85  1  0.43567259  0.41367889  0.44054943  1
  Te  Te86  1  0.41655185  0.43560826  0.75300927  1
  Te  Te87  1  0.41001156  0.79075198  0.12223884  1
  Te  Te88  1  0.44719906  0.77079819  0.36896173  1
  Te  Te89  1  0.43826850  0.75961201  0.73092855  1
  Te  Te90  1  0.75419810  0.09704771  0.09608821  1
  Te  Te91  1  0.76703525  0.10765111  0.38156387  1
  Te  Te92  1  0.79041595  0.08715324  0.74889227  1
  Te  Te93  1  0.74979880  0.42361459  0.08723145  1
  Te  Te94  1  0.76238030  0.40045639  0.42603494  1
  Te  Te95  1  0.77545758  0.42661817  0.73754613  1
  Te  Te96  1  0.73630104  0.74542838  0.12854256  1
  Te  Te97  1  0.71899552  0.78211320  0.44017728  1
  Te  Te98  1  0.73434042  0.77680213  0.73841262  1
  Te  Te99  1  0.05995623  0.24478189  0.27193435  1
  Te  Te100  1  0.05529941  0.23223606  0.55437228  1
  Te  Te101  1  0.09254712  0.25924015  0.92677767  1
  Te  Te102  1  0.09523811  0.58309935  0.24833878  1
  Te  Te103  1  0.07716857  0.58566296  0.57418759  1
  Te  Te104  1  0.05633807  0.49156687  0.88458853  1
  Te  Te105  1  0.05634330  0.88716929  0.24070051  1
  Te  Te106  1  0.08810403  0.92623253  0.58091766  1
  Te  Te107  1  0.07950292  0.90202759  0.90742728  1
  Te  Te108  1  0.39712651  0.23834485  0.25944858  1
  Te  Te109  1  0.42148655  0.24540278  0.57920233  1
  Te  Te110  1  0.40577593  0.23161481  0.93015507  1
  Te  Te111  1  0.44324863  0.59869429  0.22635001  1
  Te  Te112  1  0.41266173  0.60645926  0.55117907  1
  Te  Te113  1  0.43684054  0.58174388  0.93608391  1
  Te  Te114  1  0.39913925  0.88013711  0.25028261  1
  Te  Te115  1  0.42700555  0.91404086  0.56427440  1
  Te  Te116  1  0.39854849  0.90976829  0.90832743  1
  Te  Te117  1  0.76576381  0.23576077  0.27356741  1
  Te  Te118  1  0.73507457  0.25605339  0.57427595  1
  Te  Te119  1  0.73400598  0.25292736  0.91155420  1
  Te  Te120  1  0.77662172  0.61735154  0.23545927  1
  Te  Te121  1  0.76417999  0.58094871  0.57164607  1
  Te  Te122  1  0.72669116  0.61378700  0.92322858  1
  Te  Te123  1  0.73338212  0.93498750  0.27249362  1
  Te  Te124  1  0.75417241  0.90443746  0.53256377  1
  Te  Te125  1  0.74404651  0.90987728  0.91775658  1
  Te  Te126  1  0.22792638  0.26401102  0.09133524  1
  Te  Te127  1  0.23492300  0.24841593  0.42310191  1
  Te  Te128  1  0.25682883  0.25603639  0.75968878  1
  Te  Te129  1  0.25018698  0.59144066  0.05120212  1
  Te  Te130  1  0.27387005  0.57756769  0.38904380  1
  Te  Te131  1  0.22527392  0.60492997  0.75209150  1
  Te  Te132  1  0.22641499  0.91166506  0.09636959  1
  Te  Te133  1  0.25406802  0.93738681  0.42407869  1
  Te  Te134  1  0.25647447  0.90607947  0.73797721  1
  Te  Te135  1  0.59766537  0.22789936  0.14046268  1
  Te  Te136  1  0.55539506  0.20374567  0.39320392  1
  Te  Te137  1  0.58044950  0.20594371  0.73072692  1
  Te  Te138  1  0.59321093  0.64900244  0.06968571  1
  Te  Te139  1  0.60215474  0.58439754  0.41302979  1
  Te  Te140  1  0.59867179  0.58690465  0.75688000  1
  Te  Te141  1  0.59382806  0.91125436  0.11613857  1
  Te  Te142  1  0.59059341  0.92938732  0.35911947  1
  Te  Te143  1  0.58735238  0.95165656  0.74835395  1
  Te  Te144  1  0.92758309  0.26940697  0.06569894  1
  Te  Te145  1  0.89236255  0.18434473  0.43218789  1
  Te  Te146  1  0.92039955  0.23959736  0.77850544  1
  Te  Te147  1  0.93803726  0.62881614  0.07003919  1
  Te  Te148  1  0.91738944  0.57638016  0.40651606  1
  Te  Te149  1  0.90450212  0.58788874  0.73976617  1
  Te  Te150  1  0.91403576  0.90673957  0.07252086  1
  Te  Te151  1  0.90729307  0.92966111  0.40048763  1
  Te  Te152  1  0.93128736  0.90332256  0.75642703  1
  Te  Te153  1  0.22606625  0.05116842  0.21683936  1
  Te  Te154  1  0.23269892  0.11220443  0.59460729  1
  Te  Te155  1  0.22285818  0.09241682  0.94999295  1
  Te  Te156  1  0.27301874  0.42157119  0.24454357  1
  Te  Te157  1  0.22093350  0.39433792  0.57955713  1
  Te  Te158  1  0.24389844  0.42745895  0.88927327  1
  Te  Te159  1  0.26021150  0.75435725  0.26572138  1
  Te  Te160  1  0.24755483  0.75878695  0.57117096  1
  Te  Te161  1  0.29577548  0.77447709  0.90366974  1
  Te  Te162  1  0.56640910  0.11236062  0.24873884  1
  Te  Te163  1  0.65733309  0.02204025  0.56967420  1
  Te  Te164  1  0.57838463  0.08218880  0.93563481  1
  Te  Te165  1  0.60331968  0.42456302  0.25732855  1
  Te  Te166  1  0.57919760  0.41580630  0.61366392  1
  Te  Te167  1  0.58266226  0.41180884  0.92374241  1
  Te  Te168  1  0.64710740  0.71513410  0.25161875  1
  Te  Te169  1  0.56997633  0.77250964  0.59534574  1
  Te  Te170  1  0.58220588  0.78779816  0.91966015  1
  Te  Te171  1  0.92842863  0.09259151  0.21473138  1
  Te  Te172  1  0.90475659  0.07312172  0.55480853  1
  Te  Te173  1  0.93557291  0.06401662  0.95563759  1
  Te  Te174  1  0.91991321  0.41460782  0.24918170  1
  Te  Te175  1  0.93796408  0.31295817  0.61521125  1
  Te  Te176  1  0.88953584  0.46652115  0.93234229  1
  Te  Te177  1  0.92951359  0.78346786  0.23612864  1
  Te  Te178  1  0.91432702  0.75188815  0.57754788  1
  Te  Te179  1  0.90625317  0.73852502  0.92711324  1
