# generated using pymatgen
data_In2Te3
_symmetry_space_group_name_H-M   'P 1'
_cell_length_a   18.93903231
_cell_length_b   18.95772382
_cell_length_c   18.99077602
_cell_angle_alpha   89.96834007
_cell_angle_beta   89.91889975
_cell_angle_gamma   90.01362034
_symmetry_Int_Tables_number   1
_chemical_formula_structural   In2Te3
_chemical_formula_sum   'In72 Te108'
_cell_volume   6818.45808388
_cell_formula_units_Z   36
loop_
 _symmetry_equiv_pos_site_id
 _symmetry_equiv_pos_as_xyz
  1  'x, y, z'
loop_
 _atom_site_type_symbol
 _atom_site_label
 _atom_site_symmetry_multiplicity
 _atom_site_fract_x
 _atom_site_fract_y
 _atom_site_fract_z
 _atom_site_occupancy
  In  In0  1  0.18593293  0.19093230  0.65341293  1
  In  In1  1  -0.01694714  0.48902221  0.83126952  1
  In  In2  1  0.50521744  0.82093454  -0.00576116  1
  In  In3  1  0.51015425  0.64090817  0.51141080  1
  In  In4  1  0.68568212  0.66943312  0.69167657  1
  In  In5  1  0.19219622  0.32916061  0.83756994  1
  In  In6  1  0.65665641  0.48595187  0.16586258  1
  In  In7  1  0.33229123  0.66731215  0.66049076  1
  In  In8  1  -0.01241209  0.16452478  0.81614990  1
  In  In9  1  0.83854304  0.68011902  0.51743400  1
  In  In10  1  0.30711673  0.18635757  0.48668538  1
  In  In11  1  0.34068270  0.83317500  0.84666006  1
  In  In12  1  0.16104346  0.83866350  0.70834269  1
  In  In13  1  0.13422204  0.65215773  0.84983571  1
  In  In14  1  0.67599885  0.00806290  0.00746065  1
  In  In15  1  0.66822651  0.32630716  -0.01795559  1
  In  In16  1  0.69504590  0.85064489  0.83036652  1
  In  In17  1  0.31725800  0.84709939  0.49197480  1
  In  In18  1  0.50644581  0.00696992  0.15227572  1
  In  In19  1  0.14717246  0.83304692  0.30582308  1
  In  In20  1  0.69112785  0.17903404  0.18355171  1
  In  In21  1  0.51466623  -0.01200008  0.49492160  1
  In  In22  1  0.50303107  0.66063748  0.16594941  1
  In  In23  1  0.82445994  0.48335324  0.66856849  1
  In  In24  1  0.49626722  0.16364758  -0.01780338  1
  In  In25  1  0.17053138  0.00188591  0.85276754  1
  In  In26  1  0.16524106  0.69359390  0.15572097  1
  In  In27  1  0.50144294  0.47980337  0.32876242  1
  In  In28  1  0.34922940  0.47735274  0.83470784  1
  In  In29  1  0.30080830  0.65397329  -0.00753280  1
  In  In30  1  0.83201773  0.49631541  0.00232539  1
  In  In31  1  0.48437319  0.33255899  0.16122676  1
  In  In32  1  -0.00338050  0.83326152  0.15122272  1
  In  In33  1  0.36645458  0.66262580  0.34020490  1
  In  In34  1  0.17125437  0.49299347  0.32279023  1
  In  In35  1  -0.04720267  0.80715837  0.84726289  1
  In  In36  1  0.12472990  0.65639558  0.52163658  1
  In  In37  1  0.33500071  0.31512691  0.00877297  1
  In  In38  1  0.69463302  0.64402103  0.02062977  1
  In  In39  1  -0.00672358  0.66003503  0.35812344  1
  In  In40  1  0.32470600  -0.01000919  0.01221862  1
  In  In41  1  -0.04893099  0.16829868  0.39496706  1
  In  In42  1  0.49769518  0.17003152  0.32139224  1
  In  In43  1  0.15960019  0.52473380  0.65127701  1
  In  In44  1  0.82580910  0.18134401  -0.01021835  1
  In  In45  1  0.67309386  0.50522959  0.85740077  1
  In  In46  1  0.51332970  0.67020840  0.82640428  1
  In  In47  1  0.13525594  0.32210341  0.45644421  1
  In  In48  1  0.83805928  0.01099856  0.50170083  1
  In  In49  1  0.55016889  0.19959778  0.67828331  1
  In  In50  1  0.15692834  -0.00039346  0.17887332  1
  In  In51  1  0.79781992  0.17658686  0.66556744  1
  In  In52  1  -0.01439457  0.00057243  0.68172985  1
  In  In53  1  0.32453521  0.49950908  0.48315755  1
  In  In54  1  0.51790238  0.34665132  0.51981404  1
  In  In55  1  0.84892961  0.64431303  0.16042769  1
  In  In56  1  0.69479999  0.17136554  0.48461487  1
  In  In57  1  0.86782318  0.32292572  0.18902767  1
  In  In58  1  0.33738976  0.34436173  0.66330921  1
  In  In59  1  0.84200900  0.84789182  0.35943569  1
  In  In60  1  -0.00550530  0.33846572  0.66006607  1
  In  In61  1  0.16556151  0.15772204  0.00554314  1
  In  In62  1  0.80555485  0.47726037  0.32912267  1
  In  In63  1  0.37085651  0.04371752  0.65526296  1
  In  In64  1  0.00193175  0.00215348  -0.00241645  1
  In  In65  1  0.33387554  0.86767254  0.15853425  1
  In  In66  1  0.69126512  0.80545782  0.19086530  1
  In  In67  1  0.01763723  0.35878250  0.00918177  1
  In  In68  1  0.67543536  -0.02072399  0.66290611  1
  In  In69  1  0.33101471  0.00181716  0.31961318  1
  In  In70  1  0.66655898  0.82819310  0.50668024  1
  In  In71  1  0.10142568  0.01298422  0.48520746  1
  Te  Te72  1  0.06658694  0.09428100  0.09970982  1
  Te  Te73  1  0.09250607  0.11577347  0.38105821  1
  Te  Te74  1  0.10461272  0.09229802  0.74673578  1
  Te  Te75  1  0.10747590  0.37939016  0.12466897  1
  Te  Te76  1  0.07080122  0.44659593  0.41899290  1
  Te  Te77  1  0.10164546  0.41065572  0.74583522  1
  Te  Te78  1  0.06267843  0.73781248  0.06190491  1
  Te  Te79  1  0.08040444  0.76745255  0.42379724  1
  Te  Te80  1  0.05806524  0.73770932  0.75286338  1
  Te  Te81  1  0.40458379  0.09529252  0.08670513  1
  Te  Te82  1  0.41215766  0.08153242  0.42273872  1
  Te  Te83  1  0.46422442  0.10246153  0.74960006  1
  Te  Te84  1  0.40210840  0.42341580  0.08274043  1
  Te  Te85  1  0.40980437  0.39693737  0.41567597  1
  Te  Te86  1  0.44058721  0.41409741  0.73973501  1
  Te  Te87  1  0.40070854  0.75034247  0.07890219  1
  Te  Te88  1  0.42856041  0.75511122  0.44285911  1
  Te  Te89  1  0.42155513  0.75779056  0.74267246  1
  Te  Te90  1  0.77293745  0.08736759  0.09649347  1
  Te  Te91  1  0.74786885  0.06506464  0.39872680  1
  Te  Te92  1  0.74439229  0.07231342  0.75233535  1
  Te  Te93  1  0.75546491  0.39405617  0.09415532  1
  Te  Te94  1  0.74772773  0.38525974  0.43313203  1
  Te  Te95  1  0.73024841  0.40644218  0.75977420  1
  Te  Te96  1  0.78238541  0.75298520  0.07707420  1
  Te  Te97  1  0.74821385  0.74087448  0.41252998  1
  Te  Te98  1  0.78338962  0.76764537  0.74278665  1
  Te  Te99  1  0.03134108  0.23604231  0.28159844  1
  Te  Te100  1  0.07215313  0.24208722  0.56906220  1
  Te  Te101  1  0.08115800  0.24749246  0.90720379  1
  Te  Te102  1  0.09136801  0.60370403  0.25676990  1
  Te  Te103  1  0.02762979  0.57595360  0.60209748  1
  Te  Te104  1  0.07799518  0.54334189  0.92995771  1
  Te  Te105  1  0.04533126  0.93316940  0.25702202  1
  Te  Te106  1  0.08246367  0.91678535  0.60107610  1
  Te  Te107  1  0.06423890  0.90681857  0.89714016  1
  Te  Te108  1  0.39960388  0.24527982  0.24452794  1
  Te  Te109  1  0.41583688  0.24230974  0.57827543  1
  Te  Te110  1  0.43753399  0.27692561  0.91025361  1
  Te  Te111  1  0.41096634  0.56089505  0.23815979  1
  Te  Te112  1  0.41209125  0.55831501  0.59264922  1
  Te  Te113  1  0.41365743  0.59253709  0.91163293  1
  Te  Te114  1  0.43882779  0.91553910  0.25697272  1
  Te  Te115  1  0.41723667  0.91681370  0.58688242  1
  Te  Te116  1  0.43197730  0.92998120  0.91966782  1
  Te  Te117  1  0.78035946  0.24572863  0.28535978  1
  Te  Te118  1  0.74249061  0.28013527  0.57356482  1
  Te  Te119  1  0.72278001  0.22306833  0.88937016  1
  Te  Te120  1  0.73579107  0.58682724  0.24439307  1
  Te  Te121  1  0.74200816  0.58094319  0.58146167  1
  Te  Te122  1  0.79018947  0.60860296  0.90200726  1
  Te  Te123  1  0.77334964  0.91251047  0.24686318  1
  Te  Te124  1  0.77639309  0.89811557  0.58334014  1
  Te  Te125  1  0.76822307  0.91346680  0.94122105  1
  Te  Te126  1  0.22032486  0.26468571  0.09534263  1
  Te  Te127  1  0.24866815  0.26790718  0.38034351  1
  Te  Te128  1  0.28384980  0.23773074  0.75948338  1
  Te  Te129  1  0.24049049  0.58042409  0.10231573  1
  Te  Te130  1  0.24757262  0.61718739  0.42806424  1
  Te  Te131  1  0.24977860  0.58608821  0.75993949  1
  Te  Te132  1  0.21458386  0.90620579  0.07307567  1
  Te  Te133  1  0.22364763  0.93152582  0.40525101  1
  Te  Te134  1  0.27160245  0.93793684  0.75261325  1
  Te  Te135  1  0.59022303  0.23605605  0.08659631  1
  Te  Te136  1  0.58039437  0.25055268  0.41926036  1
  Te  Te137  1  0.62991145  0.28502395  0.76604176  1
  Te  Te138  1  0.57250962  0.56715106  0.06912342  1
  Te  Te139  1  0.59057854  0.57018573  0.40716983  1
  Te  Te140  1  0.58628996  0.56633746  0.74589069  1
  Te  Te141  1  0.59298732  0.89578483  0.09224078  1
  Te  Te142  1  0.61144849  0.92263700  0.40812308  1
  Te  Te143  1  0.58561917  0.89850595  0.74664582  1
  Te  Te144  1  0.93298146  0.24962776  0.07407720  1
  Te  Te145  1  0.86867717  0.29672724  0.41417785  1
  Te  Te146  1  0.89814647  0.26426697  0.75051996  1
  Te  Te147  1  0.93758894  0.54365771  0.09594887  1
  Te  Te148  1  0.88856248  0.57122991  0.41849781  1
  Te  Te149  1  0.90504260  0.57932993  0.74710169  1
  Te  Te150  1  0.90623602  0.92128625  0.07488038  1
  Te  Te151  1  0.94205020  0.92799470  0.43469523  1
  Te  Te152  1  0.89698286  0.90992670  0.75546372  1
  Te  Te153  1  0.25864692  0.09145661  0.23032469  1
  Te  Te154  1  0.24170695  0.07535438  0.57030346  1
  Te  Te155  1  0.27113518  0.09684177  0.91512366  1
  Te  Te156  1  0.22464113  0.39910362  0.22457233  1
  Te  Te157  1  0.23348933  0.41367017  0.57589891  1
  Te  Te158  1  0.24823125  0.42690564  0.93506708  1
  Te  Te159  1  0.27705762  0.76514825  0.26235978  1
  Te  Te160  1  0.23524215  0.76327327  0.59381416  1
  Te  Te161  1  0.22791578  0.76001203  0.91285977  1
  Te  Te162  1  0.59632365  0.07940378  0.25054212  1
  Te  Te163  1  0.59386165  0.08844494  0.57726249  1
  Te  Te164  1  0.58848619  0.07389026  0.91031187  1
  Te  Te165  1  0.59429864  0.38418309  0.25776690  1
  Te  Te166  1  0.59771046  0.46895225  0.52823053  1
  Te  Te167  1  0.57413075  0.42665541  0.93271014  1
  Te  Te168  1  0.57898851  0.74004829  0.26087075  1
  Te  Te169  1  0.58531191  0.73943168  0.59880803  1
  Te  Te170  1  0.60979179  0.73537994  0.92430035  1
  Te  Te171  1  0.91986896  0.14124415  0.25271575  1
  Te  Te172  1  0.91424670  0.10187629  0.59566571  1
  Te  Te173  1  0.90532094  0.07931010  0.90738701  1
  Te  Te174  1  0.92111119  0.45266936  0.23521889  1
  Te  Te175  1  0.90882502  0.41351798  0.56845311  1
  Te  Te176  1  0.90034211  0.39228889  0.91531742  1
  Te  Te177  1  0.91697373  0.74566360  0.25789732  1
  Te  Te178  1  0.97001366  0.71990421  0.57048798  1
  Te  Te179  1  0.90159161  0.70933424  0.94225680  1
