# generated using pymatgen
data_In2Te3
_symmetry_space_group_name_H-M   'P 1'
_cell_length_a   18.86128493
_cell_length_b   18.84399432
_cell_length_c   18.85101058
_cell_angle_alpha   90.00148617
_cell_angle_beta   89.93929058
_cell_angle_gamma   90.02104917
_symmetry_Int_Tables_number   1
_chemical_formula_structural   In2Te3
_chemical_formula_sum   'In72 Te108'
_cell_volume   6700.05865468
_cell_formula_units_Z   36
loop_
 _symmetry_equiv_pos_site_id
 _symmetry_equiv_pos_as_xyz
  1  'x, y, z'
loop_
 _atom_site_type_symbol
 _atom_site_label
 _atom_site_symmetry_multiplicity
 _atom_site_fract_x
 _atom_site_fract_y
 _atom_site_fract_z
 _atom_site_occupancy
  In  In0  1  0.00536146  0.32382930  -0.00080371  1
  In  In1  1  0.65398347  0.19034411  0.51505350  1
  In  In2  1  0.66882622  0.46818553  0.79004062  1
  In  In3  1  0.02031787  0.00363698  -0.01108450  1
  In  In4  1  0.51293400  0.65038345  0.82878244  1
  In  In5  1  0.16445018  0.67092413  0.82464799  1
  In  In6  1  0.33379719  0.16017333  0.49959843  1
  In  In7  1  0.32038937  0.17918936  0.83121852  1
  In  In8  1  -0.01369330  0.68642367  -0.00324719  1
  In  In9  1  0.17182399  0.82637261  0.34140343  1
  In  In10  1  0.83673023  0.17785674  0.65597300  1
  In  In11  1  0.31693696  0.85565269  0.83644139  1
  In  In12  1  0.17010543  0.84399544  0.00958736  1
  In  In13  1  0.83460451  0.82633601  -0.00870391  1
  In  In14  1  0.34314166  0.00960237  0.34256646  1
  In  In15  1  0.85072127  0.65809994  0.81286751  1
  In  In16  1  0.33143260  0.66150052  0.65299893  1
  In  In17  1  0.16831015  0.32685917  0.18419412  1
  In  In18  1  0.51998579  0.84926347  0.34942267  1
  In  In19  1  0.15385801  0.67523877  0.50476009  1
  In  In20  1  0.32434000  0.33995543  -0.00880064  1
  In  In21  1  0.67153764  0.31304923  0.35198791  1
  In  In22  1  0.66488507  0.47128149  0.14319998  1
  In  In23  1  0.49452001  0.31064328  0.17330607  1
  In  In24  1  0.01461750  0.48944532  0.19757179  1
  In  In25  1  0.34654997  0.32889854  0.32895191  1
  In  In26  1  0.49847603  0.66127589  0.50925546  1
  In  In27  1  0.82465216  0.86297979  0.63792520  1
  In  In28  1  0.82843614  0.66107065  0.49392350  1
  In  In29  1  0.63247614  0.49015819  0.53652704  1
  In  In30  1  0.82972273  0.01746967  0.80467922  1
  In  In31  1  0.16218549  0.16694657  -0.00072533  1
  In  In32  1  0.15808044  0.46222902  0.65433592  1
  In  In33  1  0.80771579  0.49897401  0.00902245  1
  In  In34  1  0.13566636  0.87921544  0.64754466  1
  In  In35  1  0.69588727  0.35066232  -0.01822959  1
  In  In36  1  0.15132496  0.48379062  0.35960965  1
  In  In37  1  0.15027472  0.17611850  0.34796425  1
  In  In38  1  0.35267844  0.85483700  0.50435775  1
  In  In39  1  0.01303729  0.66567023  0.33002949  1
  In  In40  1  0.48621313  0.50251555  0.00773560  1
  In  In41  1  -0.00411086  0.65849830  0.66268828  1
  In  In42  1  0.16569593  -0.00636514  0.17649321  1
  In  In43  1  0.00251951  0.50051849  0.81408383  1
  In  In44  1  0.85324789  0.16290160  0.35418376  1
  In  In45  1  0.83117231  0.17008089  -0.00353804  1
  In  In46  1  0.84925113  0.46891654  0.35141450  1
  In  In47  1  0.67174090  -0.00353169  0.35588643  1
  In  In48  1  0.44351619  0.65195215  0.16126080  1
  In  In49  1  0.65357922  0.16334825  0.16497790  1
  In  In50  1  0.85825929  0.85741044  0.37876192  1
  In  In51  1  0.62786782  -0.00192202  -0.01198630  1
  In  In52  1  -0.00657098  0.17236137  0.50700515  1
  In  In53  1  0.49878444  0.00275472  0.17695921  1
  In  In54  1  0.67616511  0.65573542  0.35183625  1
  In  In55  1  0.34776678  0.45669929  0.80460490  1
  In  In56  1  0.65230431  0.85523663  0.17861863  1
  In  In57  1  0.15985930  0.02238745  0.81361190  1
  In  In58  1  0.48794642  0.15138497  -0.00837421  1
  In  In59  1  0.49671138  0.83836654  0.65674197  1
  In  In60  1  0.83028642  0.65619036  0.17136135  1
  In  In61  1  0.64574450  0.68674303  -0.02885147  1
  In  In62  1  0.48853171  -0.00619592  0.81492901  1
  In  In63  1  0.66954932  0.81350199  0.82491203  1
  In  In64  1  0.01532474  0.83870535  0.16310256  1
  In  In65  1  0.20778325  0.52292263  0.01574452  1
  In  In66  1  0.16718473  0.17599843  0.65666213  1
  In  In67  1  0.84267444  0.31989207  0.81322655  1
  In  In68  1  0.32495870  0.65607703  0.31296029  1
  In  In69  1  0.84874576  0.03501781  0.18803117  1
  In  In70  1  0.50169992  0.19432935  0.66459975  1
  In  In71  1  0.35319227  0.47153221  0.49454842  1
  Te  Te72  1  0.07498163  0.09119941  0.09931315  1
  Te  Te73  1  0.10205846  0.07978848  0.45285581  1
  Te  Te74  1  0.06351454  0.10689258  0.74037160  1
  Te  Te75  1  0.10159956  0.42537820  0.08026187  1
  Te  Te76  1  0.07689813  0.39041127  0.44653514  1
  Te  Te77  1  0.06419074  0.38812327  0.74248655  1
  Te  Te78  1  0.09627308  0.73307736  0.09079170  1
  Te  Te79  1  0.06078716  0.76929280  0.43161813  1
  Te  Te80  1  0.08372309  0.76102043  0.73350792  1
  Te  Te81  1  0.41105864  0.09816633  0.10465571  1
  Te  Te82  1  0.43741747  0.07219184  0.43722996  1
  Te  Te83  1  0.40621854  0.09557634  0.73762451  1
  Te  Te84  1  0.40548110  0.41174911  0.09894601  1
  Te  Te85  1  0.45097394  0.38469331  0.42197524  1
  Te  Te86  1  0.46365357  0.39019093  0.73780219  1
  Te  Te87  1  0.39408530  0.73037020  0.05123263  1
  Te  Te88  1  0.41177947  0.74644006  0.41420286  1
  Te  Te89  1  0.40470620  0.75046925  0.75218206  1
  Te  Te90  1  0.73407743  0.06285563  0.08005132  1
  Te  Te91  1  0.75007526  0.09336243  0.44111368  1
  Te  Te92  1  0.73216327  0.08927506  0.71973130  1
  Te  Te93  1  0.78219692  0.38318635  0.10581187  1
  Te  Te94  1  0.73375641  0.42317276  0.43676231  1
  Te  Te95  1  0.77184106  0.39857580  0.70647930  1
  Te  Te96  1  0.74304825  0.75132494  0.08879537  1
  Te  Te97  1  0.74075074  0.77124438  0.42879799  1
  Te  Te98  1  0.76282819  0.74707460  0.72742431  1
  Te  Te99  1  0.06177708  0.26717912  0.26867378  1
  Te  Te100  1  0.08630263  0.28002411  0.56251761  1
  Te  Te101  1  0.08847376  0.25020620  0.90401950  1
  Te  Te102  1  0.11518330  0.59031416  0.24893960  1
  Te  Te103  1  0.07619325  0.56464901  0.57385421  1
  Te  Te104  1  0.07618460  0.58611275  0.91895385  1
  Te  Te105  1  0.07087261  0.92303075  0.27491522  1
  Te  Te106  1  0.05130702  0.95343682  0.55188833  1
  Te  Te107  1  0.09158159  0.90842161  0.89642989  1
  Te  Te108  1  0.40726396  0.21933713  0.24825497  1
  Te  Te109  1  0.38927589  0.26579347  0.59358554  1
  Te  Te110  1  0.42496208  0.26214725  0.90766238  1
  Te  Te111  1  0.43043281  0.55979416  0.27355454  1
  Te  Te112  1  0.42715368  0.55846194  0.59833681  1
  Te  Te113  1  0.40476225  0.56651573  0.89559343  1
  Te  Te114  1  0.41354979  0.90271287  0.25605574  1
  Te  Te115  1  0.43298394  0.95044507  0.58158202  1
  Te  Te116  1  0.40149738  0.94066002  0.92183791  1
  Te  Te117  1  0.75606360  0.23231494  0.25396101  1
  Te  Te118  1  0.74781803  0.28030297  0.59091211  1
  Te  Te119  1  0.74255951  0.23606398  0.89224703  1
  Te  Te120  1  0.75222109  0.55856321  0.25752492  1
  Te  Te121  1  0.74084417  0.58015649  0.58171468  1
  Te  Te122  1  0.74583263  0.59136284  0.90307073  1
  Te  Te123  1  0.76740839  0.91829656  0.25649225  1
  Te  Te124  1  0.72280957  0.91203058  0.54371142  1
  Te  Te125  1  0.74381070  0.92088387  0.91363282  1
  Te  Te126  1  0.25609891  0.24546905  0.08973979  1
  Te  Te127  1  0.24800522  0.26390606  0.42372014  1
  Te  Te128  1  0.24545985  0.27020181  0.74258698  1
  Te  Te129  1  0.30580550  0.60832827  0.09243868  1
  Te  Te130  1  0.25344566  0.58054089  0.43890162  1
  Te  Te131  1  0.24243602  0.57045174  0.73893591  1
  Te  Te132  1  0.26196834  0.92274311  0.09158751  1
  Te  Te133  1  0.24433229  0.92811223  0.42788587  1
  Te  Te134  1  0.25323223  0.93825292  0.72445570  1
  Te  Te135  1  0.59334603  0.25796844  0.06120818  1
  Te  Te136  1  0.55371308  0.25477526  0.42397536  1
  Te  Te137  1  0.58795327  0.29202580  0.74225418  1
  Te  Te138  1  0.59256627  0.59007598  0.08167139  1
  Te  Te139  1  0.57228146  0.56601697  0.41504481  1
  Te  Te140  1  0.59928999  0.58432716  0.72959504  1
  Te  Te141  1  0.55128543  0.89868100  0.07516629  1
  Te  Te142  1  0.58926013  0.92331475  0.46025124  1
  Te  Te143  1  0.59879033  0.91766863  0.73989590  1
  Te  Te144  1  0.92451770  0.23717870  0.08721755  1
  Te  Te145  1  0.88704150  0.27363719  0.45686052  1
  Te  Te146  1  0.94460119  0.24043636  0.73907706  1
  Te  Te147  1  0.92748006  0.57125060  0.09013136  1
  Te  Te148  1  0.93295893  0.57412281  0.42210354  1
  Te  Te149  1  0.89928980  0.55222560  0.71404804  1
  Te  Te150  1  0.91654312  0.92135256  0.07982335  1
  Te  Te151  1  0.91933072  0.96084557  0.46416864  1
  Te  Te152  1  0.91618953  0.91961499  0.73886237  1
  Te  Te153  1  0.24518482  0.09335507  0.25986985  1
  Te  Te154  1  0.24286182  0.07417216  0.58104625  1
  Te  Te155  1  0.25448053  0.07402009  0.92176829  1
  Te  Te156  1  0.25250376  0.42869831  0.25933385  1
  Te  Te157  1  0.27862767  0.39021428  0.59836061  1
  Te  Te158  1  0.23283259  0.42301192  0.90247541  1
  Te  Te159  1  0.25369586  0.76113346  0.23883510  1
  Te  Te160  1  0.24292779  0.76825402  0.58720338  1
  Te  Te161  1  0.25505541  0.74359778  0.92028003  1
  Te  Te162  1  0.57964432  0.08718078  0.27444103  1
  Te  Te163  1  0.60097755  0.09254461  0.61563287  1
  Te  Te164  1  0.58288380  0.09799215  0.88499453  1
  Te  Te165  1  0.58853380  0.40091011  0.25176081  1
  Te  Te166  1  0.56284093  0.37927000  0.61292472  1
  Te  Te167  1  0.58696963  0.43146601  0.91432279  1
  Te  Te168  1  0.58752501  0.74318875  0.25893305  1
  Te  Te169  1  0.58714310  0.74097644  0.59375985  1
  Te  Te170  1  0.54418925  0.77793072  0.90716669  1
  Te  Te171  1  0.95235610  0.08253025  0.27883796  1
  Te  Te172  1  0.91019698  0.06611475  0.58202542  1
  Te  Te173  1  0.92229651  0.08676369  0.90717164  1
  Te  Te174  1  0.93484900  0.38449657  0.26421132  1
  Te  Te175  1  0.95452518  0.37858976  0.54299910  1
  Te  Te176  1  0.90672348  0.42257967  0.91534756  1
  Te  Te177  1  0.91259156  0.75334418  0.25455412  1
  Te  Te178  1  0.91858605  0.75379886  0.57476140  1
  Te  Te179  1  0.92716857  0.77018424  0.88454667  1
