# generated using pymatgen
data_In2Te3
_symmetry_space_group_name_H-M   'P 1'
_cell_length_a   18.93835860
_cell_length_b   18.96856672
_cell_length_c   18.93894090
_cell_angle_alpha   89.87497009
_cell_angle_beta   90.09876112
_cell_angle_gamma   89.95484819
_symmetry_Int_Tables_number   1
_chemical_formula_structural   In2Te3
_chemical_formula_sum   'In72 Te108'
_cell_volume   6803.47393854
_cell_formula_units_Z   36
loop_
 _symmetry_equiv_pos_site_id
 _symmetry_equiv_pos_as_xyz
  1  'x, y, z'
loop_
 _atom_site_type_symbol
 _atom_site_label
 _atom_site_symmetry_multiplicity
 _atom_site_fract_x
 _atom_site_fract_y
 _atom_site_fract_z
 _atom_site_occupancy
  In  In0  1  -0.01270611  0.67041883  0.65668181  1
  In  In1  1  0.01220008  0.51125207  0.17409569  1
  In  In2  1  0.46505976  0.65586600  0.82951874  1
  In  In3  1  0.17182303  -0.05083956  0.56957571  1
  In  In4  1  0.17865031  0.70435150  0.53184544  1
  In  In5  1  0.83246408  -0.01025329  0.83166815  1
  In  In6  1  0.66006860  0.50465278  0.82447428  1
  In  In7  1  0.48000329  0.82586858  0.35523455  1
  In  In8  1  0.20012384  0.52528218  0.68931251  1
  In  In9  1  0.67199376  0.65550200  0.00209540  1
  In  In10  1  0.33773142  0.48279173  0.16303201  1
  In  In11  1  0.32803072  0.34551753  0.34134522  1
  In  In12  1  0.19438731  0.16997773  0.69991023  1
  In  In13  1  0.34385906  0.17176122  0.51596300  1
  In  In14  1  0.18564313  0.69143153  0.14396787  1
  In  In15  1  0.51021056  0.52061617  0.32658894  1
  In  In16  1  0.67128595  0.51350894  0.50763961  1
  In  In17  1  0.84499355  0.33191633  0.15136931  1
  In  In18  1  0.30781364  0.52085858  0.49743985  1
  In  In19  1  0.45938514  -0.02983061  0.52672785  1
  In  In20  1  0.84117530  0.67231187  0.17993071  1
  In  In21  1  0.47731103  0.49126980  0.67648998  1
  In  In22  1  0.68180998  0.83671663  0.18854017  1
  In  In23  1  0.19327341  0.83034109  -0.02786598  1
  In  In24  1  0.83787259  0.86258660  -0.02168954  1
  In  In25  1  0.01010593  0.66234697  0.36550813  1
  In  In26  1  0.47564680  0.30264981  0.50220232  1
  In  In27  1  0.66593924  0.15278512  0.13797130  1
  In  In28  1  0.84894050  0.16532748  0.69062382  1
  In  In29  1  0.66254844  0.31454768  0.64996417  1
  In  In30  1  0.01230653  0.49713125  0.81688842  1
  In  In31  1  0.82699269  0.53272345  0.34566161  1
  In  In32  1  0.01212828  0.15942670  0.12580496  1
  In  In33  1  0.18187681  0.17432861  0.32118082  1
  In  In34  1  0.11066832  0.37938138  0.53332062  1
  In  In35  1  0.31765257  0.01555571  -0.02423646  1
  In  In36  1  0.65478156  0.49665259  0.15014421  1
  In  In37  1  0.67228738  -0.00069246  -0.01672946  1
  In  In38  1  0.32607790  0.33742875  -0.01922482  1
  In  In39  1  0.66414912  -0.01860805  0.65889973  1
  In  In40  1  0.01776537  0.16615040  0.49815241  1
  In  In41  1  0.82152803  0.68526271  0.49571217  1
  In  In42  1  0.19431371  0.33147168  0.15812435  1
  In  In43  1  0.51789309  0.16817247  0.31182990  1
  In  In44  1  -0.01329632  0.65980853  -0.00421652  1
  In  In45  1  0.65660354  0.31911971  -0.00914426  1
  In  In46  1  0.00897299  0.34339088  0.34473373  1
  In  In47  1  0.47650156  0.15276983  0.69813631  1
  In  In48  1  0.16349296  0.49303166  -0.02155928  1
  In  In49  1  0.02880737  0.31279957  -0.04241062  1
  In  In50  1  0.16407586  0.83366547  0.34282130  1
  In  In51  1  -0.00642352  0.00016255  0.34285360  1
  In  In52  1  0.49637543  -0.00590670  0.83133045  1
  In  In53  1  0.48680773  0.32583783  0.83432711  1
  In  In54  1  0.33042311  -0.01099767  0.34131061  1
  In  In55  1  0.84367936  0.02220886  0.51836937  1
  In  In56  1  0.81979321  0.15480985  0.33647380  1
  In  In57  1  0.49293154  0.67185124  0.16449929  1
  In  In58  1  0.66537968  0.16819565  0.52325319  1
  In  In59  1  0.00461477  0.82927576  0.19811325  1
  In  In60  1  0.67782028  0.37005580  0.32926903  1
  In  In61  1  -0.00528563  0.81633410  0.81653519  1
  In  In62  1  0.00170095  0.00241005  -0.01778956  1
  In  In63  1  0.83275065  0.33562967  0.84249953  1
  In  In64  1  0.67231516  0.71642257  0.67629554  1
  In  In65  1  0.81075374  -0.01075838  0.18156582  1
  In  In66  1  0.32558716  0.83693019  0.79733209  1
  In  In67  1  0.51094869  0.82169067  0.00504853  1
  In  In68  1  0.49746003  0.68589007  0.52090113  1
  In  In69  1  0.86561762  0.48379434  0.64832230  1
  In  In70  1  0.35535204  0.85238974  0.15061286  1
  In  In71  1  0.34289881  0.16898886  0.13778831  1
  Te  Te72  1  0.10699353  0.07800756  0.05279011  1
  Te  Te73  1  0.10663363  0.07866122  0.41274433  1
  Te  Te74  1  0.10853029  0.07986901  0.78440434  1
  Te  Te75  1  0.07985243  0.40979097  0.08329772  1
  Te  Te76  1  0.09820458  0.44359233  0.40106394  1
  Te  Te77  1  0.11663462  0.41678032  0.75088009  1
  Te  Te78  1  0.07056776  0.76303723  0.07165405  1
  Te  Te79  1  0.06950698  0.77535171  0.44545077  1
  Te  Te80  1  0.08825745  0.72375715  0.75120955  1
  Te  Te81  1  0.42075216  0.06862883  0.06582725  1
  Te  Te82  1  0.42142648  0.09128180  0.41278211  1
  Te  Te83  1  0.38064950  0.05142513  0.75223510  1
  Te  Te84  1  0.41765844  0.39578747  0.07878178  1
  Te  Te85  1  0.42362902  0.43386261  0.42089399  1
  Te  Te86  1  0.38761718  0.42227522  0.77302983  1
  Te  Te87  1  0.39907922  0.73569299  0.06361937  1
  Te  Te88  1  0.39157777  0.73136638  0.42650739  1
  Te  Te89  1  0.44903101  0.77414801  0.73518244  1
  Te  Te90  1  0.77449592  0.07851801  0.06382233  1
  Te  Te91  1  0.72863454  0.07365687  0.42392556  1
  Te  Te92  1  0.73779648  0.07824683  0.74841572  1
  Te  Te93  1  0.75029783  0.41486130  0.06661944  1
  Te  Te94  1  0.76919786  0.42090293  0.43807062  1
  Te  Te95  1  0.74586582  0.41380171  0.73017584  1
  Te  Te96  1  0.76154378  0.75966500  0.08226697  1
  Te  Te97  1  0.77181605  0.75532559  0.37749217  1
  Te  Te98  1  0.75654540  0.79087011  0.76681841  1
  Te  Te99  1  0.07791443  0.25380774  0.23942880  1
  Te  Te100  1  0.10088113  0.24176415  0.59824642  1
  Te  Te101  1  0.08107330  0.21009907  0.86604717  1
  Te  Te102  1  0.09049790  0.61926812  0.24353766  1
  Te  Te103  1  0.10173309  0.58890246  0.59256830  1
  Te  Te104  1  0.08923062  0.60048814  0.90186450  1
  Te  Te105  1  0.09822956  0.93522105  0.24951535  1
  Te  Te106  1  0.06081293  0.88826452  0.64955239  1
  Te  Te107  1  0.08624627  0.90756427  0.89915381  1
  Te  Te108  1  0.40651991  0.25291051  0.25175392  1
  Te  Te109  1  0.39879802  0.26267481  0.62641897  1
  Te  Te110  1  0.39408746  0.22866712  0.90117408  1
  Te  Te111  1  0.39863964  0.59059171  0.25183090  1
  Te  Te112  1  0.40000747  0.59259143  0.59490641  1
  Te  Te113  1  0.39126547  0.53972795  0.88392730  1
  Te  Te114  1  0.43720357  0.93044945  0.25069767  1
  Te  Te115  1  0.39289311  0.86545679  0.60772201  1
  Te  Te116  1  0.40815830  0.89647077  0.92031428  1
  Te  Te117  1  0.74874168  0.25885690  0.24701400  1
  Te  Te118  1  0.77940183  0.24903340  0.57949904  1
  Te  Te119  1  0.74201090  0.23955993  0.90327506  1
  Te  Te120  1  0.72887249  0.59012691  0.24427651  1
  Te  Te121  1  0.75181977  0.59527305  0.60525655  1
  Te  Te122  1  0.75389199  0.57928925  0.90851954  1
  Te  Te123  1  0.75976420  0.90738545  0.29443386  1
  Te  Te124  1  0.76133431  0.91225650  0.57451289  1
  Te  Te125  1  0.71745608  0.88767248  0.88233587  1
  Te  Te126  1  0.23255513  0.23275834  0.05391716  1
  Te  Te127  1  0.24672942  0.25572191  0.43149738  1
  Te  Te128  1  0.25836742  0.24245169  0.81478561  1
  Te  Te129  1  0.24955721  0.57318905  0.07367349  1
  Te  Te130  1  0.24752628  0.63164411  0.42049320  1
  Te  Te131  1  0.29308821  0.60018909  0.78313931  1
  Te  Te132  1  0.24318946  0.92405140  0.07859947  1
  Te  Te133  1  0.25200368  0.90837069  0.44189214  1
  Te  Te134  1  0.20657143  0.89085268  0.70828943  1
  Te  Te135  1  0.57017295  0.25028858  0.08828069  1
  Te  Te136  1  0.59837838  0.26235504  0.41402577  1
  Te  Te137  1  0.58823985  0.23967185  0.75681309  1
  Te  Te138  1  0.55710950  0.57680988  0.06559616  1
  Te  Te139  1  0.59035767  0.60625400  0.42124351  1
  Te  Te140  1  0.57741827  0.59317115  0.73074569  1
  Te  Te141  1  0.59783489  0.91457642  0.08661109  1
  Te  Te142  1  0.56562789  0.90710358  0.44560672  1
  Te  Te143  1  0.56203448  0.90368140  0.73278805  1
  Te  Te144  1  0.91904857  0.24956236  0.04883628  1
  Te  Te145  1  0.91765466  0.24381451  0.41398988  1
  Te  Te146  1  0.93407716  0.26109506  0.76409928  1
  Te  Te147  1  0.90309594  0.57049174  0.08543524  1
  Te  Te148  1  0.92513701  0.57349172  0.45139142  1
  Te  Te149  1  0.90415088  0.58341916  0.75399182  1
  Te  Te150  1  0.91863301  0.91365186  0.10275199  1
  Te  Te151  1  0.93088767  0.92378948  0.44868566  1
  Te  Te152  1  0.92565663  0.92307241  0.73634890  1
  Te  Te153  1  0.26404719  0.08043674  0.23849809  1
  Te  Te154  1  0.25430262  0.07843296  0.59316842  1
  Te  Te155  1  0.25139807  0.04711794  0.84524473  1
  Te  Te156  1  0.23234886  0.43440332  0.26348487  1
  Te  Te157  1  0.24944325  0.41666716  0.58755751  1
  Te  Te158  1  0.21838482  0.38972733  0.88570397  1
  Te  Te159  1  0.26403023  0.77254184  0.24427341  1
  Te  Te160  1  0.27369847  0.76520702  0.62962776  1
  Te  Te161  1  0.26445012  0.73344674  0.88747672  1
  Te  Te162  1  0.60235101  0.07192350  0.24347803  1
  Te  Te163  1  0.55374064  0.08488256  0.58391480  1
  Te  Te164  1  0.56924663  0.08299732  0.92213432  1
  Te  Te165  1  0.56401455  0.41063254  0.23705495  1
  Te  Te166  1  0.57431809  0.41638390  0.57603597  1
  Te  Te167  1  0.57173679  0.42226970  0.91468430  1
  Te  Te168  1  0.57687734  0.75229253  0.25929059  1
  Te  Te169  1  0.61005803  0.77655819  0.55574218  1
  Te  Te170  1  0.57708879  0.72812614  0.90733521  1
  Te  Te171  1  0.92032666  0.09374212  0.23844852  1
  Te  Te172  1  0.94971079  0.08578767  0.60710462  1
  Te  Te173  1  0.91294552  0.08795712  0.90440666  1
  Te  Te174  1  0.90442819  0.42812233  0.25560902  1
  Te  Te175  1  0.96603703  0.40426861  0.58404134  1
  Te  Te176  1  0.93115100  0.42283958  0.92134099  1
  Te  Te177  1  0.90564520  0.75705869  0.29188446  1
  Te  Te178  1  0.89677844  0.76699201  0.59141372  1
  Te  Te179  1  0.89466570  0.74106454  0.90681010  1
