# generated using pymatgen
data_In2Te3
_symmetry_space_group_name_H-M   'P 1'
_cell_length_a   19.00245241
_cell_length_b   18.98917518
_cell_length_c   18.98008688
_cell_angle_alpha   89.91005113
_cell_angle_beta   89.79289373
_cell_angle_gamma   90.02319528
_symmetry_Int_Tables_number   1
_chemical_formula_structural   In2Te3
_chemical_formula_sum   'In72 Te108'
_cell_volume   6848.73783076
_cell_formula_units_Z   36
loop_
 _symmetry_equiv_pos_site_id
 _symmetry_equiv_pos_as_xyz
  1  'x, y, z'
loop_
 _atom_site_type_symbol
 _atom_site_label
 _atom_site_symmetry_multiplicity
 _atom_site_fract_x
 _atom_site_fract_y
 _atom_site_fract_z
 _atom_site_occupancy
  In  In0  1  0.52093882  0.00219753  0.14997201  1
  In  In1  1  0.66196762  0.33860272  0.29965178  1
  In  In2  1  0.16788051  0.66151313  0.83487901  1
  In  In3  1  0.68787435  0.33816718  0.67617048  1
  In  In4  1  -0.00982764  0.16430648  0.51737393  1
  In  In5  1  0.52608936  0.49971146  0.66188823  1
  In  In6  1  0.16270092  0.81929719  0.31101367  1
  In  In7  1  0.67560307  0.66070611  0.68816483  1
  In  In8  1  0.64864276  0.68215504  0.32710823  1
  In  In9  1  0.01193261  0.83636818  0.52125416  1
  In  In10  1  0.49463211  0.18772766  0.64256179  1
  In  In11  1  0.85013471  0.50623542  0.33012000  1
  In  In12  1  0.34677783  0.64288938  0.31960960  1
  In  In13  1  -0.00210707  0.66743315  0.35622681  1
  In  In14  1  0.17911874  0.50189942  0.35231088  1
  In  In15  1  0.48147639  0.35430202  0.45021390  1
  In  In16  1  0.84615022  0.14049524  -0.00732462  1
  In  In17  1  0.13443083  0.17947426  0.00734805  1
  In  In18  1  0.50951568  0.17550475  -0.00706460  1
  In  In19  1  0.00352830  0.84792501  0.14959321  1
  In  In20  1  0.68411440  0.00622827  0.66108575  1
  In  In21  1  -0.01768962  0.51353939  0.14691436  1
  In  In22  1  0.17721907  0.66735346  0.18555911  1
  In  In23  1  0.65132068  0.83903875  0.84826146  1
  In  In24  1  0.83271585  0.33059261  0.84035440  1
  In  In25  1  0.15986389  0.14874831  0.66657027  1
  In  In26  1  0.34335752  0.48593809  0.86300730  1
  In  In27  1  0.33802629  0.02524233  0.33798585  1
  In  In28  1  0.18308634  0.50126559  0.00195555  1
  In  In29  1  0.17080670  0.32869084  0.47341318  1
  In  In30  1  0.14217781  0.00166053  0.83729384  1
  In  In31  1  0.69963504  0.65875116  -0.03661433  1
  In  In32  1  0.68009071  0.16458633  0.13097196  1
  In  In33  1  0.30932200  0.00788243  0.66979072  1
  In  In34  1  0.68673974  0.50179770  0.51736462  1
  In  In35  1  0.01227790  0.35378444  0.32565421  1
  In  In36  1  0.83536120  0.84171572  -0.02099520  1
  In  In37  1  0.17758643  0.83780743  -0.00553135  1
  In  In38  1  0.32017795  0.16217829  0.84572552  1
  In  In39  1  0.50911312  0.49277280  0.02254052  1
  In  In40  1  0.17472697  0.15839068  0.33703857  1
  In  In41  1  0.67512645  0.36878042  -0.01020960  1
  In  In42  1  0.66992401  0.19300673  0.50320378  1
  In  In43  1  0.34000666  0.82099447  0.50908802  1
  In  In44  1  0.33162719  0.29611165  0.00824418  1
  In  In45  1  0.16855333  0.84617174  0.67038737  1
  In  In46  1  0.82412809  0.82752948  0.33808056  1
  In  In47  1  0.50082536  0.65479624  0.49097317  1
  In  In48  1  0.52530396  0.83655488  0.29588517  1
  In  In49  1  0.16309484  -0.00076386  0.49113345  1
  In  In50  1  0.84405021  0.18769210  0.30774640  1
  In  In51  1  0.86182962  0.87008124  0.69999446  1
  In  In52  1  0.34533184  -0.02284808  0.01721473  1
  In  In53  1  0.35417292  0.64674492  0.67028429  1
  In  In54  1  0.47210879  0.32434400  0.19357993  1
  In  In55  1  0.85207263  0.00508309  0.48505110  1
  In  In56  1  -0.01784184  0.14222368  0.14805828  1
  In  In57  1  0.83228611  0.65990254  0.15477517  1
  In  In58  1  0.14817624  0.49320646  0.65210021  1
  In  In59  1  0.18039139  0.33125894  0.17832584  1
  In  In60  1  0.65475085  0.83125178  0.47975417  1
  In  In61  1  0.66657107  0.14620173  0.82964471  1
  In  In62  1  -0.02369563  0.47781684  0.85014390  1
  In  In63  1  0.67022431  0.00104233  0.32308228  1
  In  In64  1  -0.00867226  0.65664215  0.69668631  1
  In  In65  1  -0.03531595  0.66924785  0.00468137  1
  In  In66  1  -0.02014610  0.33994803  0.68170065  1
  In  In67  1  0.32737735  0.35402387  0.66218639  1
  In  In68  1  0.48285979  0.00045571  0.85719534  1
  In  In69  1  0.35913379  0.67397173  0.04829192  1
  In  In70  1  0.47899609  0.84173333  0.66575976  1
  In  In71  1  0.83848092  0.35250227  0.52502800  1
  Te  Te72  1  0.05847892  0.06303098  0.05107643  1
  Te  Te73  1  0.06472795  0.08338938  0.41338499  1
  Te  Te74  1  0.07205759  0.11670741  0.77883577  1
  Te  Te75  1  0.09179880  0.42117409  0.09350057  1
  Te  Te76  1  0.06739699  0.43546067  0.43764644  1
  Te  Te77  1  0.08519001  0.41248600  0.76248793  1
  Te  Te78  1  0.08299149  0.72919076  0.08469717  1
  Te  Te79  1  0.09929923  0.74957088  0.43152937  1
  Te  Te80  1  0.08181279  0.76103113  0.76207991  1
  Te  Te81  1  0.41966876  0.09403979  0.08262421  1
  Te  Te82  1  0.42934232  0.12679797  0.38628556  1
  Te  Te83  1  0.42000345  0.09132774  0.74397543  1
  Te  Te84  1  0.39842546  0.40458911  0.08636177  1
  Te  Te85  1  0.40187226  0.44596604  0.36396885  1
  Te  Te86  1  0.42630851  0.42203641  0.75273897  1
  Te  Te87  1  0.43618717  0.80681726  0.06585164  1
  Te  Te88  1  0.43371002  0.76020726  0.40660249  1
  Te  Te89  1  0.40193306  0.75517903  0.75454515  1
  Te  Te90  1  0.77656417  0.05852357  0.09659245  1
  Te  Te91  1  0.75534029  0.10246958  0.41250316  1
  Te  Te92  1  0.77401221  0.07280620  0.75786373  1
  Te  Te93  1  0.73027794  0.46022507  0.08919341  1
  Te  Te94  1  0.75234514  0.40302638  0.40840910  1
  Te  Te95  1  0.73944898  0.43290504  0.77938108  1
  Te  Te96  1  0.74865262  0.75439406  0.07519858  1
  Te  Te97  1  0.75448556  0.72926274  0.42978101  1
  Te  Te98  1  0.74925789  0.77815407  0.74779409  1
  Te  Te99  1  0.07324631  0.24048422  0.24719531  1
  Te  Te100  1  0.08655982  0.26357934  0.58286814  1
  Te  Te101  1  0.11438798  0.28878171  0.91713484  1
  Te  Te102  1  0.07393094  0.57214948  0.25460770  1
  Te  Te103  1  0.07763415  0.60407458  0.59141695  1
  Te  Te104  1  0.07560574  0.57712268  0.92461794  1
  Te  Te105  1  0.08497515  0.92323349  0.24503421  1
  Te  Te106  1  0.07676467  0.94616361  0.60450768  1
  Te  Te107  1  0.06736610  0.90005610  0.91813270  1
  Te  Te108  1  0.39281175  0.22916932  0.27840597  1
  Te  Te109  1  0.40434574  0.27312208  0.55804263  1
  Te  Te110  1  0.42776718  0.25684645  0.89606843  1
  Te  Te111  1  0.44373614  0.55139699  0.25833510  1
  Te  Te112  1  0.41866894  0.55484044  0.56847066  1
  Te  Te113  1  0.42274148  0.58928191  0.93680216  1
  Te  Te114  1  0.42443884  0.93446103  0.24583064  1
  Te  Te115  1  0.40834154  0.93935795  0.57410301  1
  Te  Te116  1  0.41359594  0.88549761  0.92002512  1
  Te  Te117  1  0.76050399  0.26635393  0.20976744  1
  Te  Te118  1  0.77463569  0.23800309  0.60232973  1
  Te  Te119  1  0.73647185  0.23835231  0.92761505  1
  Te  Te120  1  0.74671746  0.58664655  0.25587075  1
  Te  Te121  1  0.76762649  0.57034717  0.61727970  1
  Te  Te122  1  0.75720139  0.56162335  0.86674130  1
  Te  Te123  1  0.71999984  0.88330902  0.25080080  1
  Te  Te124  1  0.75396103  0.91362093  0.56190310  1
  Te  Te125  1  0.74324812  0.93562390  0.90995596  1
  Te  Te126  1  0.24712215  0.21715895  0.10491320  1
  Te  Te127  1  0.27107291  0.26143563  0.38488381  1
  Te  Te128  1  0.25300511  0.24597057  0.73892913  1
  Te  Te129  1  0.26475109  0.56991049  0.10963149  1
  Te  Te130  1  0.25093855  0.60687777  0.42289575  1
  Te  Te131  1  0.25335569  0.56099151  0.75917020  1
  Te  Te132  1  0.24806529  0.90528777  0.10134449  1
  Te  Te133  1  0.25168654  0.90283881  0.41498787  1
  Te  Te134  1  0.25498895  0.91439209  0.77358588  1
  Te  Te135  1  0.57742120  0.27350489  0.08518834  1
  Te  Te136  1  0.58075045  0.25245509  0.39588033  1
  Te  Te137  1  0.58805607  0.24722351  0.74612142  1
  Te  Te138  1  0.63082106  0.57106875  0.07100271  1
  Te  Te139  1  0.59628402  0.56618284  0.41598684  1
  Te  Te140  1  0.55461121  0.61053812  0.75257902  1
  Te  Te141  1  0.55521429  0.89455591  0.05648458  1
  Te  Te142  1  0.56853698  0.93311760  0.41275410  1
  Te  Te143  1  0.57308220  0.93626790  0.74167993  1
  Te  Te144  1  0.92403990  0.24715280  0.06053871  1
  Te  Te145  1  0.92055685  0.26410376  0.42161923  1
  Te  Te146  1  0.91945321  0.23777982  0.76586735  1
  Te  Te147  1  0.87394487  0.55405152  0.04791609  1
  Te  Te148  1  0.90878078  0.58521525  0.43705062  1
  Te  Te149  1  0.89488518  0.59324041  0.79557380  1
  Te  Te150  1  0.89785858  0.92551529  0.08481182  1
  Te  Te151  1  0.93427450  0.90376410  0.40838428  1
  Te  Te152  1  0.94804903  0.93110582  0.80051998  1
  Te  Te153  1  0.22902543  0.05707786  0.24575031  1
  Te  Te154  1  0.25526558  0.09840740  0.55877077  1
  Te  Te155  1  0.24694247  0.06644569  0.93342191  1
  Te  Te156  1  0.26508406  0.41593874  0.26686924  1
  Te  Te157  1  0.24825533  0.42982183  0.55795931  1
  Te  Te158  1  0.23766330  0.38203087  0.91486654  1
  Te  Te159  1  0.28452180  0.75752149  0.24117439  1
  Te  Te160  1  0.25184350  0.74071770  0.60140941  1
  Te  Te161  1  0.25734375  0.72172437  0.94025752  1
  Te  Te162  1  0.59443865  0.10166910  0.23930878  1
  Te  Te163  1  0.58619099  0.08861796  0.57401206  1
  Te  Te164  1  0.59450212  0.06399432  0.93674402  1
  Te  Te165  1  0.56340599  0.43318526  0.24208219  1
  Te  Te166  1  0.58882062  0.39248389  0.56698330  1
  Te  Te167  1  0.57367641  0.43059048  0.90625571  1
  Te  Te168  1  0.55063924  0.71267842  0.22201040  1
  Te  Te169  1  0.57772561  0.74893508  0.58310723  1
  Te  Te170  1  0.58096462  0.73027989  0.91483975  1
  Te  Te171  1  0.90118836  0.06866475  0.24761777  1
  Te  Te172  1  0.91920624  0.06640899  0.59990872  1
  Te  Te173  1  0.88404013  0.04609170  0.88383476  1
  Te  Te174  1  0.90873020  0.40840230  0.22937914  1
  Te  Te175  1  0.90092345  0.44667962  0.61812886  1
  Te  Te176  1  0.92214711  0.38042031  0.94805719  1
  Te  Te177  1  0.92387460  0.74263442  0.24523850  1
  Te  Te178  1  0.91420666  0.76149468  0.60859076  1
  Te  Te179  1  0.90300447  0.74052333  0.89352594  1
