# generated using pymatgen
data_In2Te3
_symmetry_space_group_name_H-M   'P 1'
_cell_length_a   18.75692271
_cell_length_b   18.75651302
_cell_length_c   18.76532267
_cell_angle_alpha   90.10400637
_cell_angle_beta   90.05355927
_cell_angle_gamma   90.08078813
_symmetry_Int_Tables_number   1
_chemical_formula_structural   In2Te3
_chemical_formula_sum   'In72 Te108'
_cell_volume   6601.89161619
_cell_formula_units_Z   36
loop_
 _symmetry_equiv_pos_site_id
 _symmetry_equiv_pos_as_xyz
  1  'x, y, z'
loop_
 _atom_site_type_symbol
 _atom_site_label
 _atom_site_symmetry_multiplicity
 _atom_site_fract_x
 _atom_site_fract_y
 _atom_site_fract_z
 _atom_site_occupancy
  In  In0  1  0.50193645  0.52527824  0.31770111  1
  In  In1  1  0.66308508  0.65976995  0.66854649  1
  In  In2  1  0.51902625  0.30991923  0.50401237  1
  In  In3  1  0.32340128  0.15759557  0.17261935  1
  In  In4  1  -0.01169185  0.32926479  0.31755551  1
  In  In5  1  0.51306492  -0.01820916  0.81850725  1
  In  In6  1  -0.00905737  0.81658739  0.85146717  1
  In  In7  1  0.50467565  0.18571540  0.00698978  1
  In  In8  1  -0.01710995  0.00562277  0.32691781  1
  In  In9  1  0.32801246  0.34206804  0.33381125  1
  In  In10  1  0.14117104  -0.00586657  0.48555835  1
  In  In11  1  0.53221196  0.50041231  -0.01545139  1
  In  In12  1  0.33041478  0.34535865  -0.01156170  1
  In  In13  1  0.80979219  0.86006808  0.64303819  1
  In  In14  1  0.33449337  0.81066157  0.51311825  1
  In  In15  1  0.82050703  0.48371200  0.68446765  1
  In  In16  1  0.15024245  0.35486211  0.17823749  1
  In  In17  1  0.82822190  0.65914451  0.86123572  1
  In  In18  1  0.50403830  0.50551497  0.69870881  1
  In  In19  1  0.51721883  0.67158120  0.50828680  1
  In  In20  1  -0.00430861  0.19411285  0.82720433  1
  In  In21  1  0.35467788  0.83484699  0.15463922  1
  In  In22  1  0.67100829  0.50625911  0.48253116  1
  In  In23  1  0.16588515  0.64528597  0.84524680  1
  In  In24  1  0.15944350  0.66079796  0.15708558  1
  In  In25  1  0.33475393  -0.00517341  0.29930410  1
  In  In26  1  0.69105934  0.50863866  0.16471206  1
  In  In27  1  0.67569935  0.67145823  0.00707849  1
  In  In28  1  0.81595521  0.00755114  0.83657941  1
  In  In29  1  0.68072949  0.33738113  0.69002238  1
  In  In30  1  0.31649272  0.18313527  0.49578191  1
  In  In31  1  -0.00055876  0.84080701  0.49525765  1
  In  In32  1  0.85637959  0.15882531  0.68062323  1
  In  In33  1  0.33758499  0.65597004  0.32035569  1
  In  In34  1  0.82794015  0.17106930  0.31614709  1
  In  In35  1  0.17361373  0.34423142  0.84707439  1
  In  In36  1  0.52666584  0.33590845  0.14582528  1
  In  In37  1  0.00015947  -0.00293216  0.65185038  1
  In  In38  1  0.53241872  -0.01559066  0.15389008  1
  In  In39  1  -0.00530551  0.47508039  0.85800863  1
  In  In40  1  0.33885782  0.35501300  0.69480764  1
  In  In41  1  0.67606907  0.17947337  0.84537164  1
  In  In42  1  0.15010517  -0.00327864  0.17602494  1
  In  In43  1  0.15196173  0.15277944  -0.00405719  1
  In  In44  1  0.17061476  0.50350193  0.32478621  1
  In  In45  1  0.84120065  0.17732730  0.01702361  1
  In  In46  1  0.32812880  0.51166208  0.48867735  1
  In  In47  1  -0.04214758  0.52630026  0.47432612  1
  In  In48  1  0.82339808  0.34936167  0.50018116  1
  In  In49  1  0.35694596  -0.02132952  -0.02740463  1
  In  In50  1  0.51553934  0.15605159  0.34137543  1
  In  In51  1  0.65910668  -0.01740468  0.32016022  1
  In  In52  1  0.83121828  0.34260804  0.15426134  1
  In  In53  1  0.18620868  -0.01286266  0.82681900  1
  In  In54  1  0.34937312  -0.01703653  0.67095805  1
  In  In55  1  -0.01347559  0.50456160  0.15386874  1
  In  In56  1  0.68462943  -0.01686304  0.01253576  1
  In  In57  1  0.34058259  0.69794240  0.69235051  1
  In  In58  1  0.65476035  0.15675414  0.48705314  1
  In  In59  1  0.66263004  0.82865212  0.84169503  1
  In  In60  1  0.35369853  0.65974744  0.01261762  1
  In  In61  1  0.82714843  0.82061966  0.32156033  1
  In  In62  1  0.13530760  0.32690732  0.51876539  1
  In  In63  1  -0.04008142  -0.03333603  0.02963872  1
  In  In64  1  0.16134816  0.81627815  0.00536588  1
  In  In65  1  0.15203366  0.51537415  0.68065991  1
  In  In66  1  0.00003808  0.67593400  0.66400807  1
  In  In67  1  0.52669948  0.15562253  0.67553977  1
  In  In68  1  0.16311434  0.18319379  0.65530542  1
  In  In69  1  0.14981442  0.83745520  0.34481064  1
  In  In70  1  0.84876660  0.67261301  0.16615010  1
  In  In71  1  0.51456594  -0.04091367  0.45766032  1
  Te  Te72  1  0.05592070  0.07593571  0.08649099  1
  Te  Te73  1  0.06455555  0.09552201  0.41444020  1
  Te  Te74  1  0.08661464  0.08269522  0.75501516  1
  Te  Te75  1  0.08119528  0.42690401  0.06986316  1
  Te  Te76  1  0.07330412  0.42485360  0.41484036  1
  Te  Te77  1  0.07608623  0.40221552  0.74391546  1
  Te  Te78  1  0.06056041  0.75074264  0.08997882  1
  Te  Te79  1  0.06953665  0.73695314  0.41599284  1
  Te  Te80  1  0.09353054  0.75093089  0.75906740  1
  Te  Te81  1  0.41631845  0.07086943  0.08773657  1
  Te  Te82  1  0.41341525  0.08276425  0.42791211  1
  Te  Te83  1  0.41800648  0.08748716  0.75971593  1
  Te  Te84  1  0.42676717  0.42447578  0.07763312  1
  Te  Te85  1  0.43150387  0.41826705  0.42160064  1
  Te  Te86  1  0.41979540  0.42893412  0.79520674  1
  Te  Te87  1  0.45134098  0.75971123  0.07259894  1
  Te  Te88  1  0.42383678  0.74619372  0.40786431  1
  Te  Te89  1  0.43416129  0.78464555  0.76331168  1
  Te  Te90  1  0.76947252  0.07359985  0.09797234  1
  Te  Te91  1  0.74988693  0.07127565  0.40710875  1
  Te  Te92  1  0.73296382  0.08734595  0.73690257  1
  Te  Te93  1  0.76209858  0.43414332  0.05557572  1
  Te  Te94  1  0.75754353  0.42653019  0.39321802  1
  Te  Te95  1  0.70964115  0.45180794  0.78546158  1
  Te  Te96  1  0.74474954  0.76459438  0.10391266  1
  Te  Te97  1  0.76844913  0.73073049  0.42465319  1
  Te  Te98  1  0.76889300  0.74783222  0.75115769  1
  Te  Te99  1  0.07273596  0.24176512  0.23346716  1
  Te  Te100  1  0.04257985  0.23658285  0.58971418  1
  Te  Te101  1  0.07242678  0.26872452  0.93607226  1
  Te  Te102  1  0.06622392  0.58975965  0.25674499  1
  Te  Te103  1  0.07212180  0.58004307  0.56903726  1
  Te  Te104  1  0.06749194  0.57949722  0.93437641  1
  Te  Te105  1  0.05485612  0.89737096  0.24068536  1
  Te  Te106  1  0.10292868  0.89846567  0.59721999  1
  Te  Te107  1  0.08056927  0.92612114  0.92432745  1
  Te  Te108  1  0.41993415  0.24819372  0.25326298  1
  Te  Te109  1  0.41443178  0.24567562  0.59916097  1
  Te  Te110  1  0.41415595  0.24992263  0.91154247  1
  Te  Te111  1  0.42011502  0.59406563  0.21552199  1
  Te  Te112  1  0.42064664  0.58212943  0.58893241  1
  Te  Te113  1  0.42495048  0.57548692  0.91129251  1
  Te  Te114  1  0.45275371  0.89933777  0.26491752  1
  Te  Te115  1  0.43908830  0.89898784  0.58030422  1
  Te  Te116  1  0.43184463  0.87626800  0.89251749  1
  Te  Te117  1  0.73927631  0.26025943  0.23796152  1
  Te  Te118  1  0.74013420  0.24452236  0.58268564  1
  Te  Te119  1  0.77994721  0.26817938  0.91030338  1
  Te  Te120  1  0.75771449  0.60115032  0.26431270  1
  Te  Te121  1  0.76101299  0.58065350  0.58230571  1
  Te  Te122  1  0.75342569  0.55790923  0.94373091  1
  Te  Te123  1  0.75714526  0.91697061  0.22428090  1
  Te  Te124  1  0.70260944  0.93511770  0.57896949  1
  Te  Te125  1  0.77423690  0.89162728  0.92559451  1
  Te  Te126  1  0.24311278  0.25003803  0.08306250  1
  Te  Te127  1  0.22120529  0.26034053  0.40557160  1
  Te  Te128  1  0.25417264  0.24537640  0.76109901  1
  Te  Te129  1  0.23947933  0.57687942  0.06497696  1
  Te  Te130  1  0.23225572  0.60766772  0.42060832  1
  Te  Te131  1  0.26880587  0.57475819  0.75556111  1
  Te  Te132  1  0.24970492  0.93039159  0.08048956  1
  Te  Te133  1  0.26540833  0.91790753  0.41661079  1
  Te  Te134  1  0.27080569  0.88833200  0.75507829  1
  Te  Te135  1  0.62040763  0.25120761  0.07017648  1
  Te  Te136  1  0.61105648  0.26823999  0.39103019  1
  Te  Te137  1  0.57104155  0.26643965  0.77203651  1
  Te  Te138  1  0.58340476  0.59599021  0.10147117  1
  Te  Te139  1  0.60175731  0.61223176  0.39490312  1
  Te  Te140  1  0.57681337  0.60833511  0.78077621  1
  Te  Te141  1  0.58175361  0.88216646  0.05841604  1
  Te  Te142  1  0.62248642  0.85788829  0.40648205  1
  Te  Te143  1  0.61591619  0.91735348  0.73003992  1
  Te  Te144  1  0.93881137  0.25770195  0.09532329  1
  Te  Te145  1  0.91043276  0.24977585  0.42150427  1
  Te  Te146  1  0.89019516  0.28045138  0.76285710  1
  Te  Te147  1  0.90626442  0.58622220  0.05685491  1
  Te  Te148  1  0.86125742  0.61089362  0.39344439  1
  Te  Te149  1  0.92272914  0.58174732  0.75716198  1
  Te  Te150  1  0.86069715  0.88710666  0.10855426  1
  Te  Te151  1  0.89511061  0.92074185  0.41985254  1
  Te  Te152  1  0.91759907  0.91255373  0.75326283  1
  Te  Te153  1  0.22362543  0.09392215  0.26970000  1
  Te  Te154  1  0.24709909  0.07445165  0.58475726  1
  Te  Te155  1  0.26411942  0.08728680  0.91456509  1
  Te  Te156  1  0.27115650  0.43818177  0.23077738  1
  Te  Te157  1  0.25094236  0.41402234  0.58039363  1
  Te  Te158  1  0.23745079  0.44803911  0.93283664  1
  Te  Te159  1  0.24915940  0.76536841  0.24313187  1
  Te  Te160  1  0.23904349  0.72946527  0.59014220  1
  Te  Te161  1  0.25927552  0.74401921  0.91804766  1
  Te  Te162  1  0.60025107  0.09866090  0.22983090  1
  Te  Te163  1  0.57501288  0.05567887  0.56989065  1
  Te  Te164  1  0.59121423  0.07369709  0.92139867  1
  Te  Te165  1  0.59435764  0.42294865  0.25115411  1
  Te  Te166  1  0.58632781  0.42222114  0.59079975  1
  Te  Te167  1  0.60663501  0.40718679  0.89612868  1
  Te  Te168  1  0.56785058  0.79649421  0.28062468  1
  Te  Te169  1  0.59974312  0.76716129  0.58760491  1
  Te  Te170  1  0.57994443  0.71663690  0.89802619  1
  Te  Te171  1  0.89784540  0.07493469  0.22516984  1
  Te  Te172  1  0.90497708  0.07374490  0.57039059  1
  Te  Te173  1  0.92286014  0.08365158  0.91331194  1
  Te  Te174  1  0.89933470  0.43647536  0.25918466  1
  Te  Te175  1  0.92472265  0.42496982  0.58508109  1
  Te  Te176  1  0.88960816  0.38325098  0.90510111  1
  Te  Te177  1  0.94224809  0.75333124  0.25259781  1
  Te  Te178  1  0.90148753  0.75485283  0.57814907  1
  Te  Te179  1  0.92673997  0.72842553  0.95306190  1
