# generated using pymatgen
data_In2Te3
_symmetry_space_group_name_H-M   'P 1'
_cell_length_a   19.05877135
_cell_length_b   19.03490309
_cell_length_c   19.07037742
_cell_angle_alpha   90.09288840
_cell_angle_beta   90.02115359
_cell_angle_gamma   89.72843151
_symmetry_Int_Tables_number   1
_chemical_formula_structural   In2Te3
_chemical_formula_sum   'In72 Te108'
_cell_volume   6918.29984159
_cell_formula_units_Z   36
loop_
 _symmetry_equiv_pos_site_id
 _symmetry_equiv_pos_as_xyz
  1  'x, y, z'
loop_
 _atom_site_type_symbol
 _atom_site_label
 _atom_site_symmetry_multiplicity
 _atom_site_fract_x
 _atom_site_fract_y
 _atom_site_fract_z
 _atom_site_occupancy
  In  In0  1  0.64597277  0.66955632  0.68177708  1
  In  In1  1  0.83170017  0.50368642  0.01906080  1
  In  In2  1  0.33252425  0.31234946  0.35864583  1
  In  In3  1  0.00169109  -0.00988367  0.65936627  1
  In  In4  1  0.50108667  0.33387915  0.80740549  1
  In  In5  1  0.01736453  0.82164492  0.82881675  1
  In  In6  1  0.68377055  0.33103616  0.69515294  1
  In  In7  1  0.65795192  0.82261594  0.52106231  1
  In  In8  1  0.02531663  0.67141965  0.64614195  1
  In  In9  1  0.31171353  0.64578824  0.34384818  1
  In  In10  1  0.32839055  0.00281724  0.68277489  1
  In  In11  1  0.00913589  0.65411877  -0.00410013  1
  In  In12  1  0.00679701  0.51269112  0.80213126  1
  In  In13  1  0.02299931  0.14630935  0.49661404  1
  In  In14  1  0.66123107  0.33185766  0.35080041  1
  In  In15  1  0.86713238  0.49977520  0.31850541  1
  In  In16  1  0.51093968  -0.00076846  0.84138743  1
  In  In17  1  0.66850441  -0.00515490  0.35249554  1
  In  In18  1  0.44809776  0.01262020  0.14457018  1
  In  In19  1  -0.01281841  0.16178088  0.84439919  1
  In  In20  1  -0.01030727  0.81029711  0.15616110  1
  In  In21  1  0.69175849  0.63454041  0.35616990  1
  In  In22  1  0.01281020  -0.00393595  0.30779180  1
  In  In23  1  0.30033641  0.35754498  0.64181024  1
  In  In24  1  -0.00840223  0.31293145  0.01652185  1
  In  In25  1  0.30209441  0.80909431  0.84969394  1
  In  In26  1  0.84905585  0.34275929  0.84219687  1
  In  In27  1  0.29817875  0.85468253  0.45685157  1
  In  In28  1  0.00450649  0.69696064  0.34349089  1
  In  In29  1  0.70625063  0.30307312  0.02002458  1
  In  In30  1  0.17120634  0.15916185  -0.01671800  1
  In  In31  1  0.30953785  0.16238268  0.50887285  1
  In  In32  1  0.01140165  0.45778244  0.17484144  1
  In  In33  1  0.33411518  0.50415769  0.17249526  1
  In  In34  1  0.16439135  0.46170427  0.32735534  1
  In  In35  1  0.05297039  0.86612083  0.47083187  1
  In  In36  1  0.86010185  0.01891486  0.17799215  1
  In  In37  1  0.83002499  0.68210749  0.53011545  1
  In  In38  1  0.84754025  0.14055111  0.32977138  1
  In  In39  1  0.48803804  0.82358581  0.30301886  1
  In  In40  1  0.67009871  0.83491625  0.83769437  1
  In  In41  1  0.67077337  0.48947031  0.84791880  1
  In  In42  1  0.33568511  0.18822177  0.79989770  1
  In  In43  1  0.46220842  0.82479117  -0.00283181  1
  In  In44  1  0.31985215  0.53697466  0.83988291  1
  In  In45  1  0.51911451  0.15133755  0.35358627  1
  In  In46  1  0.03471040  0.35216542  0.64241889  1
  In  In47  1  0.30236145  0.85167708  0.17652603  1
  In  In48  1  0.50953310  0.31198268  0.18759540  1
  In  In49  1  0.66720906  0.66554455  -0.00010297  1
  In  In50  1  0.65850074  0.47852031  0.50767625  1
  In  In51  1  0.83641544  0.85222414  0.66560441  1
  In  In52  1  0.15540031  -0.00786766  0.81345140  1
  In  In53  1  0.02902179  0.52230444  0.50292740  1
  In  In54  1  0.16490874  0.00931527  0.15901820  1
  In  In55  1  0.68056019  0.02817120  0.66560293  1
  In  In56  1  0.32743344  0.67995141  0.64429218  1
  In  In57  1  0.84557424  0.84330950  -0.00056865  1
  In  In58  1  0.49259154  0.51670374  0.66133734  1
  In  In59  1  0.48955159  0.48622007  -0.02583159  1
  In  In60  1  0.65570398  -0.02674327  0.01159045  1
  In  In61  1  0.50885786  0.67457639  0.13975242  1
  In  In62  1  0.48326376  0.47632551  0.34288814  1
  In  In63  1  0.66415888  0.14252864  0.17356446  1
  In  In64  1  0.84426485  0.16505766  0.66527874  1
  In  In65  1  0.15705948  0.49213988  -0.02458456  1
  In  In66  1  0.68166706  0.84693247  0.17503156  1
  In  In67  1  0.33061724  0.30707960  0.00993067  1
  In  In68  1  0.86523969  0.33633811  0.51322418  1
  In  In69  1  0.47350980  0.83008660  0.67661296  1
  In  In70  1  0.50341263  0.00686863  0.51969277  1
  In  In71  1  0.14590007  0.66141785  0.16207332  1
  Te  Te72  1  0.07929969  0.10053112  0.08158999  1
  Te  Te73  1  0.10810757  0.07875143  0.38976980  1
  Te  Te74  1  0.07407055  0.09793142  0.73874240  1
  Te  Te75  1  0.10899649  0.39266010  0.07680494  1
  Te  Te76  1  0.05019512  0.40844808  0.40933083  1
  Te  Te77  1  0.10030417  0.40933371  0.75985034  1
  Te  Te78  1  0.09882320  0.76202356  0.05674862  1
  Te  Te79  1  0.11183787  0.73371025  0.43797857  1
  Te  Te80  1  0.09782016  0.77780561  0.71470879  1
  Te  Te81  1  0.36709189  0.11500539  0.08472164  1
  Te  Te82  1  0.40951837  0.07725226  0.42575879  1
  Te  Te83  1  0.43774244  0.08546288  0.74169193  1
  Te  Te84  1  0.42385682  0.40454744  0.09226847  1
  Te  Te85  1  0.43164984  0.38302041  0.44192806  1
  Te  Te86  1  0.40267854  0.43428590  0.75259736  1
  Te  Te87  1  0.38279367  0.74534640  0.09610526  1
  Te  Te88  1  0.40218448  0.75280573  0.40363776  1
  Te  Te89  1  0.40670350  0.73488218  0.76849252  1
  Te  Te90  1  0.75474703  0.06704532  0.08103072  1
  Te  Te91  1  0.74294807  0.09758927  0.42235996  1
  Te  Te92  1  0.77146085  0.08479465  0.76304518  1
  Te  Te93  1  0.75472004  0.41238669  0.10194170  1
  Te  Te94  1  0.77055760  0.42240248  0.42013574  1
  Te  Te95  1  0.77396974  0.43815185  0.75071061  1
  Te  Te96  1  0.75856070  0.75324589  0.08375328  1
  Te  Te97  1  0.75236347  0.75648807  0.42294755  1
  Te  Te98  1  0.75597149  0.75164327  0.74596717  1
  Te  Te99  1  0.05165515  0.34362192  0.26734148  1
  Te  Te100  1  0.10510565  0.25839212  0.55132032  1
  Te  Te101  1  0.08539531  0.25808629  0.90716444  1
  Te  Te102  1  0.07886333  0.57891819  0.26873313  1
  Te  Te103  1  0.13149192  0.56075857  0.60574516  1
  Te  Te104  1  0.10649650  0.60901851  0.88687507  1
  Te  Te105  1  0.08919116  0.89239424  0.23334465  1
  Te  Te106  1  0.11617397  0.95291966  0.57114205  1
  Te  Te107  1  0.05852779  0.93835924  0.90755215  1
  Te  Te108  1  0.41841094  0.22375028  0.26504551  1
  Te  Te109  1  0.38870570  0.24904812  0.59688528  1
  Te  Te110  1  0.42414281  0.24866222  0.90714041  1
  Te  Te111  1  0.43044684  0.59321695  0.24898246  1
  Te  Te112  1  0.40714152  0.58487634  0.56620915  1
  Te  Te113  1  0.39809141  0.59634012  0.94786195  1
  Te  Te114  1  0.39474086  0.93527963  0.26196658  1
  Te  Te115  1  0.39553407  0.90851561  0.57337084  1
  Te  Te116  1  0.39868658  0.92061626  0.90216882  1
  Te  Te117  1  0.73829303  0.23213549  0.26760051  1
  Te  Te118  1  0.75759573  0.25837740  0.58271521  1
  Te  Te119  1  0.77035759  0.23557076  0.90606165  1
  Te  Te120  1  0.76254018  0.57219368  0.24668148  1
  Te  Te121  1  0.73160099  0.58506426  0.58993903  1
  Te  Te122  1  0.76388837  0.58941242  0.91261748  1
  Te  Te123  1  0.77088107  0.92682709  0.26382995  1
  Te  Te124  1  0.74993878  0.93040767  0.56990862  1
  Te  Te125  1  0.76019369  0.93028104  0.90948635  1
  Te  Te126  1  0.25079814  0.21824132  0.09968804  1
  Te  Te127  1  0.21892240  0.25493970  0.43289068  1
  Te  Te128  1  0.23155184  0.26713272  0.73462209  1
  Te  Te129  1  0.23625352  0.57226783  0.08043505  1
  Te  Te130  1  0.25838698  0.53242889  0.42220832  1
  Te  Te131  1  0.24050600  0.59534794  0.73029247  1
  Te  Te132  1  0.26165767  0.94219229  0.06923155  1
  Te  Te133  1  0.22072726  0.95465712  0.38100974  1
  Te  Te134  1  0.24134753  0.89108204  0.73769600  1
  Te  Te135  1  0.58208191  0.23115202  0.08352116  1
  Te  Te136  1  0.56267563  0.26509122  0.43590443  1
  Te  Te137  1  0.59629474  0.23525878  0.75979577  1
  Te  Te138  1  0.58418631  0.56364318  0.07206519  1
  Te  Te139  1  0.57433615  0.57247021  0.42447470  1
  Te  Te140  1  0.57227868  0.57966963  0.77728413  1
  Te  Te141  1  0.55581480  0.89596070  0.09536003  1
  Te  Te142  1  0.56730909  0.89840528  0.41806356  1
  Te  Te143  1  0.58826812  0.91073520  0.73311285  1
  Te  Te144  1  0.89446327  0.24802961  0.10886995  1
  Te  Te145  1  0.92695055  0.23646419  0.41981722  1
  Te  Te146  1  0.93370515  0.26571236  0.73756942  1
  Te  Te147  1  0.93888387  0.57386125  0.09960562  1
  Te  Te148  1  0.91415041  0.59884786  0.43338804  1
  Te  Te149  1  0.92517281  0.60996915  0.73222364  1
  Te  Te150  1  0.93653504  0.93140863  0.07976666  1
  Te  Te151  1  0.93535022  0.92085897  0.40493897  1
  Te  Te152  1  0.91774006  0.92659910  0.76641743  1
  Te  Te153  1  0.22773936  0.07013881  0.27842012  1
  Te  Te154  1  0.23068832  0.06869917  0.59413091  1
  Te  Te155  1  0.25376090  0.08703198  0.87930106  1
  Te  Te156  1  0.26752263  0.39041525  0.24169004  1
  Te  Te157  1  0.22074962  0.44355551  0.55153454  1
  Te  Te158  1  0.27106406  0.41111185  0.91760615  1
  Te  Te159  1  0.23353180  0.74029783  0.25660576  1
  Te  Te160  1  0.23897865  0.75239711  0.54569346  1
  Te  Te161  1  0.19598081  0.73476535  0.91412438  1
  Te  Te162  1  0.57119853  0.04750543  0.24485646  1
  Te  Te163  1  0.59096404  0.10481406  0.57946034  1
  Te  Te164  1  0.57764666  0.07651323  0.94430242  1
  Te  Te165  1  0.59071139  0.42162933  0.25151095  1
  Te  Te166  1  0.57847873  0.40340850  0.60817508  1
  Te  Te167  1  0.59824948  0.38724600  0.92993411  1
  Te  Te168  1  0.60217300  0.73742280  0.24811349  1
  Te  Te169  1  0.55204234  0.73709486  0.58439287  1
  Te  Te170  1  0.57444078  0.75370361  0.91946406  1
  Te  Te171  1  0.94793482  0.13686831  0.21589651  1
  Te  Te172  1  0.91306377  0.07160151  0.56772612  1
  Te  Te173  1  0.91600032  0.17275020  0.97886088  1
  Te  Te174  1  0.89710021  0.37813957  0.23630375  1
  Te  Te175  1  0.92772865  0.44686930  0.59250812  1
  Te  Te176  1  0.93572547  0.43492970  0.92530353  1
  Te  Te177  1  0.90290207  0.74404618  0.25135085  1
  Te  Te178  1  0.93410573  0.78162709  0.57432973  1
  Te  Te179  1  0.91650109  0.74129639  0.91454813  1
