# generated using pymatgen
data_In2Te3
_symmetry_space_group_name_H-M   'P 1'
_cell_length_a   18.82874763
_cell_length_b   18.84536442
_cell_length_c   18.83932947
_cell_angle_alpha   90.06638205
_cell_angle_beta   90.04567109
_cell_angle_gamma   90.12131460
_symmetry_Int_Tables_number   1
_chemical_formula_structural   In2Te3
_chemical_formula_sum   'In72 Te108'
_cell_volume   6684.82453343
_cell_formula_units_Z   36
loop_
 _symmetry_equiv_pos_site_id
 _symmetry_equiv_pos_as_xyz
  1  'x, y, z'
loop_
 _atom_site_type_symbol
 _atom_site_label
 _atom_site_symmetry_multiplicity
 _atom_site_fract_x
 _atom_site_fract_y
 _atom_site_fract_z
 _atom_site_occupancy
  In  In0  1  -0.02249807  0.66281420  0.66740435  1
  In  In1  1  0.32537787  0.83721647  0.17071999  1
  In  In2  1  0.33426919  0.82056704  0.48846130  1
  In  In3  1  0.48457256  0.15453782  0.64944348  1
  In  In4  1  0.83768658  0.16696407  0.66901156  1
  In  In5  1  0.52244302  0.81865339  0.64984763  1
  In  In6  1  -0.00101272  0.00432046  0.34911479  1
  In  In7  1  0.81462552  0.69038053  0.81540631  1
  In  In8  1  0.83995337  0.15443023  0.33914324  1
  In  In9  1  0.68526743  0.51094697  0.16748046  1
  In  In10  1  0.47576588  0.68004844  0.19780379  1
  In  In11  1  0.49704199  0.84429676  -0.01884615  1
  In  In12  1  0.49697648  0.81795967  0.34290501  1
  In  In13  1  0.29470321  0.33188799  0.30230650  1
  In  In14  1  0.67737415  0.50984661  0.49878347  1
  In  In15  1  0.84660862  0.18279324  0.00708694  1
  In  In16  1  0.29738212  0.63801886  0.02513920  1
  In  In17  1  0.16776214  0.66242389  0.84479710  1
  In  In18  1  0.32083098  0.00260997  0.67320907  1
  In  In19  1  0.33358163  0.48592305  0.82836207  1
  In  In20  1  0.84063453  0.31615114  0.50743031  1
  In  In21  1  0.64169344  0.51735467  0.84088723  1
  In  In22  1  0.65242385  0.31604523  0.33497028  1
  In  In23  1  0.85635297  0.49253797  -0.00794209  1
  In  In24  1  0.02361812  0.64860904  0.32852005  1
  In  In25  1  -0.01662984  0.81828552  0.17001946  1
  In  In26  1  0.18460118  0.34422952  0.49151557  1
  In  In27  1  0.84734871  0.00761962  0.16115875  1
  In  In28  1  0.48169593  0.17337510  0.33624312  1
  In  In29  1  0.82456391  0.00289087  0.83177632  1
  In  In30  1  0.87039788  0.49042520  0.32153194  1
  In  In31  1  0.67887977  0.00081773  0.32787419  1
  In  In32  1  0.64230534  0.68656871  0.00466785  1
  In  In33  1  0.30396917  0.30857882  0.01045627  1
  In  In34  1  0.65926233  0.34932548  -0.00380523  1
  In  In35  1  0.66168555  0.34431366  0.67704394  1
  In  In36  1  0.49323257  0.01118299  0.48554049  1
  In  In37  1  0.65956477  0.85645774  0.17542921  1
  In  In38  1  0.02667295  0.31450999  0.69750172  1
  In  In39  1  0.48813385  0.48311301  0.00150977  1
  In  In40  1  0.35853611  0.84225074  0.81240951  1
  In  In41  1  0.46678299  0.03921056  0.11916700  1
  In  In42  1  0.83434436  0.86120626  0.00366551  1
  In  In43  1  0.00809906  0.84522896  0.85121945  1
  In  In44  1  0.83316908  0.70385232  0.50253902  1
  In  In45  1  0.01152569  0.48652328  0.51276222  1
  In  In46  1  0.83391164  0.50905394  0.69679376  1
  In  In47  1  0.32737897  0.64452193  0.36386224  1
  In  In48  1  0.16777804  0.84818096  -0.01387656  1
  In  In49  1  0.01729096  -0.01052360  0.67724745  1
  In  In50  1  0.49679018  0.50215239  0.33822104  1
  In  In51  1  0.83725917  0.65452719  0.17747822  1
  In  In52  1  0.17337012  0.84432052  0.64954323  1
  In  In53  1  0.46654886  0.52404668  0.65248408  1
  In  In54  1  0.05241085  0.33559913  0.29119244  1
  In  In55  1  0.66176225  0.15879556  0.83242305  1
  In  In56  1  0.48403473  0.32065782  0.49539005  1
  In  In57  1  0.81854719  -0.04071638  0.51027799  1
  In  In58  1  0.16153419  0.81886768  0.34033179  1
  In  In59  1  0.03104779  0.32866351  0.02031049  1
  In  In60  1  0.15383245  0.02613803  0.15717906  1
  In  In61  1  0.49290391  0.01590627  0.82091477  1
  In  In62  1  0.00193260  0.14857026  0.47330512  1
  In  In63  1  0.33321685  -0.00721053  0.31836702  1
  In  In64  1  0.18640100  0.18520699  0.66624932  1
  In  In65  1  0.02140780  0.66480200  0.00645083  1
  In  In66  1  0.67427010  0.16950139  0.16337044  1
  In  In67  1  0.18616927  0.49119645  0.65035286  1
  In  In68  1  -0.00420307  0.17464875  0.83180248  1
  In  In69  1  0.48857492  0.32801412  0.13433595  1
  In  In70  1  0.50121726  0.66723360  0.81538195  1
  In  In71  1  0.16147787  0.34030699  0.83325498  1
  Te  Te72  1  0.09673811  0.13633908  0.07310236  1
  Te  Te73  1  0.11195128  0.08807042  0.39716953  1
  Te  Te74  1  0.09790877  0.09256026  0.75397159  1
  Te  Te75  1  0.12478146  0.41407971  0.10289028  1
  Te  Te76  1  0.10036505  0.43508803  0.40261180  1
  Te  Te77  1  0.08116062  0.44350186  0.75158168  1
  Te  Te78  1  0.10199442  0.75968186  0.09390660  1
  Te  Te79  1  0.09188429  0.72776051  0.43171573  1
  Te  Te80  1  0.08109858  0.75125428  0.75537341  1
  Te  Te81  1  0.37810105  0.13870552  0.03431483  1
  Te  Te82  1  0.38417027  0.09608864  0.42283656  1
  Te  Te83  1  0.38790955  0.10696440  0.76165848  1
  Te  Te84  1  0.38081263  0.42452504  0.08975962  1
  Te  Te85  1  0.40136382  0.39987230  0.39663148  1
  Te  Te86  1  0.43109871  0.41487600  0.74476132  1
  Te  Te87  1  0.41635639  0.74981467  0.07589347  1
  Te  Te88  1  0.43942700  0.71919104  0.44258639  1
  Te  Te89  1  0.40921166  0.73620269  0.71551516  1
  Te  Te90  1  0.75017299  0.07727301  0.06925779  1
  Te  Te91  1  0.75190316  0.08002623  0.43642967  1
  Te  Te92  1  0.73572159  0.07161246  0.72890740  1
  Te  Te93  1  0.76559449  0.41080733  0.08704713  1
  Te  Te94  1  0.75441100  0.40419402  0.41290072  1
  Te  Te95  1  0.74477154  0.41973111  0.78067298  1
  Te  Te96  1  0.75244506  0.75300661  0.09319886  1
  Te  Te97  1  0.71986095  0.77411995  0.43932628  1
  Te  Te98  1  0.73447570  0.76403631  0.71860742  1
  Te  Te99  1  0.11515109  0.21506151  0.23116749  1
  Te  Te100  1  0.07218326  0.25357516  0.56792547  1
  Te  Te101  1  0.10749502  0.22624864  0.92093156  1
  Te  Te102  1  0.11074718  0.56996936  0.23951435  1
  Te  Te103  1  0.08797286  0.59434273  0.58763672  1
  Te  Te104  1  0.09389239  0.56467288  0.92641610  1
  Te  Te105  1  0.08702376  0.91073917  0.24353381  1
  Te  Te106  1  0.08374281  0.92365770  0.56399354  1
  Te  Te107  1  0.08655762  0.95071324  0.91816101  1
  Te  Te108  1  0.40235413  0.24675537  0.23028870  1
  Te  Te109  1  0.38855804  0.24720858  0.58138678  1
  Te  Te110  1  0.42249578  0.25220018  0.94378256  1
  Te  Te111  1  0.39278013  0.56479701  0.24439208  1
  Te  Te112  1  0.37334079  0.56867250  0.54515367  1
  Te  Te113  1  0.41742693  0.59263419  0.91925383  1
  Te  Te114  1  0.44055595  0.91703026  0.23824347  1
  Te  Te115  1  0.41497733  0.91770634  0.58350436  1
  Te  Te116  1  0.39114013  0.94333113  0.92674851  1
  Te  Te117  1  0.76439200  0.25462579  0.25066135  1
  Te  Te118  1  0.73358842  0.24322791  0.58629235  1
  Te  Te119  1  0.74908091  0.25521544  0.91499172  1
  Te  Te120  1  0.75277466  0.58276872  0.28311763  1
  Te  Te121  1  0.76574877  0.59216164  0.59154432  1
  Te  Te122  1  0.73993260  0.58966798  0.93428041  1
  Te  Te123  1  0.77828184  0.91039139  0.25578737  1
  Te  Te124  1  0.74019896  0.87501092  0.60726870  1
  Te  Te125  1  0.73468597  0.91829848  0.91385275  1
  Te  Te126  1  0.20698455  0.24270618  0.10858423  1
  Te  Te127  1  0.23857544  0.23955899  0.40282195  1
  Te  Te128  1  0.26599206  0.26017588  0.76557046  1
  Te  Te129  1  0.19289661  0.56895404  0.10522404  1
  Te  Te130  1  0.25334014  0.55321317  0.45031162  1
  Te  Te131  1  0.25859126  0.58886332  0.74591842  1
  Te  Te132  1  0.25845741  0.93796565  0.07886680  1
  Te  Te133  1  0.24394959  0.92101868  0.41870984  1
  Te  Te134  1  0.23508773  0.91865195  0.76821383  1
  Te  Te135  1  0.58191634  0.23327833  0.06050925  1
  Te  Te136  1  0.58709711  0.22336833  0.43518964  1
  Te  Te137  1  0.57013687  0.24397784  0.74512940  1
  Te  Te138  1  0.57054453  0.58215500  0.09345050  1
  Te  Te139  1  0.58265018  0.59008009  0.41920919  1
  Te  Te140  1  0.58940596  0.59072071  0.71745796  1
  Te  Te141  1  0.57848457  0.93399674  0.07512942  1
  Te  Te142  1  0.59079175  0.91368036  0.41820716  1
  Te  Te143  1  0.57408840  0.91846853  0.74508136  1
  Te  Te144  1  0.92643332  0.26103703  0.10338717  1
  Te  Te145  1  0.93475578  0.26786266  0.39748263  1
  Te  Te146  1  0.89715152  0.26916800  0.76425800  1
  Te  Te147  1  0.93595280  0.57318491  0.09666411  1
  Te  Te148  1  0.91442713  0.57819283  0.43782819  1
  Te  Te149  1  0.92477468  0.58739818  0.78973094  1
  Te  Te150  1  0.94847008  0.93277969  0.07492968  1
  Te  Te151  1  0.91725223  0.90195103  0.41666742  1
  Te  Te152  1  0.91179426  0.90724219  0.75052869  1
  Te  Te153  1  0.26532285  0.09156773  0.23203989  1
  Te  Te154  1  0.22885629  0.07282433  0.58223275  1
  Te  Te155  1  0.28379601  0.05382795  0.95300764  1
  Te  Te156  1  0.21041503  0.43518346  0.23249623  1
  Te  Te157  1  0.27272748  0.37787174  0.60781197  1
  Te  Te158  1  0.24055678  0.42729089  0.93126940  1
  Te  Te159  1  0.25649685  0.73441516  0.25531291  1
  Te  Te160  1  0.24809238  0.74069205  0.57730930  1
  Te  Te161  1  0.26972526  0.75492033  0.91545927  1
  Te  Te162  1  0.57809191  0.08576832  0.24864574  1
  Te  Te163  1  0.58368411  0.06407302  0.58884415  1
  Te  Te164  1  0.57867774  0.07849171  0.92438509  1
  Te  Te165  1  0.58306696  0.40873524  0.23470294  1
  Te  Te166  1  0.57602846  0.41818031  0.57237863  1
  Te  Te167  1  0.55652623  0.40037577  0.89485037  1
  Te  Te168  1  0.60081319  0.74145327  0.25738133  1
  Te  Te169  1  0.63193770  0.75802672  0.56436367  1
  Te  Te170  1  0.59127576  0.76828306  0.88708511  1
  Te  Te171  1  0.94016540  0.09644280  0.24088722  1
  Te  Te172  1  0.91952817  0.07401065  0.58025050  1
  Te  Te173  1  0.92105995  0.07862268  0.92260395  1
  Te  Te174  1  0.94025401  0.40691780  0.22265857  1
  Te  Te175  1  0.91147199  0.41183466  0.60375966  1
  Te  Te176  1  0.94366656  0.39807235  0.92212587  1
  Te  Te177  1  0.91136818  0.74143024  0.27917385  1
  Te  Te178  1  0.92777225  0.77739266  0.59013089  1
  Te  Te179  1  0.91074185  0.74714506  0.93366265  1
