# generated using pymatgen
data_In2Te3
_symmetry_space_group_name_H-M   'P 1'
_cell_length_a   19.02096448
_cell_length_b   19.00776976
_cell_length_c   19.00536978
_cell_angle_alpha   89.89509667
_cell_angle_beta   89.83667786
_cell_angle_gamma   89.91306945
_symmetry_Int_Tables_number   1
_chemical_formula_structural   In2Te3
_chemical_formula_sum   'In72 Te108'
_cell_volume   6871.27029091
_cell_formula_units_Z   36
loop_
 _symmetry_equiv_pos_site_id
 _symmetry_equiv_pos_as_xyz
  1  'x, y, z'
loop_
 _atom_site_type_symbol
 _atom_site_label
 _atom_site_symmetry_multiplicity
 _atom_site_fract_x
 _atom_site_fract_y
 _atom_site_fract_z
 _atom_site_occupancy
  In  In0  1  0.02764717  0.01184324  0.29882657  1
  In  In1  1  0.16755858  0.67341505  0.16695153  1
  In  In2  1  0.67731643  0.50657282  0.47973417  1
  In  In3  1  0.00250994  0.34273579  -0.01068270  1
  In  In4  1  0.33915221  0.67325812  0.67784982  1
  In  In5  1  0.00035285  0.51123484  0.81023439  1
  In  In6  1  0.64487036  0.84184860  0.16794540  1
  In  In7  1  0.31912836  0.85285293  0.84780863  1
  In  In8  1  0.84071230  0.50781719  0.00583659  1
  In  In9  1  0.49669622  0.31143260  0.47260066  1
  In  In10  1  0.79466479  0.30255896  0.85125358  1
  In  In11  1  0.68459285  0.55449776  0.84678771  1
  In  In12  1  0.83303148  0.84439030  -0.01208782  1
  In  In13  1  0.82855164  0.84022781  0.37223915  1
  In  In14  1  0.66629709  0.17754937  0.15740264  1
  In  In15  1  0.32098306  0.48026866  0.15703585  1
  In  In16  1  0.33511124  0.49387416  0.52584176  1
  In  In17  1  0.82549932  0.66467012  0.50253408  1
  In  In18  1  0.67239670  0.00972831  0.68391501  1
  In  In19  1  0.16130462  0.32954560  0.48743297  1
  In  In20  1  0.68141156  -0.01525548  -0.02109061  1
  In  In21  1  0.15466556  0.81793244  0.35532888  1
  In  In22  1  0.12351022  0.52630781  0.41532536  1
  In  In23  1  0.51680058  0.32429847  0.83497171  1
  In  In24  1  0.50594102  0.49513518  -0.00526989  1
  In  In25  1  0.13882266  0.82528511  -0.01243396  1
  In  In26  1  0.68162363  0.02951347  0.34934327  1
  In  In27  1  0.84160528  -0.01286026  0.15787444  1
  In  In28  1  0.17846459  0.49710835  -0.02637717  1
  In  In29  1  0.83600252  0.35341047  0.50566938  1
  In  In30  1  0.52283259  0.83143178  0.69882304  1
  In  In31  1  0.51696774  0.48546943  0.32680951  1
  In  In32  1  0.18199246  0.02701894  0.82200925  1
  In  In33  1  0.51163105  0.84380683  -0.03449176  1
  In  In34  1  -0.03256504  0.83764541  0.52273960  1
  In  In35  1  0.34305144  0.31466776  0.30304796  1
  In  In36  1  0.36062767  0.64704272  0.34733605  1
  In  In37  1  0.85069979  0.16442836  0.67271425  1
  In  In38  1  0.82441637  0.65510856  0.15387674  1
  In  In39  1  0.33464363  0.83935603  0.16612311  1
  In  In40  1  -0.00567687  0.17448515  0.13926568  1
  In  In41  1  0.50973378  0.67262719  0.13771262  1
  In  In42  1  0.18635725  0.12018973  0.19047604  1
  In  In43  1  0.00242036  0.33579965  0.65485509  1
  In  In44  1  0.33477703  0.17078835  0.50350016  1
  In  In45  1  0.81799393  -0.01166070  0.53215434  1
  In  In46  1  -0.02552867  0.84711202  0.14875110  1
  In  In47  1  0.20095382  0.26051739  0.81929515  1
  In  In48  1  0.65538421  0.48805412  0.16529786  1
  In  In49  1  -0.01140181  0.67070122  0.33640620  1
  In  In50  1  -0.00484342  0.14479426  0.85209258  1
  In  In51  1  0.51422976  0.15077891  0.00853435  1
  In  In52  1  0.52287192  0.49457888  0.68327756  1
  In  In53  1  0.31835732  0.83433693  0.51744417  1
  In  In54  1  0.32875956  0.00875287  0.00948606  1
  In  In55  1  0.34002372  0.03239649  0.67747509  1
  In  In56  1  0.65249648  0.84757364  0.52172958  1
  In  In57  1  0.35543502  0.49988240  0.83393768  1
  In  In58  1  0.50369235  0.02050849  0.52944584  1
  In  In59  1  0.14976888  0.49931574  0.64616898  1
  In  In60  1  0.13972430  -0.02194260  0.49942190  1
  In  In61  1  0.83202357  0.32634920  0.15369440  1
  In  In62  1  0.50283657  0.16180333  0.32363072  1
  In  In63  1  0.65680471  0.32347320  0.66614131  1
  In  In64  1  -0.01171385  0.16844459  0.50257583  1
  In  In65  1  0.14842981  0.67289376  0.82759405  1
  In  In66  1  0.33636848  0.31954786  0.01873473  1
  In  In67  1  0.16835633  0.33140067  0.17543355  1
  In  In68  1  0.82601476  0.48373667  0.29950589  1
  In  In69  1  0.46951131  0.85422942  0.33592758  1
  In  In70  1  -0.01843619  0.84317329  0.82887617  1
  In  In71  1  0.82713958  0.52748172  0.68941861  1
  Te  Te72  1  0.08914054  0.07344315  0.09143103  1
  Te  Te73  1  0.08660584  0.09073569  0.41268549  1
  Te  Te74  1  0.07788680  0.09454329  0.74349445  1
  Te  Te75  1  0.09652766  0.42195011  0.07744666  1
  Te  Te76  1  0.05247729  0.39699648  0.41364269  1
  Te  Te77  1  0.09299574  0.40456348  0.75597017  1
  Te  Te78  1  0.05955482  0.73777520  0.08336096  1
  Te  Te79  1  0.06289551  0.74281903  0.44647597  1
  Te  Te80  1  0.07813057  0.76776603  0.74255819  1
  Te  Te81  1  0.41088071  0.09402098  0.09869598  1
  Te  Te82  1  0.41888892  0.07707869  0.41888149  1
  Te  Te83  1  0.44230654  0.12513655  0.72768052  1
  Te  Te84  1  0.43539855  0.40417649  0.09464873  1
  Te  Te85  1  0.39888830  0.41820796  0.40894643  1
  Te  Te86  1  0.41979579  0.39990445  0.74135113  1
  Te  Te87  1  0.41879547  0.76695211  0.06302849  1
  Te  Te88  1  0.42112006  0.75231996  0.43679676  1
  Te  Te89  1  0.41437581  0.75718431  0.77766981  1
  Te  Te90  1  0.75136653  0.07575944  0.07770229  1
  Te  Te91  1  0.79098121  0.08492378  0.42682325  1
  Te  Te92  1  0.77095468  0.08515439  0.77144287  1
  Te  Te93  1  0.74212472  0.41212422  0.06672528  1
  Te  Te94  1  0.74249924  0.40049344  0.39499288  1
  Te  Te95  1  0.75070534  0.40740126  0.74847669  1
  Te  Te96  1  0.74387556  0.76358076  0.08472552  1
  Te  Te97  1  0.72515924  0.74763677  0.42417950  1
  Te  Te98  1  0.70051877  0.69722493  0.79103780  1
  Te  Te99  1  0.08442546  0.23139427  0.24695418  1
  Te  Te100  1  0.09425234  0.23627323  0.58844769  1
  Te  Te101  1  0.09226452  0.23894868  0.92440648  1
  Te  Te102  1  0.09750577  0.58888992  0.27064303  1
  Te  Te103  1  0.07281184  0.57135162  0.54645381  1
  Te  Te104  1  0.06803948  0.58621838  0.92317030  1
  Te  Te105  1  0.09142152  0.88914075  0.23816179  1
  Te  Te106  1  0.06948183  0.90480784  0.60445923  1
  Te  Te107  1  0.08766146  0.93127809  0.89666806  1
  Te  Te108  1  0.41252705  0.21656722  0.21863433  1
  Te  Te109  1  0.42436636  0.25255700  0.58533377  1
  Te  Te110  1  0.42520595  0.24247904  0.92410293  1
  Te  Te111  1  0.42133810  0.57905068  0.22367305  1
  Te  Te112  1  0.43144255  0.58395116  0.59686700  1
  Te  Te113  1  0.41412140  0.58926703  0.93143842  1
  Te  Te114  1  0.40085373  0.94963856  0.24266650  1
  Te  Te115  1  0.42459864  0.91198908  0.59638254  1
  Te  Te116  1  0.42171519  0.94899859  0.90265495  1
  Te  Te117  1  0.76213254  0.23953165  0.24771847  1
  Te  Te118  1  0.76032403  0.24825788  0.58407523  1
  Te  Te119  1  0.69444377  0.22551784  0.92638645  1
  Te  Te120  1  0.72825842  0.59013271  0.25078137  1
  Te  Te121  1  0.72718543  0.59046714  0.59573051  1
  Te  Te122  1  0.80262371  0.61981610  0.91439266  1
  Te  Te123  1  0.74785681  0.91346988  0.25806683  1
  Te  Te124  1  0.75415792  0.89071893  0.62531867  1
  Te  Te125  1  0.73783952  0.88674849  0.87864635  1
  Te  Te126  1  0.24049278  0.22998888  0.09130768  1
  Te  Te127  1  0.25093773  0.24221508  0.39877840  1
  Te  Te128  1  0.30085842  0.18282587  0.73893841  1
  Te  Te129  1  0.25142094  0.58663346  0.07462918  1
  Te  Te130  1  0.25844006  0.59679764  0.44555756  1
  Te  Te131  1  0.24282803  0.56934812  0.75224285  1
  Te  Te132  1  0.23665641  0.90651886  0.07302578  1
  Te  Te133  1  0.25415497  0.91820877  0.40807603  1
  Te  Te134  1  0.25028993  0.92247864  0.73509733  1
  Te  Te135  1  0.60227794  0.26370781  0.05279600  1
  Te  Te136  1  0.59782101  0.22374137  0.41642584  1
  Te  Te137  1  0.57748947  0.22443831  0.74219365  1
  Te  Te138  1  0.60708396  0.59013608  0.05989378  1
  Te  Te139  1  0.57190435  0.58468688  0.41556959  1
  Te  Te140  1  0.56394252  0.60442739  0.77310099  1
  Te  Te141  1  0.57079861  0.93161981  0.07396077  1
  Te  Te142  1  0.58158903  0.92640651  0.41124504  1
  Te  Te143  1  0.56511951  0.95283260  0.76670982  1
  Te  Te144  1  0.90073379  0.24454413  0.04329191  1
  Te  Te145  1  0.93135355  0.27736778  0.42031218  1
  Te  Te146  1  0.92305776  0.26191275  0.76472864  1
  Te  Te147  1  0.92890509  0.56187472  0.11119759  1
  Te  Te148  1  0.89540520  0.57361958  0.40403077  1
  Te  Te149  1  0.93686303  0.61706175  0.72887246  1
  Te  Te150  1  0.93417250  0.94634871  0.04455497  1
  Te  Te151  1  0.94242941  0.93070375  0.40158667  1
  Te  Te152  1  0.88833306  0.95676385  0.79736800  1
  Te  Te153  1  0.26245820  0.01952769  0.26260286  1
  Te  Te154  1  0.24344992  0.06998379  0.56865391  1
  Te  Te155  1  0.27007489  0.10432354  0.91079739  1
  Te  Te156  1  0.23948043  0.42497573  0.27033797  1
  Te  Te157  1  0.24714814  0.39338583  0.59573229  1
  Te  Te158  1  0.26263294  0.39069761  0.90512356  1
  Te  Te159  1  0.26522415  0.74316323  0.26730788  1
  Te  Te160  1  0.23898570  0.74446263  0.59994854  1
  Te  Te161  1  0.24555475  0.74140869  0.92091886  1
  Te  Te162  1  0.59068492  0.07123973  0.23768190  1
  Te  Te163  1  0.62100219  0.09294130  0.57344752  1
  Te  Te164  1  0.60893263  0.09484053  0.90533134  1
  Te  Te165  1  0.58304294  0.38775207  0.24381521  1
  Te  Te166  1  0.58300780  0.41182367  0.56466718  1
  Te  Te167  1  0.60172156  0.43236209  0.89655443  1
  Te  Te168  1  0.55733946  0.75536444  0.25495234  1
  Te  Te169  1  0.58103956  0.74509207  0.59643591  1
  Te  Te170  1  0.62650000  0.77239107  0.90513713  1
  Te  Te171  1  0.91264591  0.09065487  0.24106916  1
  Te  Te172  1  0.93195019  0.06155294  0.59755686  1
  Te  Te173  1  0.87703038  0.06863772  0.89648062  1
  Te  Te174  1  0.92860973  0.41846068  0.21714631  1
  Te  Te175  1  0.91666540  0.44359051  0.59459877  1
  Te  Te176  1  0.90962546  0.42275647  0.89890428  1
  Te  Te177  1  0.89801522  0.75916239  0.25215919  1
  Te  Te178  1  0.89361962  0.74165818  0.60753027  1
  Te  Te179  1  0.92010673  0.74394921  0.92312747  1
