# generated using pymatgen
data_In2Te3
_symmetry_space_group_name_H-M   'P 1'
_cell_length_a   18.77851836
_cell_length_b   18.77736422
_cell_length_c   18.78332850
_cell_angle_alpha   90.06511517
_cell_angle_beta   90.04779746
_cell_angle_gamma   89.92374316
_symmetry_Int_Tables_number   1
_chemical_formula_structural   In2Te3
_chemical_formula_sum   'In72 Te108'
_cell_volume   6623.19728464
_cell_formula_units_Z   36
loop_
 _symmetry_equiv_pos_site_id
 _symmetry_equiv_pos_as_xyz
  1  'x, y, z'
loop_
 _atom_site_type_symbol
 _atom_site_label
 _atom_site_symmetry_multiplicity
 _atom_site_fract_x
 _atom_site_fract_y
 _atom_site_fract_z
 _atom_site_occupancy
  In  In0  1  0.85059330  0.18428089  -0.00811043  1
  In  In1  1  0.00135065  0.83976449  0.82314407  1
  In  In2  1  0.49382503  0.18116187  0.36728684  1
  In  In3  1  0.33333000  0.02022177  0.67249054  1
  In  In4  1  0.17508298  0.32821663  0.81600635  1
  In  In5  1  0.03285636  0.33402681  0.34031336  1
  In  In6  1  0.66820385  0.35801942  -0.00907027  1
  In  In7  1  0.17112821  0.50275106  0.34193506  1
  In  In8  1  0.49295586  0.02328489  0.50760123  1
  In  In9  1  0.85161568  0.81185652  0.32585585  1
  In  In10  1  0.01422796  0.33858136  0.65859880  1
  In  In11  1  0.65942441  0.01836649  0.66218560  1
  In  In12  1  0.84626161  0.66251719  0.49442953  1
  In  In13  1  0.01891283  0.65745184  0.63929072  1
  In  In14  1  0.01209225  0.18850711  0.17714523  1
  In  In15  1  0.14149709  0.47153965  0.00771413  1
  In  In16  1  0.17096791  0.82099315  0.65489634  1
  In  In17  1  0.17514243  0.19025340  -0.01106731  1
  In  In18  1  0.31822139  0.33449402  0.37891181  1
  In  In19  1  0.80763541  0.02339123  0.50597741  1
  In  In20  1  0.00823145  0.17388856  0.50051853  1
  In  In21  1  0.65809204  0.83106109  0.85733940  1
  In  In22  1  0.82044604  0.65878972  0.83337977  1
  In  In23  1  0.64367342  0.49690849  0.49951082  1
  In  In24  1  0.64344669  0.32910742  0.36176711  1
  In  In25  1  0.17911736  0.67332894  0.18525090  1
  In  In26  1  0.65570411  0.82746048  0.50744259  1
  In  In27  1  0.49956911  0.66511638  0.15790409  1
  In  In28  1  0.50598100  0.83113817  0.65705472  1
  In  In29  1  0.18384609  0.65095368  0.51143757  1
  In  In30  1  0.34727768  0.61924791  0.64262231  1
  In  In31  1  0.02697705  -0.01446924  0.34796866  1
  In  In32  1  0.66376267  0.17007130  0.17868151  1
  In  In33  1  0.66955359  0.79520130  0.16097459  1
  In  In34  1  0.32106151  0.00463042  -0.00821783  1
  In  In35  1  0.33545718  0.48764425  0.16724693  1
  In  In36  1  0.34297794  0.19352625  0.82439531  1
  In  In37  1  0.32609868  0.48268942  0.79389038  1
  In  In38  1  0.31024548  0.16682376  0.15816914  1
  In  In39  1  -0.00144523  0.81959924  0.49647277  1
  In  In40  1  0.32930612  0.84738470  0.83162709  1
  In  In41  1  0.84819729  0.48427007  0.66341817  1
  In  In42  1  0.34869264  0.66718466  0.00069849  1
  In  In43  1  0.16507617  0.01524789  0.49720935  1
  In  In44  1  0.46638670  0.01479829  0.84062203  1
  In  In45  1  0.65092664  0.50695329  0.83821197  1
  In  In46  1  0.18580145  0.83983329  0.33460402  1
  In  In47  1  0.84434490  0.31591974  0.16349484  1
  In  In48  1  0.64984859  0.66824324  0.67902303  1
  In  In49  1  0.48340902  0.34097505  0.16051192  1
  In  In50  1  0.45590286  0.80702949  0.35585928  1
  In  In51  1  0.81837700  0.82828610  0.00445944  1
  In  In52  1  0.63626976  0.31171439  0.66896039  1
  In  In53  1  0.83924479  -0.01488316  0.15230358  1
  In  In54  1  0.68549180  0.00486514  0.35663568  1
  In  In55  1  0.84371197  0.13979042  0.36211828  1
  In  In56  1  0.02655777  0.03362425  0.70797399  1
  In  In57  1  0.50248539  0.67505883  0.83720130  1
  In  In58  1  0.66712993  0.53639086  0.16689051  1
  In  In59  1  0.01246632  0.47729420  0.84130606  1
  In  In60  1  0.49713784  -0.03361764  0.18478959  1
  In  In61  1  0.81857580  0.18074271  0.66774156  1
  In  In62  1  0.85079315  0.33998897  0.83996629  1
  In  In63  1  0.65433621  0.00021337  -0.01572255  1
  In  In64  1  -0.00964355  0.00955371  -0.01433375  1
  In  In65  1  -0.00812280  0.63259604  0.01532859  1
  In  In66  1  0.47701877  0.17298094  -0.02178259  1
  In  In67  1  0.50061797  0.49351530  0.33144878  1
  In  In68  1  0.16815662  -0.00268645  0.18034006  1
  In  In69  1  0.82910320  0.49307433  0.32188776  1
  In  In70  1  0.17098172  0.82793556  0.00000248  1
  In  In71  1  -0.00602435  0.65274831  0.31146585  1
  Te  Te72  1  0.09113982  0.08681212  0.07940762  1
  Te  Te73  1  0.09868555  0.10926308  0.39353892  1
  Te  Te74  1  0.11300782  0.12129195  0.78622876  1
  Te  Te75  1  0.05178908  0.39664463  0.09540872  1
  Te  Te76  1  0.10163849  0.41829129  0.44357516  1
  Te  Te77  1  0.10739880  0.43716195  0.72971762  1
  Te  Te78  1  0.08303556  0.73732793  0.08446266  1
  Te  Te79  1  0.08815212  0.73347029  0.40904816  1
  Te  Te80  1  0.08988207  0.73579198  0.75084195  1
  Te  Te81  1  0.42553642  0.07649162  0.08781861  1
  Te  Te82  1  0.39064068  0.09697723  0.43000702  1
  Te  Te83  1  0.44567962  0.11889047  0.72624094  1
  Te  Te84  1  0.42629806  0.43443931  0.06240307  1
  Te  Te85  1  0.41876863  0.42854662  0.44156794  1
  Te  Te86  1  0.41215902  0.39435562  0.70410520  1
  Te  Te87  1  0.41162878  0.76484064  0.09126597  1
  Te  Te88  1  0.39295740  0.70300169  0.44138619  1
  Te  Te89  1  0.40571060  0.74831970  0.73972536  1
  Te  Te90  1  0.75135244  0.08964018  0.07916167  1
  Te  Te91  1  0.71383694  0.12699374  0.44370736  1
  Te  Te92  1  0.75227038  0.08386383  0.75631713  1
  Te  Te93  1  0.75632761  0.42250147  0.09698122  1
  Te  Te94  1  0.75170745  0.41376879  0.42822894  1
  Te  Te95  1  0.74649282  0.41465388  0.75376778  1
  Te  Te96  1  0.75706397  0.71322775  0.07429433  1
  Te  Te97  1  0.74568179  0.74552083  0.41378938  1
  Te  Te98  1  0.74522041  0.76377246  0.75027777  1
  Te  Te99  1  0.12159118  0.25130147  0.25335775  1
  Te  Te100  1  0.11095429  0.25232838  0.57808393  1
  Te  Te101  1  0.07423805  0.24246785  0.88930554  1
  Te  Te102  1  0.08475193  0.56139753  0.22991790  1
  Te  Te103  1  0.08961611  0.54944794  0.56549899  1
  Te  Te104  1  0.09491395  0.58398748  0.91330963  1
  Te  Te105  1  0.07315137  0.89102000  0.24073836  1
  Te  Te106  1  0.07544969  0.91995454  0.58269283  1
  Te  Te107  1  0.09501753  0.92487349  0.90990633  1
  Te  Te108  1  0.40821170  0.25638209  0.26228156  1
  Te  Te109  1  0.37720386  0.28031829  0.59285271  1
  Te  Te110  1  0.42051084  0.29052485  0.90768762  1
  Te  Te111  1  0.40832708  0.58756286  0.25449650  1
  Te  Te112  1  0.42236106  0.56819425  0.52637524  1
  Te  Te113  1  0.40777491  0.57178054  0.89700910  1
  Te  Te114  1  0.39569977  0.92047227  0.28120460  1
  Te  Te115  1  0.40806065  0.91946750  0.58139579  1
  Te  Te116  1  0.42504636  0.90326365  0.93634150  1
  Te  Te117  1  0.75728088  0.24711631  0.27001823  1
  Te  Te118  1  0.75212584  0.27965767  0.58202719  1
  Te  Te119  1  0.74401753  0.25417093  0.90641057  1
  Te  Te120  1  0.75826795  0.60689110  0.25951784  1
  Te  Te121  1  0.74991822  0.58763964  0.59226277  1
  Te  Te122  1  0.73137069  0.59213622  0.93052593  1
  Te  Te123  1  0.74211413  0.91263156  0.24531920  1
  Te  Te124  1  0.74817558  0.91204123  0.59283268  1
  Te  Te125  1  0.76576553  0.93114122  0.90502296  1
  Te  Te126  1  0.25875872  0.27572267  0.07440717  1
  Te  Te127  1  0.23186190  0.26377562  0.47604820  1
  Te  Te128  1  0.26272991  0.25891126  0.71277361  1
  Te  Te129  1  0.24492792  0.57832954  0.07799989  1
  Te  Te130  1  0.27567301  0.58788659  0.40893787  1
  Te  Te131  1  0.23792747  0.58789887  0.73475767  1
  Te  Te132  1  0.26038751  0.90926742  0.09387845  1
  Te  Te133  1  0.26049529  0.92162590  0.43163733  1
  Te  Te134  1  0.23384622  0.92816690  0.74524618  1
  Te  Te135  1  0.58388473  0.24781934  0.07579696  1
  Te  Te136  1  0.54624346  0.28259598  0.46257080  1
  Te  Te137  1  0.56102901  0.22192061  0.75694976  1
  Te  Te138  1  0.56447060  0.56745604  0.06558140  1
  Te  Te139  1  0.59835302  0.58725480  0.39220119  1
  Te  Te140  1  0.55120102  0.56814881  0.73645759  1
  Te  Te141  1  0.59026228  0.90226390  0.08129958  1
  Te  Te142  1  0.57314452  0.91736664  0.41589663  1
  Te  Te143  1  0.57084855  0.92186181  0.76140747  1
  Te  Te144  1  0.95717921  0.27532542  0.05747606  1
  Te  Te145  1  0.91566951  0.26100524  0.41672987  1
  Te  Te146  1  0.93022595  0.24864751  0.74906335  1
  Te  Te147  1  0.90465172  0.52800274  0.06996152  1
  Te  Te148  1  0.93121607  0.56382637  0.41812209  1
  Te  Te149  1  0.92835691  0.58301499  0.75146834  1
  Te  Te150  1  0.93576611  0.89739854  0.07635748  1
  Te  Te151  1  0.90264828  0.92523395  0.41853514  1
  Te  Te152  1  0.92506941  0.93032200  0.73544627  1
  Te  Te153  1  0.25607686  0.08143010  0.26453954  1
  Te  Te154  1  0.25046496  0.10407607  0.58202842  1
  Te  Te155  1  0.24755978  0.08836936  0.88891308  1
  Te  Te156  1  0.24828214  0.40140642  0.25601913  1
  Te  Te157  1  0.29195153  0.40187108  0.61097069  1
  Te  Te158  1  0.24877928  0.41624916  0.91519975  1
  Te  Te159  1  0.27957415  0.75538304  0.25526474  1
  Te  Te160  1  0.27765406  0.75376891  0.57284150  1
  Te  Te161  1  0.25004223  0.73960167  0.90445881  1
  Te  Te162  1  0.57515565  0.08045675  0.26304442  1
  Te  Te163  1  0.57976579  0.11635335  0.58492914  1
  Te  Te164  1  0.58634887  0.10205441  0.89568681  1
  Te  Te165  1  0.60166292  0.40679518  0.23704898  1
  Te  Te166  1  0.56810795  0.43360705  0.61195060  1
  Te  Te167  1  0.56442679  0.39714996  0.89165001  1
  Te  Te168  1  0.57019428  0.74962510  0.26659978  1
  Te  Te169  1  0.56173253  0.72276483  0.56512534  1
  Te  Te170  1  0.58848030  0.73319403  0.94223924  1
  Te  Te171  1  0.92305334  0.07623386  0.24266345  1
  Te  Te172  1  0.92639611  0.07888757  0.58771551  1
  Te  Te173  1  0.90989482  0.09132411  0.89333036  1
  Te  Te174  1  0.93303478  0.40988035  0.24722821  1
  Te  Te175  1  0.92235601  0.40678953  0.56357821  1
  Te  Te176  1  0.89782506  0.44688820  0.93485141  1
  Te  Te177  1  0.91240025  0.73335878  0.21765318  1
  Te  Te178  1  0.90701844  0.75605352  0.59979947  1
  Te  Te179  1  0.92433042  0.74192301  0.91772143  1
