# generated using pymatgen
data_In2Te3
_symmetry_space_group_name_H-M   'P 1'
_cell_length_a   18.91151745
_cell_length_b   18.91283283
_cell_length_c   18.92063944
_cell_angle_alpha   90.11855033
_cell_angle_beta   90.18697717
_cell_angle_gamma   89.99427228
_symmetry_Int_Tables_number   1
_chemical_formula_structural   In2Te3
_chemical_formula_sum   'In72 Te108'
_cell_volume   6767.30152501
_cell_formula_units_Z   36
loop_
 _symmetry_equiv_pos_site_id
 _symmetry_equiv_pos_as_xyz
  1  'x, y, z'
loop_
 _atom_site_type_symbol
 _atom_site_label
 _atom_site_symmetry_multiplicity
 _atom_site_fract_x
 _atom_site_fract_y
 _atom_site_fract_z
 _atom_site_occupancy
  In  In0  1  0.32648539  0.38152375  0.30448068  1
  In  In1  1  -0.00402701  0.33202210  0.32729695  1
  In  In2  1  -0.02967529  -0.00407466  0.32005368  1
  In  In3  1  0.65511507  0.18138859  0.84858954  1
  In  In4  1  0.37233886  0.36966790  0.00965553  1
  In  In5  1  0.67569257  0.35437073  0.66353592  1
  In  In6  1  0.51818346  0.51673424  0.01487096  1
  In  In7  1  0.68570723  -0.02526724  0.29242005  1
  In  In8  1  0.49552220  0.16624277  -0.01243898  1
  In  In9  1  0.83118206  0.82454251  0.66493213  1
  In  In10  1  0.29761024  0.17221613  0.52830128  1
  In  In11  1  0.80978215  0.34497129  0.47555913  1
  In  In12  1  -0.01189969  0.49985896  0.83177215  1
  In  In13  1  0.82446699  0.65637638  0.83907593  1
  In  In14  1  0.34806550  0.79900745  0.18195280  1
  In  In15  1  0.67581395  -0.02207023  0.69513522  1
  In  In16  1  0.82376177  0.00700303  0.49914397  1
  In  In17  1  0.15811933  0.67087124  0.17852420  1
  In  In18  1  0.83827872  0.17359173  0.02149663  1
  In  In19  1  -0.03453802  0.81465029  0.17769410  1
  In  In20  1  0.80109079  0.49292047  0.32291083  1
  In  In21  1  0.17502547  0.49938811  0.01654526  1
  In  In22  1  0.34228463  0.63068079  0.30954133  1
  In  In23  1  0.65270764  -0.04783915  0.05002238  1
  In  In24  1  0.47497567  0.32816869  0.47416405  1
  In  In25  1  0.35742673  0.66775691  -0.01110198  1
  In  In26  1  -0.04329862  0.64940464  -0.01676252  1
  In  In27  1  -0.02613471  0.14759435  0.47790029  1
  In  In28  1  0.50282792  0.50347814  0.65855778  1
  In  In29  1  0.84695922  0.82796356  0.01637540  1
  In  In30  1  0.17752373  0.84800672  0.66241046  1
  In  In31  1  -0.00048567  0.33639980  0.68527879  1
  In  In32  1  0.81051209  0.02405651  0.85147981  1
  In  In33  1  0.49665859  0.16492359  0.33465621  1
  In  In34  1  0.32775146  -0.00466799  0.33175639  1
  In  In35  1  0.81830855  0.66250280  0.16547785  1
  In  In36  1  0.20018298  0.51730289  0.66171618  1
  In  In37  1  0.55413640  0.52760252  0.31663364  1
  In  In38  1  0.15101769  0.01241652  0.18601757  1
  In  In39  1  0.16656202  0.17764374  0.65293244  1
  In  In40  1  0.15432995  0.17817706  0.36505235  1
  In  In41  1  0.52070783  0.79260657  0.29956541  1
  In  In42  1  0.52434468  0.16141757  0.66673735  1
  In  In43  1  0.01277354  0.49766197  0.49334621  1
  In  In44  1  -0.02923803  0.17138645  0.17602419  1
  In  In45  1  0.65564677  0.16399946  0.50189067  1
  In  In46  1  -0.00565753  -0.01316938  0.64426697  1
  In  In47  1  0.50338803  0.69338889  0.64962926  1
  In  In48  1  0.34954264  0.17695462  0.14914730  1
  In  In49  1  0.50195673  0.00514334  0.82438860  1
  In  In50  1  0.83529411  0.50914959  0.67300790  1
  In  In51  1  0.17239408  0.66239553  0.47185458  1
  In  In52  1  0.35919585  -0.00100539  0.64930502  1
  In  In53  1  -0.00424150  0.66458637  0.31790842  1
  In  In54  1  0.67277237  0.18092338  0.17396783  1
  In  In55  1  0.81419523  0.67259574  0.50144328  1
  In  In56  1  0.64796293  0.34399027  0.01699580  1
  In  In57  1  0.19620368  0.66206830  0.82968637  1
  In  In58  1  0.33066550  0.35276710  0.68794961  1
  In  In59  1  0.17292824  0.35468652  0.52566499  1
  In  In60  1  0.02918732  0.86167429  0.81195330  1
  In  In61  1  0.16128188  0.17543087  0.00458541  1
  In  In62  1  0.19203002  0.00787245  0.82260638  1
  In  In63  1  -0.01772954  -0.03622707  -0.00138998  1
  In  In64  1  0.63495808  0.81087324  0.86110886  1
  In  In65  1  0.02268406  0.19882914  0.83342052  1
  In  In66  1  0.81403295  0.50397615  0.01558150  1
  In  In67  1  0.33923422  0.82472162  0.48199011  1
  In  In68  1  0.49576822  -0.02420686  0.46704875  1
  In  In69  1  0.17687518  0.34424595  0.86589911  1
  In  In70  1  0.34775142  -0.01198649  -0.00471632  1
  In  In71  1  0.18331481  0.81309985  0.04247444  1
  Te  Te72  1  0.06724351  0.08146459  0.07987665  1
  Te  Te73  1  0.08001649  0.05974403  0.41717619  1
  Te  Te74  1  0.08058799  0.08458986  0.75010111  1
  Te  Te75  1  0.10964293  0.43239907  0.12863216  1
  Te  Te76  1  0.10175313  0.41403462  0.40368810  1
  Te  Te77  1  0.10575063  0.42556096  0.74750251  1
  Te  Te78  1  0.05263875  0.74280070  0.07152702  1
  Te  Te79  1  0.07206806  0.74998333  0.40842094  1
  Te  Te80  1  0.09775505  0.74523777  0.74591987  1
  Te  Te81  1  0.43593227  0.06737170  0.09085007  1
  Te  Te82  1  0.40517440  0.09759932  0.43871126  1
  Te  Te83  1  0.41137847  0.10156521  0.75004290  1
  Te  Te84  1  0.44429459  0.44117802  0.12066471  1
  Te  Te85  1  0.43854043  0.44386574  0.38493104  1
  Te  Te86  1  0.43183675  0.42551573  0.76407552  1
  Te  Te87  1  0.43513502  0.77081701  0.06667152  1
  Te  Te88  1  0.42349334  0.72870028  0.39903532  1
  Te  Te89  1  0.42481153  0.69557770  0.78076361  1
  Te  Te90  1  0.73908400  0.07717074  0.08326363  1
  Te  Te91  1  0.73103951  0.07929566  0.40213036  1
  Te  Te92  1  0.74048358  0.10564436  0.74454490  1
  Te  Te93  1  0.71650693  0.43985722  0.11107445  1
  Te  Te94  1  0.73319870  0.46961610  0.45371577  1
  Te  Te95  1  0.76023669  0.42169269  0.76301619  1
  Te  Te96  1  0.74933098  0.71993182  0.04511463  1
  Te  Te97  1  0.70128963  0.71663075  0.41288904  1
  Te  Te98  1  0.73760412  0.75273666  0.75942140  1
  Te  Te99  1  0.09045477  0.24263170  0.24500950  1
  Te  Te100  1  0.06630590  0.24696498  0.56048545  1
  Te  Te101  1  0.06619724  0.28341567  0.95189874  1
  Te  Te102  1  0.07791182  0.56571635  0.24359302  1
  Te  Te103  1  0.09072979  0.58857121  0.58550011  1
  Te  Te104  1  0.08563762  0.59114998  0.91702115  1
  Te  Te105  1  0.07291180  0.90058439  0.24743049  1
  Te  Te106  1  0.06523539  0.88335272  0.57201989  1
  Te  Te107  1  0.11412508  0.91946241  0.92615793  1
  Te  Te108  1  0.41607762  0.26536785  0.25331941  1
  Te  Te109  1  0.41457560  0.24881578  0.59373138  1
  Te  Te110  1  0.40631808  0.25903103  0.91786706  1
  Te  Te111  1  0.44844931  0.57654840  0.21945937  1
  Te  Te112  1  0.43426511  0.59495389  0.56104686  1
  Te  Te113  1  0.45171261  0.59536466  0.89410871  1
  Te  Te114  1  0.42376821  0.90934873  0.25643714  1
  Te  Te115  1  0.43872159  0.88924407  0.57862768  1
  Te  Te116  1  0.43740879  0.90639254  0.91318232  1
  Te  Te117  1  0.71838296  0.29623777  0.25418145  1
  Te  Te118  1  0.75260028  0.25069798  0.58055344  1
  Te  Te119  1  0.75078523  0.26164870  0.93319213  1
  Te  Te120  1  0.71902175  0.60470788  0.26396839  1
  Te  Te121  1  0.73411765  0.58002471  0.58969952  1
  Te  Te122  1  0.73365854  0.56336535  0.90599084  1
  Te  Te123  1  0.76365286  0.87129761  0.22303262  1
  Te  Te124  1  0.73764872  0.90628959  0.57705537  1
  Te  Te125  1  0.74553380  0.90787466  0.92287806  1
  Te  Te126  1  0.26467376  0.26886113  0.06608906  1
  Te  Te127  1  0.26107394  0.27440990  0.41833025  1
  Te  Te128  1  0.24262044  0.25236353  0.76146405  1
  Te  Te129  1  0.26137374  0.60327459  0.08814173  1
  Te  Te130  1  0.24706526  0.56002152  0.39643262  1
  Te  Te131  1  0.29787151  0.59475926  0.74432323  1
  Te  Te132  1  0.25493449  0.92896855  0.10972163  1
  Te  Te133  1  0.24384438  0.92076642  0.42341667  1
  Te  Te134  1  0.28490513  0.91195719  0.75263510  1
  Te  Te135  1  0.56015854  0.24976157  0.09677969  1
  Te  Te136  1  0.59355985  0.26232701  0.40340383  1
  Te  Te137  1  0.57821724  0.27143198  0.75489518  1
  Te  Te138  1  0.60639129  0.62409691  0.07411172  1
  Te  Te139  1  0.56412991  0.62421008  0.43984643  1
  Te  Te140  1  0.59759335  0.60101154  0.71822572  1
  Te  Te141  1  0.57154348  0.85296176  0.12166463  1
  Te  Te142  1  0.59556911  0.89522875  0.38927552  1
  Te  Te143  1  0.56668307  0.88852003  0.74701187  1
  Te  Te144  1  0.88898168  0.27731552  0.11386868  1
  Te  Te145  1  0.89117838  0.24303751  0.39520303  1
  Te  Te146  1  0.90738021  0.26025227  0.76804074  1
  Te  Te147  1  0.92400244  0.57047280  0.10635737  1
  Te  Te148  1  0.91233181  0.57768355  0.41250448  1
  Te  Te149  1  0.93073826  0.60627385  0.74121636  1
  Te  Te150  1  0.88990482  0.93662143  0.11668373  1
  Te  Te151  1  0.89658094  0.91248003  0.41501893  1
  Te  Te152  1  0.90235663  0.93590075  0.75843802  1
  Te  Te153  1  0.25392941  0.10583235  0.25391277  1
  Te  Te154  1  0.22798734  0.05242000  0.58897649  1
  Te  Te155  1  0.26334777  0.09519325  0.92460988  1
  Te  Te156  1  0.25006879  0.43947974  0.19450680  1
  Te  Te157  1  0.29115000  0.43898742  0.56797346  1
  Te  Te158  1  0.27417845  0.44814080  0.91414740  1
  Te  Te159  1  0.24284482  0.75072591  0.27540596  1
  Te  Te160  1  0.25315951  0.74638065  0.57864423  1
  Te  Te161  1  0.26006076  0.76773959  0.92059483  1
  Te  Te162  1  0.57890482  0.07717646  0.24524619  1
  Te  Te163  1  0.58208044  0.04992025  0.58002308  1
  Te  Te164  1  0.59765991  0.06547493  0.92821121  1
  Te  Te165  1  0.62156029  0.40962856  0.24083059  1
  Te  Te166  1  0.57467602  0.40411607  0.56110520  1
  Te  Te167  1  0.57449795  0.42264614  0.91660888  1
  Te  Te168  1  0.60543504  0.71877438  0.20111026  1
  Te  Te169  1  0.61171521  0.72762145  0.53901103  1
  Te  Te170  1  0.58777212  0.69045985  0.93336683  1
  Te  Te171  1  0.87881233  0.09315660  0.25854905  1
  Te  Te172  1  0.90119848  0.09670992  0.60030715  1
  Te  Te173  1  0.92884584  0.08964330  0.91975709  1
  Te  Te174  1  0.89965508  0.41206258  0.24890597  1
  Te  Te175  1  0.91939338  0.40714631  0.57585891  1
  Te  Te176  1  0.91818242  0.42950858  0.93776129  1
  Te  Te177  1  0.86407554  0.76422392  0.27855547  1
  Te  Te178  1  0.91730558  0.74076433  0.58250439  1
  Te  Te179  1  0.92956499  0.77409727  0.89558150  1
