# generated using pymatgen
data_In2Te3
_symmetry_space_group_name_H-M   'P 1'
_cell_length_a   18.87455598
_cell_length_b   18.88552401
_cell_length_c   18.88539120
_cell_angle_alpha   90.03573665
_cell_angle_beta   90.08340503
_cell_angle_gamma   89.98427089
_symmetry_Int_Tables_number   1
_chemical_formula_structural   In2Te3
_chemical_formula_sum   'In72 Te108'
_cell_volume   6731.80004824
_cell_formula_units_Z   36
loop_
 _symmetry_equiv_pos_site_id
 _symmetry_equiv_pos_as_xyz
  1  'x, y, z'
loop_
 _atom_site_type_symbol
 _atom_site_label
 _atom_site_symmetry_multiplicity
 _atom_site_fract_x
 _atom_site_fract_y
 _atom_site_fract_z
 _atom_site_occupancy
  In  In0  1  0.49499660  0.66019298  0.84305563  1
  In  In1  1  0.52343905  0.52062690  0.34021813  1
  In  In2  1  0.78689944  0.84470387  0.64206490  1
  In  In3  1  -0.02286666  0.29830024  0.65359214  1
  In  In4  1  0.18255162  -0.00522368  0.18005515  1
  In  In5  1  0.51096833  0.49617334  0.65817907  1
  In  In6  1  0.83607300  0.00068184  0.84934427  1
  In  In7  1  0.34694665  0.67005050  0.34067870  1
  In  In8  1  0.50416445  0.33558906  0.15650863  1
  In  In9  1  -0.01003421  0.15158959  0.49616687  1
  In  In10  1  0.68399331  0.84531073  0.82321751  1
  In  In11  1  0.52382145  0.68093584  0.17447233  1
  In  In12  1  -0.00170938  0.52443257  0.19784981  1
  In  In13  1  0.34123554  0.15745525  0.48393323  1
  In  In14  1  0.31231387  0.48310781  0.16353483  1
  In  In15  1  0.16929021  0.31039125  0.82253674  1
  In  In16  1  0.17147324  0.82720261  0.68441382  1
  In  In17  1  0.36281673  0.31548560  0.00061095  1
  In  In18  1  0.19218015  0.50546748  -0.00739369  1
  In  In19  1  0.34773817  0.48985925  0.51848659  1
  In  In20  1  0.68863253  0.69722433  0.32592260  1
  In  In21  1  0.34258254  0.13117455  0.17088621  1
  In  In22  1  -0.01225405  0.14783830  0.82218838  1
  In  In23  1  -0.02474709  0.34917701  0.00206362  1
  In  In24  1  0.65483059  0.48976925  0.83151744  1
  In  In25  1  0.65563854  0.16993042  0.83946535  1
  In  In26  1  0.69181051  0.68454212  -0.01149756  1
  In  In27  1  0.19552524  0.68710536  0.85194562  1
  In  In28  1  0.16960159  0.64921931  0.51104930  1
  In  In29  1  0.81352542  0.46943530  0.33542846  1
  In  In30  1  0.33182467  0.31752307  0.32599272  1
  In  In31  1  0.65829796  0.00575004  0.32964714  1
  In  In32  1  0.66850885  0.50911185  0.16780397  1
  In  In33  1  0.79974734  0.31286469  0.15866993  1
  In  In34  1  0.15322493  -0.01709503  0.49088392  1
  In  In35  1  0.81428582  0.32637763  0.49667275  1
  In  In36  1  0.35020597  0.82336310  0.48139034  1
  In  In37  1  0.50294779  0.14381622  0.00081062  1
  In  In38  1  0.52130809  0.15709794  0.66257097  1
  In  In39  1  0.03955105  0.66494648  0.67977518  1
  In  In40  1  0.66781134  0.15484434  0.48424006  1
  In  In41  1  0.14157685  0.33100724  0.17433100  1
  In  In42  1  0.85117208  0.69293295  0.14009660  1
  In  In43  1  0.80584087  0.15730357  -0.00203394  1
  In  In44  1  0.50800682  0.00693238  0.48676968  1
  In  In45  1  0.51527282  0.86542182  0.02677878  1
  In  In46  1  0.33471011  0.15991494  0.84469410  1
  In  In47  1  0.01062829  0.50467206  0.83032106  1
  In  In48  1  0.82779991  0.16182315  0.66521448  1
  In  In49  1  0.35285621  0.82523223  0.86487501  1
  In  In50  1  0.83811202  0.66250330  0.49977333  1
  In  In51  1  0.35530781  0.64259552  0.68040958  1
  In  In52  1  0.81724626  0.50355695  0.67677101  1
  In  In53  1  -0.01193998  0.01451272  0.69343835  1
  In  In54  1  0.17294361  0.17333338  0.01083402  1
  In  In55  1  0.12233069  0.70283688  0.12902107  1
  In  In56  1  -0.03105566  0.85128313  0.49273757  1
  In  In57  1  0.17708513  0.48268717  0.64566779  1
  In  In58  1  0.84978108  0.85522797  0.01636348  1
  In  In59  1  0.35622643  0.86870379  0.17402993  1
  In  In60  1  0.01364716  0.35225840  0.35403167  1
  In  In61  1  0.82067934  0.85163511  0.31627637  1
  In  In62  1  0.15944680  0.83352721  0.32063864  1
  In  In63  1  0.42310329  0.49118799  0.84890764  1
  In  In64  1  0.55192792  0.81663414  0.63972845  1
  In  In65  1  0.66640663  0.14983827  0.17360656  1
  In  In66  1  0.82204356  0.50908997  0.00839412  1
  In  In67  1  0.51761851  0.31869844  0.49626317  1
  In  In68  1  -0.00821369  0.66081753  0.34506227  1
  In  In69  1  0.14354010  0.16140271  0.66381648  1
  In  In70  1  0.34099936  -0.00275312  0.68027881  1
  In  In71  1  -0.01954035  0.12980122  0.19052340  1
  Te  Te72  1  0.08598155  0.07843687  0.09064599  1
  Te  Te73  1  0.07191526  0.06930554  0.40559363  1
  Te  Te74  1  0.10871892  0.06578917  0.77657160  1
  Te  Te75  1  0.08088965  0.43152922  0.07689497  1
  Te  Te76  1  0.06961769  0.46321379  0.42684538  1
  Te  Te77  1  0.07303726  0.39678565  0.73930406  1
  Te  Te78  1  0.03003219  0.78852223  0.04069440  1
  Te  Te79  1  0.08572886  0.75407068  0.43459132  1
  Te  Te80  1  0.07857389  0.76574585  0.78689040  1
  Te  Te81  1  0.39290788  0.05619921  0.05290982  1
  Te  Te82  1  0.41115493  0.06623435  0.38857372  1
  Te  Te83  1  0.43739392  0.07809336  0.76338013  1
  Te  Te84  1  0.42529828  0.43561496  0.07224160  1
  Te  Te85  1  0.42350080  0.41589867  0.40241021  1
  Te  Te86  1  0.40322754  0.41996339  0.72246787  1
  Te  Te87  1  0.42551307  0.75925681  0.08932787  1
  Te  Te88  1  0.45005701  0.76592755  0.38730094  1
  Te  Te89  1  0.42689413  0.76124044  0.74164569  1
  Te  Te90  1  0.77278993  0.06673196  0.11001531  1
  Te  Te91  1  0.76817410  0.09280817  0.38864606  1
  Te  Te92  1  0.74405973  0.07563145  0.75469869  1
  Te  Te93  1  0.72439326  0.40888110  0.06719711  1
  Te  Te94  1  0.71318944  0.41052528  0.42648132  1
  Te  Te95  1  0.73157352  0.40156643  0.74010028  1
  Te  Te96  1  0.73438304  0.77714788  0.09880906  1
  Te  Te97  1  0.76001160  0.77810635  0.43533892  1
  Te  Te98  1  0.74615333  0.74244413  0.73757291  1
  Te  Te99  1  0.06557552  0.23853823  0.26407296  1
  Te  Te100  1  0.08709709  0.25494193  0.55826779  1
  Te  Te101  1  0.07056337  0.25206964  0.92280975  1
  Te  Te102  1  0.10555377  0.61221818  0.25603128  1
  Te  Te103  1  0.06436805  0.55470007  0.57029770  1
  Te  Te104  1  0.09189666  0.59428626  0.92153245  1
  Te  Te105  1  0.06723772  0.91542596  0.23714905  1
  Te  Te106  1  0.07431307  0.91406250  0.60271815  1
  Te  Te107  1  -0.03066947  0.92993160  0.87718029  1
  Te  Te108  1  0.42978878  0.23603779  0.24241400  1
  Te  Te109  1  0.42056679  0.24043077  0.58250247  1
  Te  Te110  1  0.44665176  0.24925637  0.89675703  1
  Te  Te111  1  0.42081568  0.57451529  0.23770405  1
  Te  Te112  1  0.43628899  0.60893554  0.55793618  1
  Te  Te113  1  0.37853375  0.61151475  0.92112548  1
  Te  Te114  1  0.42592022  0.96471881  0.26214436  1
  Te  Te115  1  0.42355472  0.91130788  0.58389098  1
  Te  Te116  1  0.43039595  0.93558104  0.92715406  1
  Te  Te117  1  0.73004386  0.24560219  0.26804868  1
  Te  Te118  1  0.72673719  0.24745346  0.59160584  1
  Te  Te119  1  0.74437496  0.26119047  0.91752201  1
  Te  Te120  1  0.77251674  0.59242192  0.24186271  1
  Te  Te121  1  0.74066564  0.58888767  0.58222738  1
  Te  Te122  1  0.75797013  0.58730851  0.89496856  1
  Te  Te123  1  0.73498613  0.93068416  0.22019181  1
  Te  Te124  1  0.75977870  0.96803034  0.57168093  1
  Te  Te125  1  0.73697103  0.92619868  0.94033442  1
  Te  Te126  1  0.26122682  0.26176228  0.10064088  1
  Te  Te127  1  0.24081468  0.23130900  0.40407524  1
  Te  Te128  1  0.26094867  0.23413190  0.73153746  1
  Te  Te129  1  0.23944768  0.60169856  0.09966802  1
  Te  Te130  1  0.26073719  0.57229716  0.41870789  1
  Te  Te131  1  0.23493326  0.57934003  0.74703607  1
  Te  Te132  1  0.24242487  0.89981264  0.08167495  1
  Te  Te133  1  0.25846746  0.91693104  0.40283740  1
  Te  Te134  1  0.25806998  0.91290224  0.77453685  1
  Te  Te135  1  0.59169737  0.24265973  0.07594441  1
  Te  Te136  1  0.56423679  0.21773474  0.40080309  1
  Te  Te137  1  0.59220713  0.26134463  0.73988515  1
  Te  Te138  1  0.59324870  0.59569728  0.06897912  1
  Te  Te139  1  0.61292845  0.60811292  0.42081764  1
  Te  Te140  1  0.58851238  0.59609703  0.74287810  1
  Te  Te141  1  0.59216334  0.93603464  0.13176757  1
  Te  Te142  1  0.59651582  0.90846025  0.42189169  1
  Te  Te143  1  0.58359893  0.91586471  0.74162417  1
  Te  Te144  1  0.91978143  0.24159891  0.09410263  1
  Te  Te145  1  0.91324057  0.25258024  0.40945560  1
  Te  Te146  1  0.89163495  0.25341425  0.77073779  1
  Te  Te147  1  0.93694785  0.58682399  0.07207351  1
  Te  Te148  1  0.91270995  0.55279614  0.41784105  1
  Te  Te149  1  0.92262100  0.59727375  0.74922244  1
  Te  Te150  1  0.95281657  0.89918936  0.11611060  1
  Te  Te151  1  0.91937952  0.94327137  0.38632524  1
  Te  Te152  1  0.89850551  0.89542249  0.74344584  1
  Te  Te153  1  0.23452529  0.10407427  0.26632761  1
  Te  Te154  1  0.24665786  0.07129296  0.58463962  1
  Te  Te155  1  0.25593015  0.07613329  0.93686805  1
  Te  Te156  1  0.22546990  0.41645460  0.26821211  1
  Te  Te157  1  0.25657668  0.38700457  0.56960135  1
  Te  Te158  1  0.25913625  0.39381388  0.91325020  1
  Te  Te159  1  0.26850145  0.75948770  0.24595115  1
  Te  Te160  1  0.25958788  0.74793360  0.58806408  1
  Te  Te161  1  0.24025729  0.78443765  0.95477736  1
  Te  Te162  1  0.54945378  0.05588796  0.22162074  1
  Te  Te163  1  0.61192555  0.05687743  0.58957263  1
  Te  Te164  1  0.60622930  0.06450104  0.93241202  1
  Te  Te165  1  0.59179737  0.41185312  0.25500839  1
  Te  Te166  1  0.59564178  0.42920855  0.55717299  1
  Te  Te167  1  0.54497410  0.43670540  0.91322371  1
  Te  Te168  1  0.57665068  0.78034332  0.27025010  1
  Te  Te169  1  0.57964793  0.70155391  0.55646385  1
  Te  Te170  1  0.57973253  0.76342517  0.91870658  1
  Te  Te171  1  0.88420779  0.06800716  0.28452895  1
  Te  Te172  1  0.89446325  0.05636354  0.57292537  1
  Te  Te173  1  0.92966244  0.07950342  0.94672334  1
  Te  Te174  1  0.90672741  0.40801751  0.22994125  1
  Te  Te175  1  0.90413852  0.41038622  0.58498614  1
  Te  Te176  1  0.89844703  0.42714647  0.89958761  1
  Te  Te177  1  0.92917256  0.76165957  0.25222730  1
  Te  Te178  1  0.93570949  0.74033378  0.59027100  1
  Te  Te179  1  0.90924679  0.73347718  0.95821345  1
