# generated using pymatgen
data_In2Te3
_symmetry_space_group_name_H-M   'P 1'
_cell_length_a   18.82444479
_cell_length_b   18.82691561
_cell_length_c   18.83106042
_cell_angle_alpha   90.02437255
_cell_angle_beta   89.94491243
_cell_angle_gamma   90.02805316
_symmetry_Int_Tables_number   1
_chemical_formula_structural   In2Te3
_chemical_formula_sum   'In72 Te108'
_cell_volume   6673.84071140
_cell_formula_units_Z   36
loop_
 _symmetry_equiv_pos_site_id
 _symmetry_equiv_pos_as_xyz
  1  'x, y, z'
loop_
 _atom_site_type_symbol
 _atom_site_label
 _atom_site_symmetry_multiplicity
 _atom_site_fract_x
 _atom_site_fract_y
 _atom_site_fract_z
 _atom_site_occupancy
  In  In0  1  0.31416036  0.00961741  0.62527003  1
  In  In1  1  0.01638188  0.49012198  0.48696269  1
  In  In2  1  0.14060578  0.82230590  0.04114148  1
  In  In3  1  0.86360045  0.31289086  0.47499116  1
  In  In4  1  0.32680416  0.49323617  0.49263425  1
  In  In5  1  0.14734269  0.14899675  0.00560971  1
  In  In6  1  0.32115247  0.66550581  -0.00260966  1
  In  In7  1  -0.01696975  -0.00074981  0.03169666  1
  In  In8  1  0.16161632  -0.00091239  0.82780962  1
  In  In9  1  0.81212418  0.46331594  0.02845204  1
  In  In10  1  0.53016471  0.83697068  0.00113899  1
  In  In11  1  0.49747147  0.48701981  0.63668522  1
  In  In12  1  0.65824556  0.50026025  0.49947427  1
  In  In13  1  0.14056672  0.00474791  0.48925579  1
  In  In14  1  0.85712191  0.85368287  0.01460628  1
  In  In15  1  0.49443910  0.33338848  0.82883107  1
  In  In16  1  0.00118558  0.17059916  0.82044016  1
  In  In17  1  -0.01691011  -0.00065297  0.63906141  1
  In  In18  1  0.50876385  0.01376971  0.82257702  1
  In  In19  1  0.50964788  0.84361620  0.33609841  1
  In  In20  1  0.83750642  0.50502858  0.66866354  1
  In  In21  1  -0.01450730  0.50462444  0.16099372  1
  In  In22  1  0.69960000  0.16478807  0.48088675  1
  In  In23  1  0.31220795  -0.00115466  0.33728564  1
  In  In24  1  -0.01198854  0.83404533  0.49660568  1
  In  In25  1  0.70429357  -0.00269706  0.33140933  1
  In  In26  1  0.68293521  0.68561456  -0.00484814  1
  In  In27  1  0.15091591  0.49238582  0.34837026  1
  In  In28  1  0.50588894  0.65970397  0.17612910  1
  In  In29  1  -0.01180137  0.34484083  0.35530872  1
  In  In30  1  0.32622745  0.31900006  0.68663600  1
  In  In31  1  0.71382624  0.68810781  0.35280275  1
  In  In32  1  0.84386756  -0.00683054  0.81940157  1
  In  In33  1  0.50046244  -0.00051662  0.13893838  1
  In  In34  1  0.49136542  0.18021319  0.31632021  1
  In  In35  1  0.16292877  0.51384557  0.66658232  1
  In  In36  1  0.84446693  0.67794651  0.82685772  1
  In  In37  1  0.48258117  0.67886086  0.85784622  1
  In  In38  1  0.52251186  0.83073567  0.66617396  1
  In  In39  1  0.33007754  0.33820244  -0.01224457  1
  In  In40  1  0.84962399  0.00308519  0.18218039  1
  In  In41  1  0.49431337  0.66608078  0.50545283  1
  In  In42  1  0.68029626  0.14548525  0.83863412  1
  In  In43  1  0.31495400  0.16155553  0.18781926  1
  In  In44  1  0.16223958  0.32250653  0.83553230  1
  In  In45  1  0.67830349  0.32354900  0.32027148  1
  In  In46  1  0.30437130  0.67607895  0.32251015  1
  In  In47  1  0.50372648  0.16260969  0.67466266  1
  In  In48  1  0.50204245  0.36525083  0.50556579  1
  In  In49  1  0.85417497  0.17455199  0.36482124  1
  In  In50  1  0.70879134  -0.02209778  0.63811046  1
  In  In51  1  -0.01548918  0.68501837  0.34117337  1
  In  In52  1  0.68592733  0.67114808  0.67476457  1
  In  In53  1  0.30667265  0.82559687  0.16623146  1
  In  In54  1  0.29886113  0.81409187  0.52705516  1
  In  In55  1  0.84739610  0.32191402  0.82377243  1
  In  In56  1  0.51519825  0.00123204  0.47879975  1
  In  In57  1  0.16474352  0.52278124  0.00099495  1
  In  In58  1  0.85869243  0.20153077  0.03121588  1
  In  In59  1  0.64929293  0.15911783  0.15312407  1
  In  In60  1  0.64555553  0.51133616  0.82947188  1
  In  In61  1  0.33806753  0.00907623  0.01383330  1
  In  In62  1  0.30265178  0.20746912  0.47442871  1
  In  In63  1  0.00474112  0.50818618  0.83928574  1
  In  In64  1  0.84834371  0.50856003  0.31066742  1
  In  In65  1  0.14483143  0.34566877  0.17718154  1
  In  In66  1  0.65662584  0.00038222  -0.00621737  1
  In  In67  1  0.03837106  0.81039308  0.82394260  1
  In  In68  1  0.32215492  0.50337254  0.13340157  1
  In  In69  1  0.50194269  0.46714474  0.32791438  1
  In  In70  1  0.31780055  0.83345319  0.83249722  1
  In  In71  1  0.50558019  0.50772539  -0.00467144  1
  Te  Te72  1  0.06021068  0.09635610  0.11470709  1
  Te  Te73  1  0.03656600  0.05682818  0.39841101  1
  Te  Te74  1  0.08202038  0.08176221  0.72806055  1
  Te  Te75  1  0.07234137  0.42063340  0.06679550  1
  Te  Te76  1  0.11263143  0.37866717  0.44358073  1
  Te  Te77  1  0.07642306  0.41154052  0.74637295  1
  Te  Te78  1  0.03676150  0.73835635  0.10507920  1
  Te  Te79  1  0.08837285  0.75164101  0.42270106  1
  Te  Te80  1  0.11138661  0.72686013  0.72319189  1
  Te  Te81  1  0.42210574  0.11556545  0.08335669  1
  Te  Te82  1  0.40370717  0.09167005  0.42236467  1
  Te  Te83  1  0.39713644  0.07560596  0.73984506  1
  Te  Te84  1  0.42878653  0.40926976  0.08355464  1
  Te  Te85  1  0.39198057  0.38995260  0.40169696  1
  Te  Te86  1  0.40844058  0.43100121  0.74844791  1
  Te  Te87  1  0.42594868  0.75287907  0.07760422  1
  Te  Te88  1  0.40878385  0.75724174  0.41368239  1
  Te  Te89  1  0.41382306  0.75367237  0.74374871  1
  Te  Te90  1  0.76276246  0.07736521  0.07666070  1
  Te  Te91  1  0.79547489  0.04627650  0.44547639  1
  Te  Te92  1  0.76859039  0.08855843  0.72760324  1
  Te  Te93  1  0.72305312  0.37130663  0.10232295  1
  Te  Te94  1  0.75511341  0.41867551  0.41368170  1
  Te  Te95  1  0.74928174  0.42015788  0.75869454  1
  Te  Te96  1  0.77162557  0.75780581  0.08893605  1
  Te  Te97  1  0.80906575  0.78462105  0.42851662  1
  Te  Te98  1  0.75874447  0.77290087  0.75234313  1
  Te  Te99  1  0.07746817  0.25141924  0.27322113  1
  Te  Te100  1  0.03262047  0.26738889  0.60064766  1
  Te  Te101  1  0.06450262  0.25359565  0.93147378  1
  Te  Te102  1  0.07306105  0.58227598  0.25652616  1
  Te  Te103  1  0.07659023  0.59245696  0.57460420  1
  Te  Te104  1  0.07457099  0.60806651  0.92225901  1
  Te  Te105  1  0.10437173  0.94674245  0.19935257  1
  Te  Te106  1  0.09250458  0.90519017  0.59293037  1
  Te  Te107  1  0.07749751  0.92433854  0.93158695  1
  Te  Te108  1  0.40620915  0.26800453  0.23670975  1
  Te  Te109  1  0.42117682  0.24959083  0.57896502  1
  Te  Te110  1  0.40360479  0.24398567  0.90193928  1
  Te  Te111  1  0.40508041  0.57817452  0.25709436  1
  Te  Te112  1  0.39340561  0.59053686  0.58973441  1
  Te  Te113  1  0.39454911  0.56612508  0.90801884  1
  Te  Te114  1  0.41160953  0.92244099  0.23940115  1
  Te  Te115  1  0.42592173  0.91422908  0.57238581  1
  Te  Te116  1  0.42316868  0.91727845  0.91763747  1
  Te  Te117  1  0.75523660  0.21173604  0.25410592  1
  Te  Te118  1  0.76242690  0.26075274  0.57192772  1
  Te  Te119  1  0.75985462  0.24583854  0.92288896  1
  Te  Te120  1  0.74649159  0.59302900  0.24650890  1
  Te  Te121  1  0.75988790  0.59118605  0.56795215  1
  Te  Te122  1  0.75718084  0.57872239  0.90903595  1
  Te  Te123  1  0.77393988  0.89423482  0.25096518  1
  Te  Te124  1  0.79525548  0.86784693  0.57910746  1
  Te  Te125  1  0.75634326  0.91402091  0.91641873  1
  Te  Te126  1  0.23655307  0.25704423  0.08215438  1
  Te  Te127  1  0.20447100  0.24174665  0.37123087  1
  Te  Te128  1  0.22942922  0.22636987  0.74594481  1
  Te  Te129  1  0.22661612  0.61719400  0.10696540  1
  Te  Te130  1  0.23220558  0.59477337  0.42959184  1
  Te  Te131  1  0.21950874  0.61820131  0.75786278  1
  Te  Te132  1  0.22829889  0.94651742  0.09896339  1
  Te  Te133  1  0.23150061  0.89935827  0.41918754  1
  Te  Te134  1  0.24420596  0.91721925  0.72865534  1
  Te  Te135  1  0.60122991  0.27603581  0.08146858  1
  Te  Te136  1  0.57720668  0.25104259  0.42335850  1
  Te  Te137  1  0.59971358  0.24705377  0.75515688  1
  Te  Te138  1  0.60179435  0.58695531  0.08236414  1
  Te  Te139  1  0.57342230  0.58341833  0.40307905  1
  Te  Te140  1  0.56252014  0.59601631  0.73441536  1
  Te  Te141  1  0.61447631  0.90413320  0.10757626  1
  Te  Te142  1  0.61806275  0.90417969  0.42494392  1
  Te  Te143  1  0.60845321  0.92859732  0.74615127  1
  Te  Te144  1  0.93889823  0.27562367  0.12643209  1
  Te  Te145  1  0.98837863  0.18779540  0.48381184  1
  Te  Te146  1  0.92316942  0.24786394  0.71674777  1
  Te  Te147  1  0.88942345  0.57934804  0.07768444  1
  Te  Te148  1  0.90873804  0.58331346  0.42730354  1
  Te  Te149  1  0.93669237  0.59917395  0.73483303  1
  Te  Te150  1  0.97329324  0.89219449  0.15324789  1
  Te  Te151  1  0.90923843  0.88302233  0.37685528  1
  Te  Te152  1  0.93796034  0.89832140  0.74814965  1
  Te  Te153  1  0.21481880  0.09070175  0.27263070  1
  Te  Te154  1  0.22182897  0.11562204  0.56409657  1
  Te  Te155  1  0.25324412  0.08739348  0.91357878  1
  Te  Te156  1  0.24971742  0.43129715  0.24688433  1
  Te  Te157  1  0.24716484  0.40606235  0.58934585  1
  Te  Te158  1  0.24314605  0.43193095  0.90476887  1
  Te  Te159  1  0.20798668  0.76907484  0.25963778  1
  Te  Te160  1  0.23317547  0.72286225  0.62219681  1
  Te  Te161  1  0.22484202  0.75834457  0.92582857  1
  Te  Te162  1  0.58027420  0.06663987  0.26479087  1
  Te  Te163  1  0.59653976  0.08039900  0.58154801  1
  Te  Te164  1  0.56482751  0.10484115  0.93091185  1
  Te  Te165  1  0.60224588  0.41587344  0.23128271  1
  Te  Te166  1  0.61636742  0.39652195  0.60338466  1
  Te  Te167  1  0.59260499  0.40461560  0.92354622  1
  Te  Te168  1  0.59860827  0.74686245  0.25925880  1
  Te  Te169  1  0.60494664  0.75081197  0.56597875  1
  Te  Te170  1  0.60357410  0.76366286  0.88930931  1
  Te  Te171  1  0.93716471  0.08243530  0.27583833  1
  Te  Te172  1  0.89146427  0.08735056  0.56436321  1
  Te  Te173  1  0.91439102  0.08729436  0.91823436  1
  Te  Te174  1  0.89871818  0.38328362  0.23394864  1
  Te  Te175  1  0.92117826  0.41289415  0.58100556  1
  Te  Te176  1  0.91401822  0.41554892  0.92242808  1
  Te  Te177  1  0.92752511  0.73393854  0.21308221  1
  Te  Te178  1  0.89674304  0.75637057  0.58618650  1
  Te  Te179  1  0.93340816  0.75681031  0.92295544  1
