# generated using pymatgen
data_In2Te3
_symmetry_space_group_name_H-M   'P 1'
_cell_length_a   18.99872485
_cell_length_b   19.00561706
_cell_length_c   19.02767793
_cell_angle_alpha   89.85664985
_cell_angle_beta   89.81869805
_cell_angle_gamma   89.97084668
_symmetry_Int_Tables_number   1
_chemical_formula_structural   In2Te3
_chemical_formula_sum   'In72 Te108'
_cell_volume   6870.50454857
_cell_formula_units_Z   36
loop_
 _symmetry_equiv_pos_site_id
 _symmetry_equiv_pos_as_xyz
  1  'x, y, z'
loop_
 _atom_site_type_symbol
 _atom_site_label
 _atom_site_symmetry_multiplicity
 _atom_site_fract_x
 _atom_site_fract_y
 _atom_site_fract_z
 _atom_site_occupancy
  In  In0  1  0.35283652  0.64705869  0.32478237  1
  In  In1  1  0.16108347  0.47947562  -0.01224223  1
  In  In2  1  0.16646903  0.31361607  0.47328877  1
  In  In3  1  0.35339433  0.31326100  0.62364839  1
  In  In4  1  0.82932063  0.48954551  0.35540531  1
  In  In5  1  0.33144699  0.48456213  0.46460901  1
  In  In6  1  0.32438894  0.14309665  0.49386103  1
  In  In7  1  0.80631211  0.66885166  0.49630810  1
  In  In8  1  0.82187337  0.32670089  0.17079115  1
  In  In9  1  0.17409022  0.68032812  0.52079824  1
  In  In10  1  -0.00191801  0.68645383  0.01929381  1
  In  In11  1  0.83182850  0.00849125  0.15312300  1
  In  In12  1  0.45776955  0.86405728  0.31423719  1
  In  In13  1  0.35979202  0.17887168  0.81414194  1
  In  In14  1  0.81345762  0.51094426  0.66099079  1
  In  In15  1  0.16047115  0.49877311  0.29183490  1
  In  In16  1  0.50837584  0.35052533  0.82162881  1
  In  In17  1  0.48653390  0.85544749  0.02618425  1
  In  In18  1  0.19183050  0.14233509  0.04729016  1
  In  In19  1  0.65749727  0.66495590  0.67725642  1
  In  In20  1  -0.01872419  0.61882473  0.67142025  1
  In  In21  1  0.50669953  0.66875733  0.48050438  1
  In  In22  1  0.19683083  0.18966240  0.30539562  1
  In  In23  1  0.14067223  -0.01605317  0.49179619  1
  In  In24  1  0.82323909  0.83126791  0.38267328  1
  In  In25  1  0.62410636  0.64107719  0.28302629  1
  In  In26  1  0.34565440  0.48235332  0.15101379  1
  In  In27  1  0.16412667  0.69093964  0.84926151  1
  In  In28  1  0.80745515  0.15991136  -0.00627639  1
  In  In29  1  -0.00814789  0.81775300  0.52840987  1
  In  In30  1  0.18222157  -0.00771588  0.84273279  1
  In  In31  1  0.65852573  -0.00194084  0.33782824  1
  In  In32  1  0.67942547  0.16343514  0.52839464  1
  In  In33  1  0.17580015  0.33583801  0.83301921  1
  In  In34  1  0.02663663  -0.00337753  0.00354724  1
  In  In35  1  0.76238099  0.55673514  0.00335531  1
  In  In36  1  0.12605623  0.16688605  0.66610594  1
  In  In37  1  -0.01038565  0.49575985  0.81949024  1
  In  In38  1  0.36790403  0.50590586  0.85801384  1
  In  In39  1  0.49048879  0.49433244  0.63663111  1
  In  In40  1  0.49439188  0.32335717  0.48027040  1
  In  In41  1  0.65573079  0.83882789  0.18025081  1
  In  In42  1  0.82919882  0.35801265  0.83396717  1
  In  In43  1  0.02085380  0.82601731  0.18182063  1
  In  In44  1  -0.01498746  0.82557411  0.80883398  1
  In  In45  1  0.00064398  0.31882243  0.31883763  1
  In  In46  1  0.81362884  0.83585514  -0.00781347  1
  In  In47  1  0.50715117  0.85642744  0.68501543  1
  In  In48  1  -0.00310427  -0.00791692  0.32766907  1
  In  In49  1  -0.01324464  0.16421457  0.47777218  1
  In  In50  1  0.49709721  0.15924407  0.31565368  1
  In  In51  1  0.83264208  0.19040078  0.67543759  1
  In  In52  1  0.65408876  0.32214266  0.01053892  1
  In  In53  1  0.54167651  0.13168937  0.69024171  1
  In  In54  1  0.74959644  -0.04305169  0.81893631  1
  In  In55  1  -0.03901003  0.18110125  0.85406001  1
  In  In56  1  0.53536888  0.68159645  0.86061342  1
  In  In57  1  0.25007194  0.84430776  0.01617277  1
  In  In58  1  0.33550213  0.01200868  0.69502576  1
  In  In59  1  0.64552604  0.36916420  0.29568788  1
  In  In60  1  0.19178324  0.83338323  0.34794723  1
  In  In61  1  0.01334910  0.32207882  0.02643763  1
  In  In62  1  0.18790271  0.65452991  0.16101444  1
  In  In63  1  0.52705242  0.00283943  0.50658496  1
  In  In64  1  0.36698598  0.17019728  0.15180374  1
  In  In65  1  0.33284891  0.67711882  0.67846589  1
  In  In66  1  -0.02177827  -0.00204070  0.68112724  1
  In  In67  1  0.80644033  0.17413243  0.33674868  1
  In  In68  1  0.17378892  0.52530149  0.65765110  1
  In  In69  1  0.84948865  0.67117297  0.19090473  1
  In  In70  1  0.54104890  0.50072045  0.03522864  1
  In  In71  1  0.36416330  0.01509784  -0.00138911  1
  Te  Te72  1  0.07751093  0.07943752  0.11167989  1
  Te  Te73  1  0.09981561  0.09975362  0.39986382  1
  Te  Te74  1  0.06305169  0.08172410  0.77576220  1
  Te  Te75  1  0.08616029  0.42481786  0.10005936  1
  Te  Te76  1  0.08547430  0.41526127  0.39844571  1
  Te  Te77  1  0.09467727  0.42170291  0.73884432  1
  Te  Te78  1  0.11413258  0.76793296  0.07450651  1
  Te  Te79  1  0.08400882  0.75599174  0.42525483  1
  Te  Te80  1  0.07647749  0.73018755  0.73558500  1
  Te  Te81  1  0.46290515  0.11653965  0.04546438  1
  Te  Te82  1  0.42525162  0.06536193  0.41314362  1
  Te  Te83  1  0.44985511  0.05840611  0.78724463  1
  Te  Te84  1  0.45043831  0.39295148  0.08898778  1
  Te  Te85  1  0.44949894  0.43247322  0.39126076  1
  Te  Te86  1  0.39067582  0.41445300  0.73121022  1
  Te  Te87  1  0.37017360  0.77128768  0.06408157  1
  Te  Te88  1  0.40406896  0.75711522  0.41595398  1
  Te  Te89  1  0.43359960  0.74943159  0.76321144  1
  Te  Te90  1  0.72417007  0.09675276  0.10027244  1
  Te  Te91  1  0.75378789  0.06850520  0.43074276  1
  Te  Te92  1  0.75570714  0.10404977  0.76990774  1
  Te  Te93  1  0.75858809  0.41646299  0.06692834  1
  Te  Te94  1  0.71939985  0.41019379  0.41259478  1
  Te  Te95  1  0.73331054  0.43299112  0.75459015  1
  Te  Te96  1  0.75393237  0.75220525  0.10370262  1
  Te  Te97  1  0.71043588  0.72702658  0.37751794  1
  Te  Te98  1  0.71924147  0.74412300  0.78668271  1
  Te  Te99  1  0.08973297  0.24863271  0.22640359  1
  Te  Te100  1  0.06032963  0.26243870  0.56958002  1
  Te  Te101  1  0.08611070  0.24564423  0.91627701  1
  Te  Te102  1  0.07479259  0.60283839  0.23702426  1
  Te  Te103  1  0.06973032  0.56919660  0.55426389  1
  Te  Te104  1  0.07172577  0.58985775  0.91804897  1
  Te  Te105  1  0.10919403  0.92481455  0.25387860  1
  Te  Te106  1  0.07987801  0.91126986  0.61065529  1
  Te  Te107  1  0.08126715  0.89612494  0.90434581  1
  Te  Te108  1  0.45530742  0.26526171  0.22350674  1
  Te  Te109  1  0.43059489  0.18754932  0.59449545  1
  Te  Te110  1  0.43267858  0.26033246  0.90875026  1
  Te  Te111  1  0.42011858  0.59674905  0.20596304  1
  Te  Te112  1  0.39133094  0.58656147  0.56714622  1
  Te  Te113  1  0.44773684  0.58908871  0.95040314  1
  Te  Te114  1  0.37138587  0.94790880  0.22823513  1
  Te  Te115  1  0.41888562  0.93669537  0.59194085  1
  Te  Te116  1  0.44112180  0.93003540  0.90619372  1
  Te  Te117  1  0.71360248  0.24604902  0.24014051  1
  Te  Te118  1  0.76154012  0.27284515  0.57808120  1
  Te  Te119  1  0.73854428  0.25615747  0.90027079  1
  Te  Te120  1  0.75649415  0.56671909  0.24725994  1
  Te  Te121  1  0.71135002  0.57417311  0.56917374  1
  Te  Te122  1  0.68405011  0.64194498  0.90803104  1
  Te  Te123  1  0.76807688  0.91738136  0.25804549  1
  Te  Te124  1  0.75562812  0.80957618  0.51518660  1
  Te  Te125  1  0.70736406  0.93693930  0.96482892  1
  Te  Te126  1  0.26719273  0.25758989  0.08576433  1
  Te  Te127  1  0.29040746  0.26027995  0.40458474  1
  Te  Te128  1  0.24269485  0.24387845  0.72918223  1
  Te  Te129  1  0.25738381  0.57234140  0.05707493  1
  Te  Te130  1  0.23595710  0.59029137  0.41192761  1
  Te  Te131  1  0.25448624  0.57645920  0.77575988  1
  Te  Te132  1  0.27415129  0.96032299  0.10694236  1
  Te  Te133  1  0.26122766  0.93167340  0.43013682  1
  Te  Te134  1  0.26137209  0.90390941  0.75931123  1
  Te  Te135  1  0.59642877  0.19648737  0.06104179  1
  Te  Te136  1  0.58758155  0.22264246  0.42081153  1
  Te  Te137  1  0.58525966  0.26809165  0.72459877  1
  Te  Te138  1  0.61080228  0.58759775  0.13601114  1
  Te  Te139  1  0.55808081  0.56234043  0.39435905  1
  Te  Te140  1  0.55066279  0.57948049  0.74312477  1
  Te  Te141  1  0.56924022  0.94190314  0.11730884  1
  Te  Te142  1  0.57533003  0.89659712  0.41177229  1
  Te  Te143  1  0.63334604  0.87056223  0.76461095  1
  Te  Te144  1  0.90554295  0.23363410  0.08552095  1
  Te  Te145  1  0.89488170  0.26751006  0.41604990  1
  Te  Te146  1  0.93060517  0.28135963  0.74699118  1
  Te  Te147  1  0.89871668  0.58724809  0.07216346  1
  Te  Te148  1  0.90727374  0.59219821  0.42186670  1
  Te  Te149  1  0.87850838  0.58714206  0.78045901  1
  Te  Te150  1  0.92532507  0.90128285  0.08830330  1
  Te  Te151  1  0.92726496  0.92901846  0.44299753  1
  Te  Te152  1  0.87658781  0.90618848  0.74209794  1
  Te  Te153  1  0.29075871  0.08625976  0.25381293  1
  Te  Te154  1  0.22588770  0.07741228  0.59533909  1
  Te  Te155  1  0.25976516  0.10207930  0.91105805  1
  Te  Te156  1  0.27168935  0.41289467  0.25802055  1
  Te  Te157  1  0.24042451  0.41367613  0.57022244  1
  Te  Te158  1  0.27592900  0.40223684  0.92396900  1
  Te  Te159  1  0.26689709  0.74926986  0.24769748  1
  Te  Te160  1  0.25602926  0.77129724  0.59815155  1
  Te  Te161  1  0.28561551  0.74668790  0.90918645  1
  Te  Te162  1  0.56833085  0.05484744  0.23552940  1
  Te  Te163  1  0.63150259  0.04037091  0.60935929  1
  Te  Te164  1  0.65402306  0.05767272  0.87948956  1
  Te  Te165  1  0.57710775  0.43989881  0.18402833  1
  Te  Te166  1  0.57270595  0.38114885  0.58978840  1
  Te  Te167  1  0.59911560  0.42659402  0.91379750  1
  Te  Te168  1  0.53725304  0.76282381  0.23640657  1
  Te  Te169  1  0.56773718  0.75156142  0.58876975  1
  Te  Te170  1  0.58968080  0.75665743  0.97792508  1
  Te  Te171  1  0.90708610  0.09141024  0.25682716  1
  Te  Te172  1  0.90828209  0.09162015  0.58651317  1
  Te  Te173  1  0.91005681  0.06115194  0.93136784  1
  Te  Te174  1  0.91489689  0.41818845  0.24417918  1
  Te  Te175  1  0.94104903  0.48330498  0.59519934  1
  Te  Te176  1  0.93195668  0.41156436  0.93045322  1
  Te  Te177  1  0.92391248  0.76671658  0.28002562  1
  Te  Te178  1  0.90017510  0.73172302  0.60879160  1
  Te  Te179  1  0.90718138  0.74627722  0.91326332  1
