# generated using pymatgen
data_In2Te3
_symmetry_space_group_name_H-M   'P 1'
_cell_length_a   18.90929299
_cell_length_b   18.90124965
_cell_length_c   18.89973861
_cell_angle_alpha   90.08966005
_cell_angle_beta   89.94919381
_cell_angle_gamma   89.87195476
_symmetry_Int_Tables_number   1
_chemical_formula_structural   In2Te3
_chemical_formula_sum   'In72 Te108'
_cell_volume   6754.91391866
_cell_formula_units_Z   36
loop_
 _symmetry_equiv_pos_site_id
 _symmetry_equiv_pos_as_xyz
  1  'x, y, z'
loop_
 _atom_site_type_symbol
 _atom_site_label
 _atom_site_symmetry_multiplicity
 _atom_site_fract_x
 _atom_site_fract_y
 _atom_site_fract_z
 _atom_site_occupancy
  In  In0  1  0.82850555  0.49997619  0.67857990  1
  In  In1  1  0.34323520  0.16204216  0.82758631  1
  In  In2  1  0.51682455  0.34202861  0.82365707  1
  In  In3  1  0.66084897  0.37300360  -0.02287963  1
  In  In4  1  0.47967800  0.00470927  0.16894532  1
  In  In5  1  0.34444355  0.47901025  0.50917588  1
  In  In6  1  0.11746383  0.17252976  -0.00825014  1
  In  In7  1  0.16877293  -0.01541516  0.83665821  1
  In  In8  1  -0.02053213  -0.00985857  0.30402891  1
  In  In9  1  0.14902760  0.61843697  0.53638814  1
  In  In10  1  0.81562009  -0.01054558  0.15292459  1
  In  In11  1  0.15129984  0.35595103  0.52777933  1
  In  In12  1  -0.01457225  0.47994858  0.50191669  1
  In  In13  1  0.00261879  0.51566274  0.14325465  1
  In  In14  1  0.30609256  0.33269754  0.33449904  1
  In  In15  1  0.66238968  0.83809487  0.19584793  1
  In  In16  1  0.16126633  0.49855361  -0.01031155  1
  In  In17  1  0.00272943  0.15708664  0.49581505  1
  In  In18  1  0.82107758  0.14615156  0.33319497  1
  In  In19  1  0.35463481  0.81687461  0.83824982  1
  In  In20  1  0.33769245  0.65103814  -0.03693176  1
  In  In21  1  0.33517703  0.36670595  -0.01509035  1
  In  In22  1  0.82377301  -0.01290192  0.52026794  1
  In  In23  1  0.18054001  0.82003086  0.68718095  1
  In  In24  1  0.66905451  0.32892057  0.66412780  1
  In  In25  1  0.84623885  0.16235343  -0.03440908  1
  In  In26  1  0.51467075  0.50936516  0.67777839  1
  In  In27  1  0.20794742  0.17829226  0.30513909  1
  In  In28  1  0.48797355  0.34241357  0.15513845  1
  In  In29  1  0.38620675  0.01279450  0.66368928  1
  In  In30  1  0.33605305  0.65717433  0.35984597  1
  In  In31  1  0.16857011  0.35306762  0.17675823  1
  In  In32  1  -0.02112429  0.81045201  0.14779457  1
  In  In33  1  0.83131308  -0.01278701  0.82873789  1
  In  In34  1  0.54276075  0.68020206  0.50818099  1
  In  In35  1  0.33209169  -0.00765716  0.00956940  1
  In  In36  1  0.17281248  0.01467415  0.48085698  1
  In  In37  1  0.66002476  0.34273637  0.35169559  1
  In  In38  1  -0.00904731  0.82134193  0.83741622  1
  In  In39  1  0.36345282  0.18782718  0.51128705  1
  In  In40  1  0.82300333  0.49543110  0.32511617  1
  In  In41  1  0.50998278  0.51627637  0.33526257  1
  In  In42  1  -0.00853451  0.38775096  0.71632875  1
  In  In43  1  0.66593600  0.19751189  0.15833728  1
  In  In44  1  0.15417350  0.68885519  0.14104997  1
  In  In45  1  -0.00568027  0.65723993  0.33053548  1
  In  In46  1  0.50555415  0.17226022  0.34012520  1
  In  In47  1  0.69247184  0.63422776  -0.00229008  1
  In  In48  1  0.33941165  0.83789955  0.17127984  1
  In  In49  1  -0.00564000  0.31932101  0.33726620  1
  In  In50  1  0.65527885  -0.03196125  0.68348690  1
  In  In51  1  0.84666235  0.35458350  0.86433302  1
  In  In52  1  0.36169924  0.00711729  0.30246222  1
  In  In53  1  0.49667308  0.32219947  0.52759674  1
  In  In54  1  0.83454400  0.33801839  0.12030866  1
  In  In55  1  0.83405928  0.18594652  0.68227813  1
  In  In56  1  0.84768205  0.65375862  0.18003621  1
  In  In57  1  0.50504489  0.84288564  -0.00328103  1
  In  In58  1  0.34170166  0.84630659  0.51407859  1
  In  In59  1  0.83667454  0.81519555  -0.00716684  1
  In  In60  1  0.01901228  -0.02639851  0.68342619  1
  In  In61  1  0.53112458  0.68094386  0.82068443  1
  In  In62  1  0.53238389  0.68363494  0.16650668  1
  In  In63  1  0.17139847  0.17402678  0.66700803  1
  In  In64  1  0.64233624  0.02828563  -0.04166578  1
  In  In65  1  0.33877329  0.65697310  0.69119932  1
  In  In66  1  0.14131029  0.82809953  0.33812134  1
  In  In67  1  0.32095204  0.16246058  0.13548273  1
  In  In68  1  0.64312322  -0.01806065  0.35762596  1
  In  In69  1  0.15071396  0.65465374  0.82976020  1
  In  In70  1  -0.02357317  0.81560753  0.52867476  1
  In  In71  1  0.78747543  0.68929958  0.50284337  1
  Te  Te72  1  0.12413110  0.09210784  0.11149330  1
  Te  Te73  1  0.07723581  0.08301070  0.38384236  1
  Te  Te74  1  0.08532999  0.08621540  0.75902497  1
  Te  Te75  1  0.07343210  0.40359668  0.06964837  1
  Te  Te76  1  0.08696271  0.41890414  0.40477486  1
  Te  Te77  1  0.11151245  0.38618151  0.80204426  1
  Te  Te78  1  0.04775292  0.72661096  0.04840776  1
  Te  Te79  1  0.08240665  0.72847292  0.43980748  1
  Te  Te80  1  0.06585323  0.73524228  0.73119345  1
  Te  Te81  1  0.43594599  0.09813597  0.05912851  1
  Te  Te82  1  0.42371704  0.07458328  0.42374498  1
  Te  Te83  1  0.46329063  0.09853257  0.75788310  1
  Te  Te84  1  0.40664311  0.44307490  0.08781111  1
  Te  Te85  1  0.42782010  0.39532000  0.40442693  1
  Te  Te86  1  0.42005322  0.40773961  0.72961958  1
  Te  Te87  1  0.41344750  0.74525158  0.06919125  1
  Te  Te88  1  0.42903088  0.75360877  0.42874550  1
  Te  Te89  1  0.44025517  0.76257569  0.72614166  1
  Te  Te90  1  0.73983054  0.09570145  0.07101499  1
  Te  Te91  1  0.73433304  0.07744928  0.43675661  1
  Te  Te92  1  0.74607100  0.08119200  0.74528254  1
  Te  Te93  1  0.74493318  0.44350744  0.07594937  1
  Te  Te94  1  0.74880179  0.42656325  0.43202452  1
  Te  Te95  1  0.74159408  0.41135403  0.76746594  1
  Te  Te96  1  0.74938914  0.75367602  0.10324328  1
  Te  Te97  1  0.71075023  0.76283613  0.40249993  1
  Te  Te98  1  0.68996824  0.81945341  0.73547534  1
  Te  Te99  1  0.08427535  0.24416589  0.24089362  1
  Te  Te100  1  0.06137383  0.25503431  0.59825357  1
  Te  Te101  1  0.06892653  0.27161653  0.89780832  1
  Te  Te102  1  0.09395785  0.58743494  0.24217327  1
  Te  Te103  1  0.05685632  0.53888879  0.61887935  1
  Te  Te104  1  0.05644778  0.56966996  0.90799865  1
  Te  Te105  1  0.07663452  0.90352517  0.22481982  1
  Te  Te106  1  0.10310853  0.91084765  0.57128001  1
  Te  Te107  1  0.07697971  0.90726638  0.92024160  1
  Te  Te108  1  0.40768142  0.23761577  0.24392282  1
  Te  Te109  1  0.39790138  0.27293325  0.62759206  1
  Te  Te110  1  0.41995455  0.26344939  0.91329596  1
  Te  Te111  1  0.42371722  0.60458177  0.24780815  1
  Te  Te112  1  0.42441907  0.59205458  0.57444496  1
  Te  Te113  1  0.43618096  0.57918085  0.87946184  1
  Te  Te114  1  0.44997917  0.88809819  0.26357831  1
  Te  Te115  1  0.45782261  0.90096629  0.59412540  1
  Te  Te116  1  0.42649179  0.93416218  0.90270006  1
  Te  Te117  1  0.76286405  0.26781699  0.25133250  1
  Te  Te118  1  0.74541949  0.23561868  0.57765545  1
  Te  Te119  1  0.74102449  0.25586575  0.91216509  1
  Te  Te120  1  0.73774653  0.58053130  0.24211364  1
  Te  Te121  1  0.73491503  0.59643540  0.61179533  1
  Te  Te122  1  0.76565900  0.59784656  0.87418882  1
  Te  Te123  1  0.75913957  0.92270893  0.27735793  1
  Te  Te124  1  0.73947309  0.87950135  0.58083762  1
  Te  Te125  1  0.73861606  0.91795750  0.92786034  1
  Te  Te126  1  0.24271720  0.27017051  0.06655125  1
  Te  Te127  1  0.23211316  0.24477631  0.44309141  1
  Te  Te128  1  0.24287120  0.25395323  0.76805311  1
  Te  Te129  1  0.24981291  0.59120798  0.07315992  1
  Te  Te130  1  0.24123572  0.56052500  0.42862825  1
  Te  Te131  1  0.23723556  0.56807720  0.74540234  1
  Te  Te132  1  0.24744444  0.88865437  0.06928212  1
  Te  Te133  1  0.25750782  0.91595652  0.40005057  1
  Te  Te134  1  0.27569501  0.92679450  0.74039016  1
  Te  Te135  1  0.57810605  0.26655364  0.05884677  1
  Te  Te136  1  0.59352143  0.23822973  0.44228947  1
  Te  Te137  1  0.58817652  0.23288361  0.74629926  1
  Te  Te138  1  0.57417582  0.58290129  0.06869132  1
  Te  Te139  1  0.60631022  0.56996624  0.43193355  1
  Te  Te140  1  0.62182156  0.59188685  0.74030436  1
  Te  Te141  1  0.59162990  0.92947539  0.08910387  1
  Te  Te142  1  0.57672013  0.91865769  0.47483030  1
  Te  Te143  1  0.58602183  0.90728845  0.80043438  1
  Te  Te144  1  0.92890473  0.24762684  0.05551823  1
  Te  Te145  1  0.89818350  0.24235352  0.42520932  1
  Te  Te146  1  0.92850296  0.25778370  0.77619921  1
  Te  Te147  1  0.89991254  0.58179091  0.06003560  1
  Te  Te148  1  0.90341687  0.58696859  0.42999135  1
  Te  Te149  1  0.89910104  0.56074761  0.79865158  1
  Te  Te150  1  0.91871674  0.92406677  0.06409927  1
  Te  Te151  1  0.92427894  0.91495845  0.42863158  1
  Te  Te152  1  0.90293081  0.89254105  0.73258377  1
  Te  Te153  1  0.24049893  0.05272127  0.21396186  1
  Te  Te154  1  0.26415030  0.07499951  0.58683266  1
  Te  Te155  1  0.24344396  0.08808962  0.92470091  1
  Te  Te156  1  0.26691749  0.43924085  0.24332893  1
  Te  Te157  1  0.24944797  0.42710282  0.60928455  1
  Te  Te158  1  0.25162785  0.43939239  0.88471479  1
  Te  Te159  1  0.24711334  0.74491552  0.26125996  1
  Te  Te160  1  0.25065230  0.73856164  0.57782731  1
  Te  Te161  1  0.23780634  0.75365316  0.90881882  1
  Te  Te162  1  0.59610807  0.08902241  0.24905815  1
  Te  Te163  1  0.57593249  0.03454822  0.57140969  1
  Te  Te164  1  0.57849722  0.12126912  0.86593488  1
  Te  Te165  1  0.58657249  0.41933197  0.24288490  1
  Te  Te166  1  0.59361238  0.42713490  0.57558978  1
  Te  Te167  1  0.56165082  0.45834741  0.90616777  1
  Te  Te168  1  0.60451933  0.73630270  0.29064163  1
  Te  Te169  1  0.62876801  0.75640434  0.60465414  1
  Te  Te170  1  0.60473250  0.74636491  0.93613066  1
  Te  Te171  1  0.90870654  0.09426289  0.21997684  1
  Te  Te172  1  0.92798410  0.07315837  0.59864741  1
  Te  Te173  1  0.93435951  0.06458269  0.90093682  1
  Te  Te174  1  0.92626140  0.41834947  0.24164411  1
  Te  Te175  1  0.90003418  0.39317731  0.59445277  1
  Te  Te176  1  0.92425678  0.47004529  0.92149046  1
  Te  Te177  1  0.90554123  0.76376780  0.27237596  1
  Te  Te178  1  0.89541752  0.71837841  0.60088750  1
  Te  Te179  1  0.87692928  0.73007377  0.87732599  1
