# generated using pymatgen
data_In2Te3
_symmetry_space_group_name_H-M   'P 1'
_cell_length_a   18.83554633
_cell_length_b   18.83624076
_cell_length_c   18.82808128
_cell_angle_alpha   89.97060660
_cell_angle_beta   89.91528816
_cell_angle_gamma   89.89858279
_symmetry_Int_Tables_number   1
_chemical_formula_structural   In2Te3
_chemical_formula_sum   'In72 Te108'
_cell_volume   6680.01299044
_cell_formula_units_Z   36
loop_
 _symmetry_equiv_pos_site_id
 _symmetry_equiv_pos_as_xyz
  1  'x, y, z'
loop_
 _atom_site_type_symbol
 _atom_site_label
 _atom_site_symmetry_multiplicity
 _atom_site_fract_x
 _atom_site_fract_y
 _atom_site_fract_z
 _atom_site_occupancy
  In  In0  1  0.66398867  0.67355948  0.69296827  1
  In  In1  1  0.16939184  0.31848552  0.50637243  1
  In  In2  1  0.00136308  0.48601194  0.49755832  1
  In  In3  1  0.01813519  0.04196132  0.35604967  1
  In  In4  1  0.67785882  0.68907139  0.01158695  1
  In  In5  1  0.33446369  0.47584546  0.48688461  1
  In  In6  1  0.84472433  0.67016398  0.83945163  1
  In  In7  1  -0.02447104  0.31029268  0.71634300  1
  In  In8  1  0.81098222  0.17572693  0.31478698  1
  In  In9  1  0.18837926  0.66893352  0.51680684  1
  In  In10  1  0.19625927  0.02589916  0.83240491  1
  In  In11  1  0.85192903  0.47838264  -0.00854927  1
  In  In12  1  0.34336442  0.64869481  0.00075555  1
  In  In13  1  0.16349587  0.17130066  0.67379353  1
  In  In14  1  0.46277178  0.45057339  0.68230278  1
  In  In15  1  0.00777829  0.29272467  -0.01861318  1
  In  In16  1  0.85656835  0.49102358  0.34016472  1
  In  In17  1  0.79793069  0.88748846  0.30292018  1
  In  In18  1  0.66771173  0.33240147  0.67450650  1
  In  In19  1  0.67250413  0.83918366  0.50771318  1
  In  In20  1  -0.01193798  0.02389441  0.00076268  1
  In  In21  1  0.64766863  0.02076446  0.64656544  1
  In  In22  1  0.33504902  0.84648878  0.16916458  1
  In  In23  1  0.63611524  0.50039199  0.16751140  1
  In  In24  1  -0.01690961  0.65350463  0.65742178  1
  In  In25  1  0.66447360  0.68221274  0.33561479  1
  In  In26  1  0.46668177  0.49909599  -0.00230127  1
  In  In27  1  0.14811802  0.82994640  0.65670496  1
  In  In28  1  0.48721182  0.16771006  0.00524337  1
  In  In29  1  0.68198945  0.17120154  0.82476694  1
  In  In30  1  -0.00723748  0.48555577  0.15666262  1
  In  In31  1  0.18397490  0.31638440  0.15733541  1
  In  In32  1  0.66613001  0.48602763  0.82561050  1
  In  In33  1  0.49841896  0.65358622  0.86243030  1
  In  In34  1  0.67346898  0.48374233  0.51701639  1
  In  In35  1  0.18526255  0.83375780  0.00058674  1
  In  In36  1  0.70247524  0.02713546  0.02121051  1
  In  In37  1  0.83318000  0.31368808  0.49968434  1
  In  In38  1  0.82367480  0.51341541  0.68370535  1
  In  In39  1  0.50764063  -0.02147946  0.83898383  1
  In  In40  1  -0.00388677  0.65884237  0.32245933  1
  In  In41  1  0.00077458  0.33208234  0.32894836  1
  In  In42  1  0.18262226  0.49489736  0.72072066  1
  In  In43  1  -0.00577690  0.86595872  0.16908443  1
  In  In44  1  0.85652290  0.01110908  0.49815729  1
  In  In45  1  0.50789319  0.82479969  0.31722379  1
  In  In46  1  0.50635508  0.32795102  0.15246501  1
  In  In47  1  0.49756838  0.17926130  0.66850518  1
  In  In48  1  0.30470838  0.03538811  0.31187449  1
  In  In49  1  -0.01604128  0.18206855  0.16005351  1
  In  In50  1  0.82987424  0.66254407  0.15226605  1
  In  In51  1  0.83996288  -0.00101019  0.83623310  1
  In  In52  1  0.32931813  0.80201553  0.85033210  1
  In  In53  1  0.65660677  0.31947917  0.00621771  1
  In  In54  1  0.34954581  0.65233578  0.32414986  1
  In  In55  1  0.50493457  0.85460588  0.68539990  1
  In  In56  1  0.33940324  0.04235260  0.00007613  1
  In  In57  1  0.49401349  0.67436905  0.20385866  1
  In  In58  1  0.16207035  0.65550787  0.14001681  1
  In  In59  1  0.01618871  0.01626096  0.66217386  1
  In  In60  1  0.48066467  0.65146609  0.49903249  1
  In  In61  1  0.46227396  0.49268084  0.33746235  1
  In  In62  1  0.00493267  0.82799926  0.84740544  1
  In  In63  1  -0.02131839  0.82285796  0.51070674  1
  In  In64  1  0.33666642  0.16205322  0.50711858  1
  In  In65  1  0.50586267  0.02093515  0.46940095  1
  In  In66  1  0.53375464  0.85048862  0.01050115  1
  In  In67  1  0.16962142  0.47705671  -0.05380765  1
  In  In68  1  0.33267522  0.18040595  0.84406430  1
  In  In69  1  0.32221228  0.00443327  0.65086871  1
  In  In70  1  0.33369211  0.31330252  0.30540658  1
  In  In71  1  0.17334339  0.84975824  0.34317077  1
  Te  Te72  1  0.08230381  0.08790746  0.09601002  1
  Te  Te73  1  0.12951053  0.10541709  0.42639544  1
  Te  Te74  1  0.07164298  0.10507369  0.78004433  1
  Te  Te75  1  0.08578541  0.39988635  0.07129289  1
  Te  Te76  1  0.10021092  0.41636711  0.40689885  1
  Te  Te77  1  0.07265831  0.40830703  0.77640644  1
  Te  Te78  1  0.07542972  0.76531308  0.08212321  1
  Te  Te79  1  0.08443461  0.74151557  0.41823012  1
  Te  Te80  1  0.07669991  0.73425257  0.74877415  1
  Te  Te81  1  0.43367077  0.07538917  0.11069406  1
  Te  Te82  1  0.42035859  0.11597271  0.38950705  1
  Te  Te83  1  0.41255776  0.07325112  0.75606058  1
  Te  Te84  1  0.39750056  0.39472586  0.07524524  1
  Te  Te85  1  0.42188136  0.37073519  0.41957695  1
  Te  Te86  1  0.36843339  0.38497514  0.77718946  1
  Te  Te87  1  0.42294794  0.75814641  0.07878222  1
  Te  Te88  1  0.41012626  0.75770235  0.41613690  1
  Te  Te89  1  0.42974484  0.74159239  0.75283334  1
  Te  Te90  1  0.78645525  0.09502627  0.12415244  1
  Te  Te91  1  0.74866042  0.07400679  0.41307412  1
  Te  Te92  1  0.76017413  0.08232023  0.73099082  1
  Te  Te93  1  0.73793545  0.42610464  0.08214221  1
  Te  Te94  1  0.74936973  0.40548986  0.41009670  1
  Te  Te95  1  0.77217726  0.39587029  0.76732508  1
  Te  Te96  1  0.76292377  0.77983268  0.08949975  1
  Te  Te97  1  0.76415483  0.76997016  0.40700350  1
  Te  Te98  1  0.76817211  0.75939475  0.74852842  1
  Te  Te99  1  0.09237345  0.23835662  0.25369843  1
  Te  Te100  1  0.06323520  0.25959707  0.59864738  1
  Te  Te101  1  0.10235367  0.22142264  0.89194516  1
  Te  Te102  1  0.08805515  0.56780381  0.24360917  1
  Te  Te103  1  0.09316499  0.57006654  0.58893960  1
  Te  Te104  1  0.10550738  0.60420276  0.91726699  1
  Te  Te105  1  0.09136589  0.94280069  0.25704603  1
  Te  Te106  1  0.08193304  0.92371308  0.55740324  1
  Te  Te107  1  0.10048526  0.93152669  0.91565879  1
  Te  Te108  1  0.41658186  0.22352170  0.21745565  1
  Te  Te109  1  0.38877428  0.25766749  0.60644178  1
  Te  Te110  1  0.40518537  0.27322661  0.93829969  1
  Te  Te111  1  0.39788726  0.55714630  0.21472191  1
  Te  Te112  1  0.40257099  0.56420806  0.59367388  1
  Te  Te113  1  0.37870077  0.55593335  0.87521289  1
  Te  Te114  1  0.41647053  0.93279154  0.26101775  1
  Te  Te115  1  0.43316379  0.93118996  0.57553704  1
  Te  Te116  1  0.40228311  0.91292107  0.92943402  1
  Te  Te117  1  0.72067394  0.24660402  0.21500464  1
  Te  Te118  1  0.74446160  0.23876560  0.59025170  1
  Te  Te119  1  0.76118206  0.24671407  0.92722190  1
  Te  Te120  1  0.75118283  0.57574495  0.25554393  1
  Te  Te121  1  0.74540635  0.59771518  0.58203406  1
  Te  Te122  1  0.74195034  0.57643078  0.92170956  1
  Te  Te123  1  0.71599165  0.99242367  0.21944004  1
  Te  Te124  1  0.75949966  0.93072103  0.58859404  1
  Te  Te125  1  0.74655307  0.92600507  0.92421886  1
  Te  Te126  1  0.28238394  0.21094983  0.11450350  1
  Te  Te127  1  0.23974595  0.23258556  0.40239387  1
  Te  Te128  1  0.25316126  0.26737380  0.74751580  1
  Te  Te129  1  0.24250225  0.55281538  0.06423232  1
  Te  Te130  1  0.24841970  0.57696219  0.41044893  1
  Te  Te131  1  0.27357178  0.59855434  0.76738772  1
  Te  Te132  1  0.25188634  0.94061243  0.08427434  1
  Te  Te133  1  0.27489624  0.92917451  0.41197905  1
  Te  Te134  1  0.25512154  0.90376635  0.75300064  1
  Te  Te135  1  0.60360552  0.21235703  0.10403613  1
  Te  Te136  1  0.65823815  0.20217445  0.34832544  1
  Te  Te137  1  0.57047057  0.26236311  0.77232205  1
  Te  Te138  1  0.56749122  0.59907151  0.07372540  1
  Te  Te139  1  0.58173109  0.57611704  0.41248674  1
  Te  Te140  1  0.56659816  0.56370483  0.73995377  1
  Te  Te141  1  0.58324679  0.96285579  0.09091727  1
  Te  Te142  1  0.59808565  0.91874577  0.40053233  1
  Te  Te143  1  0.62103690  0.91682914  0.75807394  1
  Te  Te144  1  0.89420968  0.25920395  0.07143927  1
  Te  Te145  1  0.92528519  0.23112738  0.41225351  1
  Te  Te146  1  0.89610202  0.22421274  0.80560791  1
  Te  Te147  1  0.93042127  0.58889836  0.06329711  1
  Te  Te148  1  0.91350684  0.59551814  0.43506343  1
  Te  Te149  1  0.93447558  0.56678666  0.77342078  1
  Te  Te150  1  0.90375035  0.92119893  0.06649406  1
  Te  Te151  1  0.92767059  0.91496254  0.39863544  1
  Te  Te152  1  0.93376606  0.91781647  0.74493986  1
  Te  Te153  1  0.22390049  0.10125919  0.20247670  1
  Te  Te154  1  0.21794567  0.07711689  0.56343243  1
  Te  Te155  1  0.22005813  0.13295671  0.94667903  1
  Te  Te156  1  0.24546763  0.41597048  0.24831216  1
  Te  Te157  1  0.23713863  0.42342547  0.59183739  1
  Te  Te158  1  0.26167143  0.37351826  0.89248239  1
  Te  Te159  1  0.24650885  0.74357447  0.24294329  1
  Te  Te160  1  0.26569328  0.76859944  0.59046605  1
  Te  Te161  1  0.21896914  0.70945883  0.91238233  1
  Te  Te162  1  0.60746782  0.06158349  0.29643113  1
  Te  Te163  1  0.58207838  0.12413627  0.55371072  1
  Te  Te164  1  0.58387200  0.08754103  0.91191491  1
  Te  Te165  1  0.57153026  0.40722332  0.26677736  1
  Te  Te166  1  0.56569544  0.39710142  0.57900260  1
  Te  Te167  1  0.57167697  0.41551682  0.92090055  1
  Te  Te168  1  0.61293510  0.76927493  0.22020815  1
  Te  Te169  1  0.57213930  0.74751535  0.58009380  1
  Te  Te170  1  0.59729027  0.76224141  0.90271199  1
  Te  Te171  1  0.91497565  0.07647210  0.24794376  1
  Te  Te172  1  0.92824361  0.10571194  0.58540172  1
  Te  Te173  1  0.89789366  0.11372223  0.91784513  1
  Te  Te174  1  0.89881536  0.39195351  0.23205930  1
  Te  Te175  1  0.90796247  0.41546659  0.59500036  1
  Te  Te176  1  0.95353432  0.41248414  0.90564337  1
  Te  Te177  1  0.91026434  0.75804518  0.24645166  1
  Te  Te178  1  0.88782144  0.75237886  0.60238319  1
  Te  Te179  1  0.90987166  0.75957399  0.93643722  1
