# generated using pymatgen
data_In2Te3
_symmetry_space_group_name_H-M   'P 1'
_cell_length_a   18.82471374
_cell_length_b   18.83321603
_cell_length_c   18.81797847
_cell_angle_alpha   90.12161800
_cell_angle_beta   89.95213538
_cell_angle_gamma   90.02528003
_symmetry_Int_Tables_number   1
_chemical_formula_structural   In2Te3
_chemical_formula_sum   'In72 Te108'
_cell_volume   6671.51803594
_cell_formula_units_Z   36
loop_
 _symmetry_equiv_pos_site_id
 _symmetry_equiv_pos_as_xyz
  1  'x, y, z'
loop_
 _atom_site_type_symbol
 _atom_site_label
 _atom_site_symmetry_multiplicity
 _atom_site_fract_x
 _atom_site_fract_y
 _atom_site_fract_z
 _atom_site_occupancy
  In  In0  1  0.47873757  0.48920464  -0.02312454  1
  In  In1  1  0.15650900  0.64251620  0.15541097  1
  In  In2  1  0.67046120  0.49421644  0.16204906  1
  In  In3  1  -0.00905560  0.18640224  0.18081225  1
  In  In4  1  0.02079524  0.00215664  0.35425467  1
  In  In5  1  0.18847975  0.21028799  -0.00148205  1
  In  In6  1  0.66550060  0.67070891  0.33295050  1
  In  In7  1  0.01776148  0.50600779  0.82198815  1
  In  In8  1  -0.04136754  0.80869605  0.18116613  1
  In  In9  1  0.82239006  0.84019940  -0.02815251  1
  In  In10  1  0.33786902  0.65804000  0.68433310  1
  In  In11  1  -0.00051798  0.65835440  0.65055112  1
  In  In12  1  0.83441738  0.13929101  0.64798779  1
  In  In13  1  0.32612313  0.18251049  0.17190415  1
  In  In14  1  0.47937591  0.82715629  -0.01246761  1
  In  In15  1  0.65718312  0.85029770  0.79667741  1
  In  In16  1  0.65175100  0.32030599  -0.02382607  1
  In  In17  1  0.00885794  0.01148672  -0.01076196  1
  In  In18  1  0.65554821  0.16729600  0.18267953  1
  In  In19  1  0.48990696  0.00165511  0.16962694  1
  In  In20  1  0.16318796  0.86401215  -0.00593165  1
  In  In21  1  0.34470330  0.82262765  0.82643178  1
  In  In22  1  0.01831827  0.17198195  0.83687552  1
  In  In23  1  0.14562093  0.84725961  0.63573989  1
  In  In24  1  0.16748270  0.65109899  0.49844586  1
  In  In25  1  0.52239732  0.83199272  0.34744942  1
  In  In26  1  0.68292179  0.33181421  0.32809752  1
  In  In27  1  0.83563314  0.33217681  0.84581172  1
  In  In28  1  0.82154593  -0.01320014  0.79743591  1
  In  In29  1  0.32277638  0.48657798  0.50761800  1
  In  In30  1  0.19870442  0.17892851  0.66497720  1
  In  In31  1  0.82617609  0.17491540  0.00901068  1
  In  In32  1  0.81819552  0.02384356  0.14908339  1
  In  In33  1  0.31924970  0.61965584  -0.00804504  1
  In  In34  1  -0.01602100  0.68111955  -0.00284010  1
  In  In35  1  0.65816874  0.51328887  0.84799358  1
  In  In36  1  0.81852090  0.50598597  0.00204861  1
  In  In37  1  0.35140148  0.63365522  0.31812570  1
  In  In38  1  0.32496336  0.35046059  0.32145257  1
  In  In39  1  0.63939995  0.30179801  0.68130494  1
  In  In40  1  0.49163182  0.33369449  0.50902116  1
  In  In41  1  0.16029908  0.80150139  0.36797020  1
  In  In42  1  0.84093893  0.82733182  0.34563453  1
  In  In43  1  0.66907114  -0.00111013  0.34991567  1
  In  In44  1  0.50222319  0.67720868  0.50380732  1
  In  In45  1  0.62841752  0.83561132  0.18910713  1
  In  In46  1  0.83285366  0.69107316  0.18888351  1
  In  In47  1  0.18099413  0.18733758  0.34457019  1
  In  In48  1  0.31816538  0.82491399  0.14819074  1
  In  In49  1  0.14628005  0.00014695  0.18579120  1
  In  In50  1  0.35486605  0.00016691  0.36862033  1
  In  In51  1  0.36108888  0.32580618  0.68734830  1
  In  In52  1  0.82478075  0.84982845  0.62697850  1
  In  In53  1  0.02358537  0.48119620  0.17835578  1
  In  In54  1  0.00995837  0.33880301  0.33784881  1
  In  In55  1  0.00728685  0.51222288  0.47849063  1
  In  In56  1  0.49732867  0.00819176  0.52436684  1
  In  In57  1  0.35249422  0.02128705  0.69032961  1
  In  In58  1  0.20385316  0.47797356  -0.02075155  1
  In  In59  1  0.15619095  0.00104068  0.83038398  1
  In  In60  1  0.66088100  0.66974230  -0.00407638  1
  In  In61  1  0.03096620  0.32297039  0.67732601  1
  In  In62  1  0.82070919  0.50610132  0.66414833  1
  In  In63  1  0.86111117  0.33236521  0.49670909  1
  In  In64  1  0.36737474  0.02571247  -0.04373980  1
  In  In65  1  0.65720318  0.14864390  0.51286028  1
  In  In66  1  0.33674733  0.86257220  0.50808235  1
  In  In67  1  0.49129575  0.34805640  0.16962957  1
  In  In68  1  0.81569064  0.16679023  0.35784815  1
  In  In69  1  0.17604001  0.65631605  0.82412097  1
  In  In70  1  0.67007539  0.66035792  0.66820705  1
  In  In71  1  0.65950016  0.47914688  0.51274111  1
  Te  Te72  1  0.09608796  0.09770735  0.07963661  1
  Te  Te73  1  0.10397431  0.09629196  0.43212920  1
  Te  Te74  1  0.08451334  0.08812696  0.73127340  1
  Te  Te75  1  0.09527930  0.41985896  0.06378837  1
  Te  Te76  1  0.10045656  0.41038805  0.42952207  1
  Te  Te77  1  0.11294284  0.40802568  0.76617010  1
  Te  Te78  1  0.08398431  0.76635579  0.08513918  1
  Te  Te79  1  0.06021168  0.75149112  0.46726318  1
  Te  Te80  1  0.08948031  0.74759069  0.73830550  1
  Te  Te81  1  0.41945270  0.10150828  0.07967537  1
  Te  Te82  1  0.41873883  0.10766788  0.44666421  1
  Te  Te83  1  0.41573271  0.12958369  0.77346889  1
  Te  Te84  1  0.40188113  0.38923426  0.05721084  1
  Te  Te85  1  0.42530447  0.42769008  0.41010328  1
  Te  Te86  1  0.37689680  0.44412092  0.78272503  1
  Te  Te87  1  0.40490808  0.72649292  0.07266848  1
  Te  Te88  1  0.39869995  0.75761885  0.41352208  1
  Te  Te89  1  0.44054375  0.74529712  0.74568175  1
  Te  Te90  1  0.70999175  0.08516595  0.06448263  1
  Te  Te91  1  0.76886541  0.05642595  0.45278843  1
  Te  Te92  1  0.72863260  0.08794971  0.73979027  1
  Te  Te93  1  0.74613420  0.39387082  0.07512404  1
  Te  Te94  1  0.76709845  0.42203300  0.41793483  1
  Te  Te95  1  0.74008170  0.41030919  0.75247818  1
  Te  Te96  1  0.74115902  0.76357301  0.08667489  1
  Te  Te97  1  0.73454677  0.76335929  0.42415263  1
  Te  Te98  1  0.76368446  0.75954332  0.73922367  1
  Te  Te99  1  0.10679916  0.26520594  0.23799746  1
  Te  Te100  1  0.08929542  0.23280010  0.57800195  1
  Te  Te101  1  0.07261586  0.27198179  0.93000404  1
  Te  Te102  1  0.08291431  0.58243395  0.26826170  1
  Te  Te103  1  0.10159388  0.55856794  0.59831211  1
  Te  Te104  1  0.09249128  0.58973428  0.93770247  1
  Te  Te105  1  0.07682855  0.88610498  0.25754053  1
  Te  Te106  1  0.04775957  0.93866932  0.57624827  1
  Te  Te107  1  0.05685349  0.90280118  0.89190176  1
  Te  Te108  1  0.42646307  0.24806863  0.26547865  1
  Te  Te109  1  0.42066038  0.23083876  0.58671702  1
  Te  Te110  1  0.42792638  0.22060743  0.90452041  1
  Te  Te111  1  0.44716394  0.58463927  0.22184817  1
  Te  Te112  1  0.41921633  0.57527557  0.58433867  1
  Te  Te113  1  0.41974373  0.59172199  0.88642702  1
  Te  Te114  1  0.41058030  0.90121631  0.25329455  1
  Te  Te115  1  0.42951020  0.90682158  0.61900300  1
  Te  Te116  1  0.44840895  0.92702604  0.87449194  1
  Te  Te117  1  0.77315569  0.24857449  0.23704120  1
  Te  Te118  1  0.74897076  0.26253133  0.57716383  1
  Te  Te119  1  0.73755356  0.22523753  0.89352904  1
  Te  Te120  1  0.75727303  0.57491643  0.25709627  1
  Te  Te121  1  0.75437032  0.59070416  0.55851972  1
  Te  Te122  1  0.76489171  0.60791469  0.90280748  1
  Te  Te123  1  0.74855215  0.91650037  0.24224085  1
  Te  Te124  1  0.72111721  0.93495064  0.56494009  1
  Te  Te125  1  0.72501483  0.93581600  0.90820858  1
  Te  Te126  1  0.26456773  0.29604020  0.09666840  1
  Te  Te127  1  0.25712345  0.27911214  0.43590227  1
  Te  Te128  1  0.24512139  0.27319537  0.77366322  1
  Te  Te129  1  0.26812765  0.54180074  0.11978334  1
  Te  Te130  1  0.24499254  0.56321094  0.40002033  1
  Te  Te131  1  0.25241795  0.55231046  0.74859677  1
  Te  Te132  1  0.26831859  0.94473282  0.06765319  1
  Te  Te133  1  0.22960667  0.92819545  0.42290370  1
  Te  Te134  1  0.24563857  0.90908709  0.74467662  1
  Te  Te135  1  0.57158042  0.24782790  0.08388255  1
  Te  Te136  1  0.59290528  0.25202524  0.42220081  1
  Te  Te137  1  0.53855503  0.23868615  0.77421415  1
  Te  Te138  1  0.57536468  0.56885813  0.06997456  1
  Te  Te139  1  0.58229091  0.57649440  0.42178270  1
  Te  Te140  1  0.57451576  0.57930063  0.74752666  1
  Te  Te141  1  0.57158689  0.91683306  0.07249290  1
  Te  Te142  1  0.60218330  0.90853403  0.45853821  1
  Te  Te143  1  0.59509590  0.95235086  0.71022711  1
  Te  Te144  1  0.92817606  0.26081656  0.07064497  1
  Te  Te145  1  0.93803937  0.22479312  0.42344741  1
  Te  Te146  1  0.90701079  0.24426301  0.74173524  1
  Te  Te147  1  0.90864824  0.58997258  0.09417528  1
  Te  Te148  1  0.91320348  0.59842542  0.41114963  1
  Te  Te149  1  0.90982002  0.59029820  0.75501961  1
  Te  Te150  1  0.91634486  0.92337164  0.07687122  1
  Te  Te151  1  0.92316790  0.91876529  0.42895495  1
  Te  Te152  1  0.92829594  0.92786874  0.70976161  1
  Te  Te153  1  0.26131401  0.07088135  0.25813490  1
  Te  Te154  1  0.26273518  0.07166595  0.58514778  1
  Te  Te155  1  0.24378650  0.09972076  0.90525060  1
  Te  Te156  1  0.24728093  0.42901567  0.22669479  1
  Te  Te157  1  0.26287644  0.36907306  0.57699985  1
  Te  Te158  1  0.28596770  0.38542575  0.89140043  1
  Te  Te159  1  0.24458308  0.73823499  0.24946879  1
  Te  Te160  1  0.25839146  0.74665021  0.58437124  1
  Te  Te161  1  0.24796808  0.75468235  0.92498507  1
  Te  Te162  1  0.56704967  0.08268781  0.27492851  1
  Te  Te163  1  0.58193657  0.08474885  0.62680316  1
  Te  Te164  1  0.53476336  0.12052039  0.89002085  1
  Te  Te165  1  0.58181792  0.42645942  0.26563540  1
  Te  Te166  1  0.56499866  0.41766875  0.61638855  1
  Te  Te167  1  0.56189523  0.39962792  0.88378904  1
  Te  Te168  1  0.54805300  0.71574948  0.23924675  1
  Te  Te169  1  0.58437825  0.75722360  0.59449308  1
  Te  Te170  1  0.58477779  0.75746801  0.90043653  1
  Te  Te171  1  0.91791228  0.07348684  0.25421818  1
  Te  Te172  1  0.93157033  0.04450163  0.58948591  1
  Te  Te173  1  0.90413858  0.08178282  0.90399954  1
  Te  Te174  1  0.91614301  0.41168348  0.25186637  1
  Te  Te175  1  0.93049778  0.42179521  0.59973492  1
  Te  Te176  1  0.92367793  0.43075366  0.91991397  1
  Te  Te177  1  0.94151743  0.70690432  0.30099239  1
  Te  Te178  1  0.91736222  0.74693349  0.56301650  1
  Te  Te179  1  0.91892352  0.76209125  0.89316017  1
