# generated using pymatgen
data_In2Te3
_symmetry_space_group_name_H-M   'P 1'
_cell_length_a   18.95435135
_cell_length_b   18.97323740
_cell_length_c   18.99936244
_cell_angle_alpha   89.56347059
_cell_angle_beta   90.21428800
_cell_angle_gamma   90.12905333
_symmetry_Int_Tables_number   1
_chemical_formula_structural   In2Te3
_chemical_formula_sum   'In72 Te108'
_cell_volume   6832.39047847
_cell_formula_units_Z   36
loop_
 _symmetry_equiv_pos_site_id
 _symmetry_equiv_pos_as_xyz
  1  'x, y, z'
loop_
 _atom_site_type_symbol
 _atom_site_label
 _atom_site_symmetry_multiplicity
 _atom_site_fract_x
 _atom_site_fract_y
 _atom_site_fract_z
 _atom_site_occupancy
  In  In0  1  0.51287036  0.17411429  0.28432393  1
  In  In1  1  0.46506862  0.31938782  0.49536342  1
  In  In2  1  0.35690361  -0.00032414  0.33372309  1
  In  In3  1  -0.02333615  0.16535215  0.84927266  1
  In  In4  1  0.31991028  0.64330075  -0.02197046  1
  In  In5  1  0.01535075  0.34402436  0.32441044  1
  In  In6  1  0.81716708  0.48386419  -0.01114166  1
  In  In7  1  0.86046562  0.50756026  0.34867244  1
  In  In8  1  0.01813783  0.52183406  0.48796558  1
  In  In9  1  0.01481055  0.19280213  0.49430956  1
  In  In10  1  0.70782214  0.83136554  0.63547924  1
  In  In11  1  0.17837717  0.31483488  0.16798733  1
  In  In12  1  0.03081631  0.85887648  0.15774101  1
  In  In13  1  0.33552687  0.31929065  0.69427408  1
  In  In14  1  -0.00188902  0.01148559  0.00708852  1
  In  In15  1  0.34632915  0.14757635  0.15340701  1
  In  In16  1  0.75202502  -0.02524517  0.79813666  1
  In  In17  1  0.67265908  0.83887413  0.16636840  1
  In  In18  1  0.18329787  0.07567435  0.46713158  1
  In  In19  1  0.65344866  0.33992265  0.67871551  1
  In  In20  1  0.82853650  -0.00844983  0.48602707  1
  In  In21  1  0.64251914  0.00037239  -0.02030926  1
  In  In22  1  0.21254692  -0.02672785  0.17051341  1
  In  In23  1  0.82053556  0.35365990  0.49941378  1
  In  In24  1  0.64359854  0.17463428  0.49183158  1
  In  In25  1  0.34165466  0.66242791  0.69000437  1
  In  In26  1  0.30438646  0.31325963  0.35278427  1
  In  In27  1  -0.02329845  -0.00947345  0.65329637  1
  In  In28  1  0.32187880  0.51266592  0.49424324  1
  In  In29  1  0.02748587  0.49097293  0.16639134  1
  In  In30  1  0.15427915  0.82997439  0.66996879  1
  In  In31  1  0.48679985  0.00471477  0.50440358  1
  In  In32  1  0.84131882  0.85066931  0.00147904  1
  In  In33  1  0.49299551  0.50384914  0.00279751  1
  In  In34  1  0.48496263  0.81985009  -0.02485525  1
  In  In35  1  0.84922805  0.29746683  0.14437573  1
  In  In36  1  0.17832683  0.47979224  -0.01143535  1
  In  In37  1  0.51444966  0.52318678  0.32219485  1
  In  In38  1  0.16770843  0.14624809  -0.00999120  1
  In  In39  1  0.33606781  0.83294846  0.49806426  1
  In  In40  1  0.17017195  0.01765749  0.85649712  1
  In  In41  1  0.61296434  0.67707753  0.66203122  1
  In  In42  1  0.50060016  0.34040331  0.85538553  1
  In  In43  1  0.68776240  0.49744165  0.15599943  1
  In  In44  1  0.19414659  0.69724014  0.20077138  1
  In  In45  1  0.81553833  0.14704956  0.68940222  1
  In  In46  1  0.16613537  0.15330455  0.67151079  1
  In  In47  1  0.65879426  0.70524619  0.33323278  1
  In  In48  1  0.16668145  0.52324112  0.33880892  1
  In  In49  1  0.85291283  0.66235786  0.17946562  1
  In  In50  1  0.02261930  0.67797078  0.02529501  1
  In  In51  1  0.83110765  0.67778810  0.52490551  1
  In  In52  1  0.84454965  0.47220624  0.67802191  1
  In  In53  1  0.63411324  -0.00156401  0.35579189  1
  In  In54  1  0.00439231  0.48744846  0.82978302  1
  In  In55  1  0.84621266  0.84198562  0.32653104  1
  In  In56  1  0.36164018  0.15056450  0.84679620  1
  In  In57  1  0.65616444  0.65558086  -0.00793432  1
  In  In58  1  0.04339184  0.81632420  0.48805553  1
  In  In59  1  0.65978137  0.29586045  0.26385794  1
  In  In60  1  -0.00659834  0.85289595  0.83120235  1
  In  In61  1  0.47327011  0.48734321  0.67328359  1
  In  In62  1  0.88445746  0.13470580  0.31909747  1
  In  In63  1  0.00429521  0.65102864  0.65660873  1
  In  In64  1  0.34478861  0.01794854  0.68819694  1
  In  In65  1  0.46415351  0.69876567  0.15245345  1
  In  In66  1  0.81231069  0.14639600  -0.00230497  1
  In  In67  1  0.82698341  0.31426805  0.84568307  1
  In  In68  1  0.34843126  0.50088283  0.15675504  1
  In  In69  1  0.19656429  0.49575670  0.69005717  1
  In  In70  1  0.34959135  0.82747336  0.83238039  1
  In  In71  1  0.64871803  0.51672958  0.48437854  1
  Te  Te72  1  0.10461570  0.06380729  0.09889214  1
  Te  Te73  1  0.05303383  0.09085145  0.39706718  1
  Te  Te74  1  0.06150651  0.06800353  0.75400570  1
  Te  Te75  1  0.08536325  0.39123310  0.07231239  1
  Te  Te76  1  0.10420935  0.41364979  0.42453678  1
  Te  Te77  1  0.09953801  0.40702064  0.75534303  1
  Te  Te78  1  0.12870476  0.76980681  0.08233126  1
  Te  Te79  1  0.13276883  0.72381116  0.42419629  1
  Te  Te80  1  0.06995962  0.74393409  0.76109715  1
  Te  Te81  1  0.46459403  0.07344473  0.10127045  1
  Te  Te82  1  0.43621922  0.10689956  0.40416937  1
  Te  Te83  1  0.45651197  0.06171237  0.77517759  1
  Te  Te84  1  0.39053588  0.40399200  0.05241539  1
  Te  Te85  1  0.41303397  0.43177746  0.40104247  1
  Te  Te86  1  0.38848581  0.42835513  0.78669534  1
  Te  Te87  1  0.36244036  0.76722129  0.06151250  1
  Te  Te88  1  0.38259410  0.75606216  0.38361134  1
  Te  Te89  1  0.43823083  0.76349112  0.73524359  1
  Te  Te90  1  0.73027478  0.05816936  0.08136867  1
  Te  Te91  1  0.74550667  0.09920520  0.40917984  1
  Te  Te92  1  0.71023337  0.11809546  0.78734872  1
  Te  Te93  1  0.74280661  0.38230720  0.07380968  1
  Te  Te94  1  0.73807459  0.42994108  0.39625435  1
  Te  Te95  1  0.74061376  0.41807462  0.77387833  1
  Te  Te96  1  0.76089197  0.74154385  0.08816274  1
  Te  Te97  1  0.75696822  0.77085606  0.42806428  1
  Te  Te98  1  0.74126520  0.71751328  0.72384905  1
  Te  Te99  1  0.08061347  0.24018413  0.24771480  1
  Te  Te100  1  0.08981609  0.25679145  0.60097210  1
  Te  Te101  1  0.08798603  0.23901956  0.90794938  1
  Te  Te102  1  0.07628585  0.60536344  0.24919598  1
  Te  Te103  1  0.11561997  0.58023039  0.58693967  1
  Te  Te104  1  0.08119149  0.57892321  0.92654819  1
  Te  Te105  1  0.12412204  0.89738302  0.26319680  1
  Te  Te106  1  0.09456140  0.93519334  0.57793607  1
  Te  Te107  1  0.08790202  0.91435802  0.93233543  1
  Te  Te108  1  0.39309525  0.26566265  0.24470210  1
  Te  Te109  1  0.43730329  0.24192761  0.61813481  1
  Te  Te110  1  0.44045053  0.23378119  0.94388158  1
  Te  Te111  1  0.40282904  0.60223667  0.25463784  1
  Te  Te112  1  0.41903798  0.59237349  0.57715378  1
  Te  Te113  1  0.44327862  0.60603176  0.90672568  1
  Te  Te114  1  0.37252974  0.91326195  0.20908845  1
  Te  Te115  1  0.41343333  0.91404608  0.60371012  1
  Te  Te116  1  0.44572491  0.93045649  0.88235898  1
  Te  Te117  1  0.77393433  0.19985003  0.23246456  1
  Te  Te118  1  0.74718032  0.25357920  0.58828069  1
  Te  Te119  1  0.72386277  0.22954937  0.90986814  1
  Te  Te120  1  0.74418455  0.59716788  0.26567456  1
  Te  Te121  1  0.75908405  0.55670820  0.58002567  1
  Te  Te122  1  0.76028436  0.59385036  0.91176581  1
  Te  Te123  1  0.74002285  0.92995864  0.26567107  1
  Te  Te124  1  0.72049867  0.97681955  0.58705587  1
  Te  Te125  1  0.72172852  0.88120337  0.91772580  1
  Te  Te126  1  0.25985416  0.24002268  0.06694476  1
  Te  Te127  1  0.23517739  0.21928591  0.43694406  1
  Te  Te128  1  0.24861071  0.22691711  0.77735938  1
  Te  Te129  1  0.23463324  0.58331173  0.09732040  1
  Te  Te130  1  0.25005660  0.62154416  0.41565272  1
  Te  Te131  1  0.24356663  0.60117294  0.78325507  1
  Te  Te132  1  0.30728528  0.92066064  0.06971602  1
  Te  Te133  1  0.25541541  0.94391185  0.43235395  1
  Te  Te134  1  0.23751354  0.92618110  0.75547773  1
  Te  Te135  1  0.57341102  0.23828952  0.16071491  1
  Te  Te136  1  0.58091289  0.27888049  0.40161558  1
  Te  Te137  1  0.55131943  0.25590368  0.74387915  1
  Te  Te138  1  0.57731143  0.59958616  0.10916836  1
  Te  Te139  1  0.56371461  0.62586115  0.42260671  1
  Te  Te140  1  0.58243820  0.55694943  0.73996469  1
  Te  Te141  1  0.56964866  0.89777010  0.07282203  1
  Te  Te142  1  0.55783208  0.89725071  0.43107613  1
  Te  Te143  1  0.63302365  0.91870966  0.73051535  1
  Te  Te144  1  0.92934676  0.20978854  0.06202805  1
  Te  Te145  1  0.90047778  0.26982672  0.40235756  1
  Te  Te146  1  0.91344160  0.25117855  0.73898092  1
  Te  Te147  1  0.91946694  0.57047631  0.07988449  1
  Te  Te148  1  0.92752465  0.62189804  0.41786687  1
  Te  Te149  1  0.91132238  0.58336691  0.75522082  1
  Te  Te150  1  0.90004434  0.93842349  0.11035324  1
  Te  Te151  1  0.93984489  0.91377688  0.42105468  1
  Te  Te152  1  0.88477172  0.91287673  0.74388862  1
  Te  Te153  1  0.25721281  0.08984352  0.25968853  1
  Te  Te154  1  0.28085840  0.10725030  0.58443727  1
  Te  Te155  1  0.28666951  0.05656071  0.94307250  1
  Te  Te156  1  0.24554557  0.42563643  0.25308698  1
  Te  Te157  1  0.26682023  0.40647332  0.58655915  1
  Te  Te158  1  0.29571867  0.41837776  0.92963711  1
  Te  Te159  1  0.28695961  0.79390253  0.27134527  1
  Te  Te160  1  0.25313126  0.74695153  0.59562598  1
  Te  Te161  1  0.24476170  0.73599704  0.88694176  1
  Te  Te162  1  0.55697326  0.03937610  0.23368568  1
  Te  Te163  1  0.58541378  0.08051217  0.58859611  1
  Te  Te164  1  0.54076209  0.11053853  0.97239552  1
  Te  Te165  1  0.57457639  0.42388114  0.22692771  1
  Te  Te166  1  0.57117566  0.41444912  0.56666284  1
  Te  Te167  1  0.59269051  0.42098345  0.93728500  1
  Te  Te168  1  0.55691375  0.77739913  0.24682191  1
  Te  Te169  1  0.58955908  0.78187137  0.55991901  1
  Te  Te170  1  0.56369668  0.72205323  0.89621860  1
  Te  Te171  1  0.93068335  0.03144140  0.23153471  1
  Te  Te172  1  0.90929685  0.10025457  0.57116368  1
  Te  Te173  1  0.89526574  0.05107495  0.90356979  1
  Te  Te174  1  0.90439400  0.41855244  0.23373713  1
  Te  Te175  1  0.93665207  0.41963949  0.57093883  1
  Te  Te176  1  0.92395030  0.39862157  0.92555661  1
  Te  Te177  1  0.94362353  0.76259134  0.24358901  1
  Te  Te178  1  0.93653901  0.76761921  0.58681054  1
  Te  Te179  1  0.92825912  0.75164341  0.92949734  1
