# generated using pymatgen
data_In2Te3
_symmetry_space_group_name_H-M   'P 1'
_cell_length_a   18.87774353
_cell_length_b   18.87282631
_cell_length_c   18.88500680
_cell_angle_alpha   90.05342848
_cell_angle_beta   89.99961167
_cell_angle_gamma   89.99442579
_symmetry_Int_Tables_number   1
_chemical_formula_structural   In2Te3
_chemical_formula_sum   'In72 Te108'
_cell_volume   6728.27880368
_cell_formula_units_Z   36
loop_
 _symmetry_equiv_pos_site_id
 _symmetry_equiv_pos_as_xyz
  1  'x, y, z'
loop_
 _atom_site_type_symbol
 _atom_site_label
 _atom_site_symmetry_multiplicity
 _atom_site_fract_x
 _atom_site_fract_y
 _atom_site_fract_z
 _atom_site_occupancy
  In  In0  1  0.49830589  -0.00405524  0.55015606  1
  In  In1  1  0.66006238  0.19819339  0.15804245  1
  In  In2  1  0.68282906  0.17088395  0.51127196  1
  In  In3  1  0.15278837  0.19390944  0.32392380  1
  In  In4  1  -0.00332483  0.16059963  0.82948132  1
  In  In5  1  0.83204629  0.16093457  0.66821699  1
  In  In6  1  0.66422857  0.68404871  -0.03217310  1
  In  In7  1  0.14391721  0.48658363  0.30293748  1
  In  In8  1  0.53645443  0.52127689  0.67750195  1
  In  In9  1  0.14660633  0.47535626  0.03300206  1
  In  In10  1  0.49790135  0.82657800  0.33386158  1
  In  In11  1  0.65927283  -0.01356198  0.69160131  1
  In  In12  1  0.17232395  0.66831814  0.81714176  1
  In  In13  1  0.66227842  0.32000568  0.69233577  1
  In  In14  1  0.34227983  0.17791522  0.11254080  1
  In  In15  1  0.52114293  0.65823355  0.51087243  1
  In  In16  1  0.30692671  0.31148363  0.32470569  1
  In  In17  1  0.26527172  -0.01310698  -0.01228587  1
  In  In18  1  0.85607397  0.48963168  0.33166361  1
  In  In19  1  0.17635084  0.83915622  0.34308470  1
  In  In20  1  0.66958220  0.52962395  0.48308663  1
  In  In21  1  0.34930872  0.66772961  0.32384595  1
  In  In22  1  0.32311565  0.63810908  -0.00011234  1
  In  In23  1  0.35764571  0.50414319  0.83921473  1
  In  In24  1  0.01649397  0.69569514  -0.00104710  1
  In  In25  1  0.50189838  0.17961379  0.00940859  1
  In  In26  1  0.15235848  0.82312340  0.67317058  1
  In  In27  1  0.29779106  -0.01206455  0.34021264  1
  In  In28  1  0.67516171  -0.01093117  0.00336199  1
  In  In29  1  0.82808901  0.68608438  0.52966270  1
  In  In30  1  0.33962272  0.18686885  0.49291676  1
  In  In31  1  0.49586417  0.34853696  0.14297910  1
  In  In32  1  0.81776683  0.33700921  0.83723550  1
  In  In33  1  0.12052318  0.16665228  0.03021694  1
  In  In34  1  0.48878129  -0.01654446  0.84556632  1
  In  In35  1  0.48757941  0.34335846  0.50473321  1
  In  In36  1  0.15682871  0.50409486  0.68031268  1
  In  In37  1  0.50546595  0.64697005  0.14443015  1
  In  In38  1  0.50043026  0.15232393  0.33608920  1
  In  In39  1  0.15366488  0.33405089  0.81764460  1
  In  In40  1  0.15947537  0.66719440  0.51133277  1
  In  In41  1  -0.00251395  0.68145923  0.68080967  1
  In  In42  1  0.64122536  0.66923713  0.34817306  1
  In  In43  1  0.33351457  0.80666262  0.82162724  1
  In  In44  1  0.34713376  0.14114249  0.86882922  1
  In  In45  1  0.33489920  -0.01343431  0.68330822  1
  In  In46  1  0.16212892  0.02869590  0.16859123  1
  In  In47  1  0.82898673  0.00663805  0.49113517  1
  In  In48  1  0.00487862  0.65573606  0.33537008  1
  In  In49  1  0.14828929  0.14878677  0.68048478  1
  In  In50  1  0.86370819  0.84284492  0.00305348  1
  In  In51  1  -0.02096836  0.03251157  0.32729186  1
  In  In52  1  0.32768007  0.33371764  0.00993638  1
  In  In53  1  0.85012138  0.66323371  0.17309255  1
  In  In54  1  -0.02249839  0.52579095  0.84672217  1
  In  In55  1  0.70440414  0.67175613  0.70648773  1
  In  In56  1  0.33698218  0.34806014  0.67980538  1
  In  In57  1  -0.00135903  0.33203464  0.31771862  1
  In  In58  1  0.69224362  0.33348847  0.31682717  1
  In  In59  1  0.32329516  0.49683771  0.49235277  1
  In  In60  1  0.16166746  -0.01614347  0.51780581  1
  In  In61  1  0.00261009  0.19618984  0.49916680  1
  In  In62  1  0.70062937  -0.02495797  0.33239529  1
  In  In63  1  0.67788637  0.49843915  0.15280973  1
  In  In64  1  0.84306841  -0.01003710  0.80999884  1
  In  In65  1  0.67175997  0.86199187  0.13992822  1
  In  In66  1  0.83582663  0.82306032  0.31212862  1
  In  In67  1  0.33391040  0.82705246  0.18146450  1
  In  In68  1  0.64112373  0.84170545  0.52216811  1
  In  In69  1  0.86526020  0.18223679  0.00768266  1
  In  In70  1  0.82628050  0.50922021  0.00125960  1
  In  In71  1  0.53945042  -0.01638748  0.14407391  1
  Te  Te72  1  0.04896952  0.03872690  0.06896504  1
  Te  Te73  1  0.09812862  0.08341639  0.42132828  1
  Te  Te74  1  0.05052313  0.05653586  0.73782856  1
  Te  Te75  1  0.04475999  0.39350344  0.10246157  1
  Te  Te76  1  0.07192601  0.42128832  0.41585894  1
  Te  Te77  1  0.05077930  0.42390938  0.75150716  1
  Te  Te78  1  0.10383204  0.78954539  0.06601696  1
  Te  Te79  1  0.07529463  0.75833963  0.42391311  1
  Te  Te80  1  0.06354369  0.76933519  0.78788599  1
  Te  Te81  1  0.42184716  0.05778631  0.07246413  1
  Te  Te82  1  0.41723659  0.06879828  0.43310396  1
  Te  Te83  1  0.42705676  0.08792048  0.75168585  1
  Te  Te84  1  0.41233311  0.44042263  0.06602505  1
  Te  Te85  1  0.40215172  0.40683639  0.39691109  1
  Te  Te86  1  0.45020586  0.41870535  0.75283734  1
  Te  Te87  1  0.40961929  0.74528184  0.08026668  1
  Te  Te88  1  0.41923742  0.74687190  0.43453556  1
  Te  Te89  1  0.42043942  0.76248413  0.71329284  1
  Te  Te90  1  0.74634704  0.10386119  0.07263758  1
  Te  Te91  1  0.75739679  0.10278713  0.39715582  1
  Te  Te92  1  0.73869555  0.09261574  0.76679438  1
  Te  Te93  1  0.77156376  0.40389785  0.09069611  1
  Te  Te94  1  0.75825488  0.41853343  0.42396980  1
  Te  Te95  1  0.73662447  0.42991189  0.75546593  1
  Te  Te96  1  0.75602592  0.74386338  0.08367370  1
  Te  Te97  1  0.73809578  0.76309433  0.42213854  1
  Te  Te98  1  0.79775936  0.76988898  0.77203729  1
  Te  Te99  1  0.03785317  0.21238576  0.23035229  1
  Te  Te100  1  0.08188080  0.26217141  0.61195187  1
  Te  Te101  1  0.06839517  0.26244205  0.91915373  1
  Te  Te102  1  0.07696038  0.59173307  0.22437165  1
  Te  Te103  1  0.06311932  0.57665559  0.58537408  1
  Te  Te104  1  0.10436281  0.57356346  0.91646312  1
  Te  Te105  1  0.08857642  0.93892582  0.26954774  1
  Te  Te106  1  0.06046408  0.90368187  0.58709881  1
  Te  Te107  1  0.14511663  0.95600986  0.91009455  1
  Te  Te108  1  0.43009295  0.23890103  0.23210890  1
  Te  Te109  1  0.42686498  0.24647212  0.60304294  1
  Te  Te110  1  0.42153668  0.26694510  0.90729343  1
  Te  Te111  1  0.42064865  0.57266225  0.23791249  1
  Te  Te112  1  0.42160365  0.56805968  0.58375078  1
  Te  Te113  1  0.43096658  0.61468900  0.90167380  1
  Te  Te114  1  0.42030825  0.93243678  0.25400474  1
  Te  Te115  1  0.42386444  0.88369385  0.61526850  1
  Te  Te116  1  0.38229493  0.90916695  0.92376289  1
  Te  Te117  1  0.77720448  0.25943974  0.22378651  1
  Te  Te118  1  0.76649934  0.27109653  0.58596442  1
  Te  Te119  1  0.75730423  0.22708443  0.91632069  1
  Te  Te120  1  0.74942948  0.59187491  0.26432609  1
  Te  Te121  1  0.75724409  0.57176127  0.59945712  1
  Te  Te122  1  0.73952768  0.57455496  0.89907819  1
  Te  Te123  1  0.78783171  0.93645332  0.20988273  1
  Te  Te124  1  0.75203507  0.91897253  0.59074831  1
  Te  Te125  1  0.75994971  0.90556871  0.91026125  1
  Te  Te126  1  0.22041410  0.26445367  0.09633581  1
  Te  Te127  1  0.22140497  0.26645871  0.44138095  1
  Te  Te128  1  0.25790318  0.24112596  0.75415048  1
  Te  Te129  1  0.23533170  0.57188878  0.09929624  1
  Te  Te130  1  0.23700998  0.58309477  0.40194916  1
  Te  Te131  1  0.27155315  0.58359655  0.73910235  1
  Te  Te132  1  0.21721412  0.89342132  0.10825161  1
  Te  Te133  1  0.26789434  0.89286970  0.45334529  1
  Te  Te134  1  0.23021432  0.91939416  0.76801028  1
  Te  Te135  1  0.60404642  0.29559280  0.04490335  1
  Te  Te136  1  0.58238327  0.25160333  0.41826388  1
  Te  Te137  1  0.59573475  0.25568307  0.80774495  1
  Te  Te138  1  0.59249665  0.56851149  0.04863417  1
  Te  Te139  1  0.54901940  0.56011536  0.39520465  1
  Te  Te140  1  0.60287166  0.59626093  0.78754295  1
  Te  Te141  1  0.56318814  0.87898949  0.03280953  1
  Te  Te142  1  0.57994947  0.93442691  0.41680993  1
  Te  Te143  1  0.58336785  0.88810107  0.77624491  1
  Te  Te144  1  0.96748104  0.25502720  0.09224164  1
  Te  Te145  1  0.90009240  0.25249809  0.40037830  1
  Te  Te146  1  0.91675110  0.25912426  0.74604996  1
  Te  Te147  1  0.93517161  0.58871432  0.07387309  1
  Te  Te148  1  0.90616227  0.59257974  0.43188671  1
  Te  Te149  1  0.89781172  0.59073051  0.74170838  1
  Te  Te150  1  0.93207791  0.93696458  0.09415996  1
  Te  Te151  1  0.91550487  0.91567949  0.40504808  1
  Te  Te152  1  0.89804235  0.87677101  0.73210703  1
  Te  Te153  1  0.26648473  0.10867071  0.25401589  1
  Te  Te154  1  0.26107208  0.08451145  0.58451042  1
  Te  Te155  1  0.20524936  0.10992893  0.90975060  1
  Te  Te156  1  0.24294768  0.40324950  0.23063111  1
  Te  Te157  1  0.23714983  0.41331637  0.58580262  1
  Te  Te158  1  0.24652923  0.41882210  0.90516362  1
  Te  Te159  1  0.23428753  0.73407096  0.24938851  1
  Te  Te160  1  0.24986447  0.73481392  0.60554098  1
  Te  Te161  1  0.24087545  0.74594097  0.92812562  1
  Te  Te162  1  0.60262918  0.08010819  0.24577461  1
  Te  Te163  1  0.59109196  0.10030822  0.60973638  1
  Te  Te164  1  0.57918807  0.07953390  0.92352083  1
  Te  Te165  1  0.58753497  0.41739352  0.24559518  1
  Te  Te166  1  0.59707078  0.42098595  0.57489586  1
  Te  Te167  1  0.57878880  0.36324600  0.90646921  1
  Te  Te168  1  0.59043318  0.76107978  0.23091114  1
  Te  Te169  1  0.59389128  0.73777341  0.61834713  1
  Te  Te170  1  0.58297223  0.78088078  0.89228644  1
  Te  Te171  1  0.88996294  0.05697060  0.21278768  1
  Te  Te172  1  0.92584524  0.08416406  0.57737390  1
  Te  Te173  1  0.91772402  0.06577969  0.91846146  1
  Te  Te174  1  0.93720865  0.43172319  0.22118883  1
  Te  Te175  1  0.96529639  0.34375138  0.51425252  1
  Te  Te176  1  0.91848549  0.41165111  0.92654055  1
  Te  Te177  1  0.94852414  0.76227103  0.23245031  1
  Te  Te178  1  0.93068545  0.77745877  0.58454249  1
  Te  Te179  1  0.90038839  0.73075796  0.91201702  1
