# generated using pymatgen
data_In2Te3
_symmetry_space_group_name_H-M   'P 1'
_cell_length_a   18.92334654
_cell_length_b   18.92950924
_cell_length_c   18.94402069
_cell_angle_alpha   90.00161286
_cell_angle_beta   90.11586940
_cell_angle_gamma   90.11021460
_symmetry_Int_Tables_number   1
_chemical_formula_structural   In2Te3
_chemical_formula_sum   'In72 Te108'
_cell_volume   6785.90483557
_cell_formula_units_Z   36
loop_
 _symmetry_equiv_pos_site_id
 _symmetry_equiv_pos_as_xyz
  1  'x, y, z'
loop_
 _atom_site_type_symbol
 _atom_site_label
 _atom_site_symmetry_multiplicity
 _atom_site_fract_x
 _atom_site_fract_y
 _atom_site_fract_z
 _atom_site_occupancy
  In  In0  1  0.16528629  0.83733655  0.32803957  1
  In  In1  1  0.51904887  0.66510174  0.83540658  1
  In  In2  1  0.66065117  0.50748920  0.50417163  1
  In  In3  1  0.84184341  0.84399412  0.65659059  1
  In  In4  1  0.84678984  0.01207839  0.13140111  1
  In  In5  1  0.85979508  0.65139054  0.18704741  1
  In  In6  1  0.04595164  0.64752762  0.34233866  1
  In  In7  1  0.19665732  0.89891470  0.01248654  1
  In  In8  1  0.21405635  0.31703543  0.52465437  1
  In  In9  1  0.34731453  0.65372540  0.66175413  1
  In  In10  1  0.65008240  0.04248596  0.32458352  1
  In  In11  1  0.66545276  0.65541003  0.32960463  1
  In  In12  1  0.19191539  0.51534763  -0.01448126  1
  In  In13  1  0.83080602  0.16732574  -0.01769766  1
  In  In14  1  0.32097781  0.02276646  0.30411162  1
  In  In15  1  0.47358863  0.85354877  0.33312396  1
  In  In16  1  0.48987685  0.83737778  -0.02402943  1
  In  In17  1  0.41224294  0.10609421  0.89996357  1
  In  In18  1  -0.01271782  0.65466969  0.67286277  1
  In  In19  1  0.66021537  0.44369248  0.10002388  1
  In  In20  1  0.19310870  0.20309578  0.32168040  1
  In  In21  1  0.18696413  0.04517086  0.83739999  1
  In  In22  1  0.64753914  0.19453646  0.81704136  1
  In  In23  1  0.63729324  0.02590713  0.68815836  1
  In  In24  1  0.01601866  0.35998209  0.32606237  1
  In  In25  1  0.67050342  0.60720761  0.00233542  1
  In  In26  1  0.32057601  0.87656247  0.82028450  1
  In  In27  1  0.30151509  0.64854318  0.36628286  1
  In  In28  1  0.16483788  0.47299687  0.67791992  1
  In  In29  1  0.01707684  0.82984462  0.18888102  1
  In  In30  1  0.49365199  0.00100590  0.49777909  1
  In  In31  1  0.65327903  0.82282137  0.51835108  1
  In  In32  1  0.67266537  0.67027871  0.66879278  1
  In  In33  1  0.50240969  0.83593354  0.66417525  1
  In  In34  1  0.47967594  0.19648203  0.29278876  1
  In  In35  1  -0.00070282  0.66677721  0.03448700  1
  In  In36  1  0.16268474  0.67128625  0.18043865  1
  In  In37  1  0.15999757  0.01226353  0.49252609  1
  In  In38  1  0.82598500  0.48146368  0.68666891  1
  In  In39  1  0.83468604  0.32077116  0.52514249  1
  In  In40  1  0.18798770  0.32139981  0.14127019  1
  In  In41  1  0.66276453  0.83305756  0.81237165  1
  In  In42  1  0.35763492  0.48555042  0.81341627  1
  In  In43  1  -0.00632517  0.33785384  0.69712275  1
  In  In44  1  -0.00751674  -0.02301977  0.32308266  1
  In  In45  1  0.66421757  0.84933145  0.14413312  1
  In  In46  1  0.01000196  0.00891172  0.67440185  1
  In  In47  1  0.18966013  0.16446971  0.66900659  1
  In  In48  1  0.82235367  0.16933562  0.31619580  1
  In  In49  1  0.00756999  0.16669971  0.49865854  1
  In  In50  1  -0.00643250  0.83794610  0.47360573  1
  In  In51  1  0.34064089  0.67706819  -0.02273577  1
  In  In52  1  0.67482225  0.46528704  0.83923189  1
  In  In53  1  0.82367840  0.81648948  0.00342353  1
  In  In54  1  0.66338113  0.01352087  -0.01641022  1
  In  In55  1  0.19121601  0.30003152  0.86213485  1
  In  In56  1  0.85582902  0.49368257  0.32738835  1
  In  In57  1  0.14613333  0.67451037  0.83788735  1
  In  In58  1  0.48959043  0.65918839  0.19049187  1
  In  In59  1  0.04328581  0.50274189  0.48997962  1
  In  In60  1  0.00524134  0.83760604  0.84491037  1
  In  In61  1  0.34986306  0.83064768  0.51040902  1
  In  In62  1  0.47960257  0.46238742  0.32341222  1
  In  In63  1  0.02960120  0.10651139  0.01707079  1
  In  In64  1  0.83843822  0.18531380  0.68801199  1
  In  In65  1  0.48073116  0.31470983  0.51217575  1
  In  In66  1  -0.02179138  0.32981445  -0.01045279  1
  In  In67  1  0.48307602  0.46941077  0.66020788  1
  In  In68  1  0.67008377  0.32314873  0.32881163  1
  In  In69  1  0.80545496  0.84553182  0.34571645  1
  In  In70  1  -0.01647701  0.47944136  0.14583486  1
  In  In71  1  0.47996817  0.36804116  0.03551413  1
  Te  Te72  1  0.12078571  0.05794807  0.12045507  1
  Te  Te73  1  0.08274559  0.09159799  0.38790302  1
  Te  Te74  1  0.07436669  0.11749568  0.75596749  1
  Te  Te75  1  0.09211366  0.41782684  0.05891463  1
  Te  Te76  1  0.13034664  0.40086500  0.41879292  1
  Te  Te77  1  0.09522935  0.40205626  0.79050314  1
  Te  Te78  1  0.10735090  0.76875847  0.07503818  1
  Te  Te79  1  0.10941101  0.74664359  0.43615955  1
  Te  Te80  1  0.07948821  0.76378397  0.73592025  1
  Te  Te81  1  0.44837149  0.15587684  0.08313563  1
  Te  Te82  1  0.42662613  0.08659604  0.39245127  1
  Te  Te83  1  0.40548233  0.12993623  0.74892950  1
  Te  Te84  1  0.36380565  0.40985905  0.12165055  1
  Te  Te85  1  0.39298474  0.39416097  0.42223858  1
  Te  Te86  1  0.45915443  0.37998035  0.77922411  1
  Te  Te87  1  0.42596217  0.74890342  0.08143825  1
  Te  Te88  1  0.42139212  0.73823490  0.41445724  1
  Te  Te89  1  0.41595873  0.75529142  0.76829318  1
  Te  Te90  1  0.73347876  0.09958122  0.08601570  1
  Te  Te91  1  0.74719471  0.09698555  0.41837425  1
  Te  Te92  1  0.74931644  0.08988307  0.76894244  1
  Te  Te93  1  0.77043349  0.38325758  0.02016307  1
  Te  Te94  1  0.76007535  0.41832626  0.42058519  1
  Te  Te95  1  0.72846537  0.38117684  0.73111130  1
  Te  Te96  1  0.74983894  0.72884677  0.10407856  1
  Te  Te97  1  0.74478942  0.73567864  0.43185395  1
  Te  Te98  1  0.77289899  0.74688407  0.75261917  1
  Te  Te99  1  0.08114213  0.25996064  0.23395034  1
  Te  Te100  1  0.08168773  0.26310119  0.59009268  1
  Te  Te101  1  0.07605304  0.22787971  0.92864164  1
  Te  Te102  1  0.08749279  0.55094666  0.23567719  1
  Te  Te103  1  0.10422746  0.58740867  0.59949283  1
  Te  Te104  1  0.06757977  0.58058508  0.92700968  1
  Te  Te105  1  0.11560011  0.94343740  0.22818496  1
  Te  Te106  1  0.07785392  0.91637744  0.57502452  1
  Te  Te107  1  0.09612485  0.94205009  0.91081456  1
  Te  Te108  1  0.38573838  0.28502767  0.21408061  1
  Te  Te109  1  0.42851702  0.21293214  0.60907279  1
  Te  Te110  1  0.41785213  0.24657488  0.96293818  1
  Te  Te111  1  0.39090260  0.57251371  0.26459708  1
  Te  Te112  1  0.39565114  0.54969927  0.57010452  1
  Te  Te113  1  0.43214828  0.57229494  0.91723288  1
  Te  Te114  1  0.40846986  0.92827621  0.22225309  1
  Te  Te115  1  0.40647694  0.93706573  0.60421248  1
  Te  Te116  1  0.40156517  0.94803654  0.92427686  1
  Te  Te117  1  0.74125809  0.24913875  0.22458197  1
  Te  Te118  1  0.73702653  0.23732430  0.59360585  1
  Te  Te119  1  0.72326646  0.25983204  0.93157186  1
  Te  Te120  1  0.74792218  0.56233067  0.24302678  1
  Te  Te121  1  0.76397666  0.58153186  0.58666275  1
  Te  Te122  1  0.75195439  0.58116314  0.88545449  1
  Te  Te123  1  0.75263907  0.93507597  0.23475903  1
  Te  Te124  1  0.72459491  0.92467240  0.60392021  1
  Te  Te125  1  0.74969176  0.91173254  0.91090610  1
  Te  Te126  1  0.22079741  0.23059971  0.02971490  1
  Te  Te127  1  0.29334383  0.24367991  0.42314321  1
  Te  Te128  1  0.28095186  0.24343733  0.75715796  1
  Te  Te129  1  0.26343555  0.60117085  0.08568786  1
  Te  Te130  1  0.19846697  0.55801358  0.41677183  1
  Te  Te131  1  0.24750758  0.58598358  0.76741236  1
  Te  Te132  1  0.30165797  0.92537282  0.10709903  1
  Te  Te133  1  0.26305506  0.92117668  0.41370841  1
  Te  Te134  1  0.23437869  0.95392860  0.73219168  1
  Te  Te135  1  0.55938059  0.25198515  0.08478976  1
  Te  Te136  1  0.57048665  0.24381812  0.40797494  1
  Te  Te137  1  0.52905412  0.22880586  0.72863233  1
  Te  Te138  1  0.55910026  0.56420008  0.09174183  1
  Te  Te139  1  0.56645863  0.56805838  0.40359276  1
  Te  Te140  1  0.58017118  0.56928616  0.73569001  1
  Te  Te141  1  0.56479254  0.93359776  0.06975206  1
  Te  Te142  1  0.59408022  0.91318568  0.40900318  1
  Te  Te143  1  0.55388070  0.92984726  0.77243555  1
  Te  Te144  1  0.93502983  0.21997069  0.08063163  1
  Te  Te145  1  0.92764959  0.26398530  0.41164448  1
  Te  Te146  1  0.90031487  0.27279033  0.79270791  1
  Te  Te147  1  0.88941846  0.56416434  0.06457925  1
  Te  Te148  1  0.93156141  0.58593845  0.42018321  1
  Te  Te149  1  0.92960175  0.55387826  0.76143259  1
  Te  Te150  1  0.92845017  0.89535243  0.08137908  1
  Te  Te151  1  0.88988944  0.94042239  0.43011059  1
  Te  Te152  1  0.91478277  0.92727570  0.76029422  1
  Te  Te153  1  0.25215701  0.11855260  0.21312062  1
  Te  Te154  1  0.25819287  0.10039909  0.55604102  1
  Te  Te155  1  0.26571448  0.10396393  0.95033632  1
  Te  Te156  1  0.26980815  0.38674807  0.24730906  1
  Te  Te157  1  0.28340819  0.41542184  0.61132915  1
  Te  Te158  1  0.27927222  0.41145860  0.92079544  1
  Te  Te159  1  0.26590297  0.75277644  0.25455602  1
  Te  Te160  1  0.26155667  0.75182734  0.59575097  1
  Te  Te161  1  0.24179667  0.77146756  0.90995182  1
  Te  Te162  1  0.55908011  0.09185747  0.22159161  1
  Te  Te163  1  0.57747203  0.09574676  0.57353863  1
  Te  Te164  1  0.56870469  0.09903045  0.90576613  1
  Te  Te165  1  0.58919575  0.40968718  0.23400163  1
  Te  Te166  1  0.59145159  0.39845916  0.58074268  1
  Te  Te167  1  0.56301880  0.39839009  0.90901933  1
  Te  Te168  1  0.58660103  0.76351171  0.25144122  1
  Te  Te169  1  0.55853752  0.72224333  0.58105829  1
  Te  Te170  1  0.60783818  0.74275080  0.93184414  1
  Te  Te171  1  0.92513471  0.08376019  0.23987192  1
  Te  Te172  1  0.91380349  0.09162530  0.59017128  1
  Te  Te173  1  0.91660648  0.05667406  0.93705380  1
  Te  Te174  1  0.89719250  0.38738550  0.22776251  1
  Te  Te175  1  0.93714112  0.42207863  0.57633864  1
  Te  Te176  1  0.87622897  0.39573412  0.90597353  1
  Te  Te177  1  0.91811889  0.75847388  0.28014338  1
  Te  Te178  1  0.91794818  0.74750321  0.56919334  1
  Te  Te179  1  0.92105227  0.73627870  0.91970802  1
