# generated using pymatgen
data_In2Te3
_symmetry_space_group_name_H-M   'P 1'
_cell_length_a   18.79011980
_cell_length_b   18.77543394
_cell_length_c   18.78729368
_cell_angle_alpha   89.91720063
_cell_angle_beta   89.98315757
_cell_angle_gamma   90.17736365
_symmetry_Int_Tables_number   1
_chemical_formula_structural   In2Te3
_chemical_formula_sum   'In72 Te108'
_cell_volume   6627.98020734
_cell_formula_units_Z   36
loop_
 _symmetry_equiv_pos_site_id
 _symmetry_equiv_pos_as_xyz
  1  'x, y, z'
loop_
 _atom_site_type_symbol
 _atom_site_label
 _atom_site_symmetry_multiplicity
 _atom_site_fract_x
 _atom_site_fract_y
 _atom_site_fract_z
 _atom_site_occupancy
  In  In0  1  0.33762521  -0.03948635  0.31716273  1
  In  In1  1  0.18000981  0.33509191  0.18058641  1
  In  In2  1  -0.01304659  0.32428166  0.00981883  1
  In  In3  1  0.19468892  0.52223420  0.01015385  1
  In  In4  1  0.46319369  0.82337015  0.31124762  1
  In  In5  1  0.01674506  0.02674836  0.33726156  1
  In  In6  1  0.65196200  0.66575403  0.67945119  1
  In  In7  1  0.80493167  0.01490400  0.14245692  1
  In  In8  1  0.34684841  0.14700510  0.15490127  1
  In  In9  1  -0.00816982  0.31747185  0.65639295  1
  In  In10  1  0.46626575  0.51451796  0.31107315  1
  In  In11  1  0.66183855  0.16799183  0.48920097  1
  In  In12  1  0.65750536  0.51714494  0.51602795  1
  In  In13  1  0.32166937  0.83060533  0.49929016  1
  In  In14  1  0.32698339  0.34055957  0.66012252  1
  In  In15  1  0.34487284  -0.01934452  -0.01706017  1
  In  In16  1  0.02445438  0.47545926  0.48826719  1
  In  In17  1  0.19150157  0.34819472  0.84112640  1
  In  In18  1  0.36154449  0.50175900  0.83775335  1
  In  In19  1  0.52607534  0.15252577  0.32009791  1
  In  In20  1  0.18106304  0.69426607  0.85096080  1
  In  In21  1  0.31486026  0.15755096  0.50826005  1
  In  In22  1  0.30169534  0.52165186  0.46478279  1
  In  In23  1  0.83022053  0.64689536  0.14764414  1
  In  In24  1  0.49618885  0.49853635  0.00380218  1
  In  In25  1  0.66539838  0.66122064  -0.00330291  1
  In  In26  1  0.02405546  0.66513293  0.32064375  1
  In  In27  1  0.19173496  0.82340844  0.31861306  1
  In  In28  1  0.83245196  0.81832276  0.33709391  1
  In  In29  1  0.49703566  0.68369160  0.81415162  1
  In  In30  1  0.83586434  0.84865104  0.66649138  1
  In  In31  1  0.34832804  0.68955042  0.67106931  1
  In  In32  1  0.04627461  0.80120278  0.13334171  1
  In  In33  1  0.53666465  0.31501439  0.86237182  1
  In  In34  1  0.67396875  0.69207843  0.32607429  1
  In  In35  1  0.79323453  0.04133710  0.84123241  1
  In  In36  1  0.37035553  0.16358473  0.84986295  1
  In  In37  1  0.18483027  -0.04271791  0.82572943  1
  In  In38  1  0.84099709  0.65406182  0.84855658  1
  In  In39  1  0.16432555  0.16646724  0.01507433  1
  In  In40  1  -0.00822118  0.49780897  0.82636380  1
  In  In41  1  0.79498942  0.32088113  0.84845095  1
  In  In42  1  0.84415204  0.33412465  0.50358082  1
  In  In43  1  -0.01716254  0.15411691  0.83065192  1
  In  In44  1  0.66741970  0.32775549  0.68370470  1
  In  In45  1  0.48358353  0.66867570  0.50579100  1
  In  In46  1  0.33865008  0.35290715  0.32753248  1
  In  In47  1  0.84182443  0.48017575  0.32503274  1
  In  In48  1  0.48152375  0.15240111  0.67433435  1
  In  In49  1  0.83789864  0.83954621  -0.01637858  1
  In  In50  1  0.63213150  0.86607663  0.14081807  1
  In  In51  1  0.66397991  0.31990121  0.31774908  1
  In  In52  1  0.83394345  0.20805180  0.32142878  1
  In  In53  1  0.83815822  0.66863404  0.51093294  1
  In  In54  1  0.00736220  0.50659417  0.17801181  1
  In  In55  1  0.00634528  0.82338240  0.83067317  1
  In  In56  1  -0.01758961  -0.00709692  -0.01998607  1
  In  In57  1  0.63677449  0.00432121  0.32634882  1
  In  In58  1  0.01318564  0.84480444  0.49763043  1
  In  In59  1  0.49497403  0.83997246  0.70134087  1
  In  In60  1  0.52183235  0.51069714  0.67876423  1
  In  In61  1  0.67260667  0.47177997  0.11837575  1
  In  In62  1  0.14947080  0.16877171  0.65044568  1
  In  In63  1  0.14460822  0.15801885  0.35137791  1
  In  In64  1  0.17910575  -0.02513550  0.16386208  1
  In  In65  1  0.63999300  0.83599410  0.84233582  1
  In  In66  1  0.51490133  0.32962292  0.13912163  1
  In  In67  1  0.17143556  0.51496568  0.64911204  1
  In  In68  1  0.82351215  0.01238752  0.52619946  1
  In  In69  1  -0.00500594  0.19045651  0.16044715  1
  In  In70  1  0.49115209  -0.00087100  0.49372822  1
  In  In71  1  -0.00951232  -0.01380755  0.65947577  1
  Te  Te72  1  0.07284533  0.07130184  0.09269634  1
  Te  Te73  1  0.08507543  0.07458483  0.45899564  1
  Te  Te74  1  0.08922093  0.06971596  0.76344361  1
  Te  Te75  1  0.09618860  0.41265653  0.07152104  1
  Te  Te76  1  0.06736484  0.37922105  0.38833059  1
  Te  Te77  1  0.09268838  0.40781535  0.74044163  1
  Te  Te78  1  0.14071294  0.70898339  0.06589805  1
  Te  Te79  1  0.10380774  0.74787255  0.42076459  1
  Te  Te80  1  0.10229351  0.75574054  0.74192226  1
  Te  Te81  1  0.43417312  0.07989247  0.05645195  1
  Te  Te82  1  0.40757339  0.08375128  0.39721425  1
  Te  Te83  1  0.42687277  0.05234326  0.77122842  1
  Te  Te84  1  0.41231124  0.42971031  0.10535796  1
  Te  Te85  1  0.42099594  0.43071284  0.43149842  1
  Te  Te86  1  0.43642452  0.39547918  0.75607170  1
  Te  Te87  1  0.39567026  0.72045930  0.12068073  1
  Te  Te88  1  0.38605254  0.72755526  0.40609298  1
  Te  Te89  1  0.37498549  0.78347963  0.79469520  1
  Te  Te90  1  0.70869953  0.07479451  0.04626664  1
  Te  Te91  1  0.75261190  0.08531376  0.39850265  1
  Te  Te92  1  0.72578807  0.11294082  0.73380115  1
  Te  Te93  1  0.78706445  0.38110757  0.11123262  1
  Te  Te94  1  0.73846123  0.41862124  0.42293357  1
  Te  Te95  1  0.75325086  0.42614488  0.75233004  1
  Te  Te96  1  0.74554948  0.76444181  0.08888272  1
  Te  Te97  1  0.73778220  0.76355370  0.44567548  1
  Te  Te98  1  0.74920539  0.75771807  0.76456283  1
  Te  Te99  1  0.06962779  0.27369645  0.26910061  1
  Te  Te100  1  0.09350359  0.27047107  0.55967542  1
  Te  Te101  1  0.08474018  0.25087287  0.90807225  1
  Te  Te102  1  0.12291495  0.58380957  0.24139551  1
  Te  Te103  1  0.07674493  0.58928325  0.56553646  1
  Te  Te104  1  0.09674778  0.57785172  0.90821034  1
  Te  Te105  1  0.07155676  0.90675112  0.25757597  1
  Te  Te106  1  0.09898339  0.90653326  0.60163931  1
  Te  Te107  1  0.09396151  0.90127865  0.93626838  1
  Te  Te108  1  0.42415294  0.25108352  0.24668053  1
  Te  Te109  1  0.41738940  0.25005158  0.57547912  1
  Te  Te110  1  0.42298864  0.26375029  0.94370212  1
  Te  Te111  1  0.38658308  0.61808150  0.23985243  1
  Te  Te112  1  0.40725286  0.56599500  0.59277632  1
  Te  Te113  1  0.41889060  0.60930903  0.92642912  1
  Te  Te114  1  0.43462693  0.93090042  0.21126002  1
  Te  Te115  1  0.41066715  0.91361186  0.59057854  1
  Te  Te116  1  0.45710696  0.90362729  0.92377704  1
  Te  Te117  1  0.72842134  0.23071766  0.21962865  1
  Te  Te118  1  0.75309251  0.24306184  0.58533006  1
  Te  Te119  1  0.72082888  0.22097976  0.94182513  1
  Te  Te120  1  0.74333327  0.57680117  0.25274750  1
  Te  Te121  1  0.75892124  0.58119858  0.60981492  1
  Te  Te122  1  0.76483366  0.56731155  0.94198915  1
  Te  Te123  1  0.74305092  0.91008161  0.25092563  1
  Te  Te124  1  0.73057045  0.91954854  0.59246431  1
  Te  Te125  1  0.73032197  0.92924768  0.92695261  1
  Te  Te126  1  0.26631854  0.25656073  0.08174000  1
  Te  Te127  1  0.25150901  0.25314118  0.40804039  1
  Te  Te128  1  0.25921449  0.23983169  0.75622929  1
  Te  Te129  1  0.29473976  0.60707486  0.08152981  1
  Te  Te130  1  0.19822664  0.58459458  0.38192362  1
  Te  Te131  1  0.25936416  0.58249558  0.75827850  1
  Te  Te132  1  0.27111324  0.89140381  0.08267609  1
  Te  Te133  1  0.23431176  0.93142253  0.42230473  1
  Te  Te134  1  0.27212765  0.88467238  0.73502789  1
  Te  Te135  1  0.59305929  0.25365940  0.03536784  1
  Te  Te136  1  0.56473741  0.26232102  0.41955709  1
  Te  Te137  1  0.60300094  0.20684618  0.75852755  1
  Te  Te138  1  0.58081678  0.58899283  0.10217530  1
  Te  Te139  1  0.57798106  0.59338998  0.40891949  1
  Te  Te140  1  0.60206634  0.57306568  0.79090454  1
  Te  Te141  1  0.54825498  0.94138068  0.04343031  1
  Te  Te142  1  0.56476046  0.89731648  0.40831623  1
  Te  Te143  1  0.57597071  0.94714028  0.76676371  1
  Te  Te144  1  0.87934747  0.24726379  0.08216306  1
  Te  Te145  1  0.93511006  0.25167224  0.42022233  1
  Te  Te146  1  0.89516165  0.24750179  0.75153159  1
  Te  Te147  1  0.93401579  0.57719259  0.07113424  1
  Te  Te148  1  0.91690119  0.58813025  0.40514291  1
  Te  Te149  1  0.92915468  0.60122687  0.74305293  1
  Te  Te150  1  0.91876086  0.91195062  0.09307896  1
  Te  Te151  1  0.90868565  0.92433651  0.41823062  1
  Te  Te152  1  0.90268943  0.93281805  0.78152899  1
  Te  Te153  1  0.24151224  0.08636787  0.24988975  1
  Te  Te154  1  0.25681646  0.07462959  0.61463516  1
  Te  Te155  1  0.24272428  0.08115245  0.91664086  1
  Te  Te156  1  0.25089613  0.44521939  0.25092024  1
  Te  Te157  1  0.23981473  0.41319365  0.55802536  1
  Te  Te158  1  0.28331915  0.41681206  0.93915208  1
  Te  Te159  1  0.27766037  0.75875846  0.21688777  1
  Te  Te160  1  0.24257107  0.73434510  0.58017289  1
  Te  Te161  1  0.23703487  0.77549265  0.96304157  1
  Te  Te162  1  0.59669002  0.08663773  0.20862774  1
  Te  Te163  1  0.58469517  0.07665615  0.58404101  1
  Te  Te164  1  0.60449653  0.12291615  0.93820811  1
  Te  Te165  1  0.58106698  0.42856112  0.24877895  1
  Te  Te166  1  0.57831325  0.40536095  0.58387460  1
  Te  Te167  1  0.60557654  0.42690000  0.93165936  1
  Te  Te168  1  0.57419852  0.75291362  0.22925851  1
  Te  Te169  1  0.57101590  0.75905879  0.59177426  1
  Te  Te170  1  0.55815445  0.75476987  0.94261802  1
  Te  Te171  1  0.90861357  0.08430095  0.24400853  1
  Te  Te172  1  0.92052372  0.09865727  0.59506279  1
  Te  Te173  1  0.89454985  0.10959938  0.94558618  1
  Te  Te174  1  0.90712601  0.39899876  0.21897528  1
  Te  Te175  1  0.91648029  0.43394812  0.59248271  1
  Te  Te176  1  0.90377434  0.41173615  0.91676171  1
  Te  Te177  1  0.92136011  0.74367065  0.23703838  1
  Te  Te178  1  0.93199218  0.75512118  0.59463961  1
  Te  Te179  1  0.93773636  0.73572319  0.93721579  1
