# generated using pymatgen
data_In2Te3
_symmetry_space_group_name_H-M   'P 1'
_cell_length_a   18.97559233
_cell_length_b   19.00521431
_cell_length_c   18.97529100
_cell_angle_alpha   90.25883108
_cell_angle_beta   90.05727966
_cell_angle_gamma   89.72702284
_symmetry_Int_Tables_number   1
_chemical_formula_structural   In2Te3
_chemical_formula_sum   'In72 Te108'
_cell_volume   6843.00707864
_cell_formula_units_Z   36
loop_
 _symmetry_equiv_pos_site_id
 _symmetry_equiv_pos_as_xyz
  1  'x, y, z'
loop_
 _atom_site_type_symbol
 _atom_site_label
 _atom_site_symmetry_multiplicity
 _atom_site_fract_x
 _atom_site_fract_y
 _atom_site_fract_z
 _atom_site_occupancy
  In  In0  1  0.13756360  0.54944753  0.65934906  1
  In  In1  1  0.17883526  0.36023127  0.81210269  1
  In  In2  1  0.81560082  0.67829187  0.84534120  1
  In  In3  1  0.14839216  -0.00705527  0.15904433  1
  In  In4  1  -0.00825800  0.32050447  -0.00286224  1
  In  In5  1  0.63994044  0.66657703  0.02746391  1
  In  In6  1  0.82436086  0.50162753  0.00024992  1
  In  In7  1  -0.02459144  0.35592963  0.33311651  1
  In  In8  1  0.00787517  -0.02994262  0.66117380  1
  In  In9  1  0.66232580  0.62332132  0.33820732  1
  In  In10  1  0.85233791  0.67654994  0.51580507  1
  In  In11  1  0.34080329  0.34310526  0.33395929  1
  In  In12  1  0.77499412  0.01680227  0.17115104  1
  In  In13  1  0.81544147  0.67725010  0.16626369  1
  In  In14  1  0.13898854  0.79151167  0.35823337  1
  In  In15  1  0.81552056  0.16781066  0.02166072  1
  In  In16  1  -0.00847945  0.16825082  0.82526517  1
  In  In17  1  0.82995517  0.15922080  0.67513246  1
  In  In18  1  0.40324095  0.16056899  0.86042871  1
  In  In19  1  0.32725341  0.50765886  0.48783453  1
  In  In20  1  0.30659060  0.83671281  0.19979339  1
  In  In21  1  0.66544150  0.83786451  0.84455329  1
  In  In22  1  0.35916100  0.46438184  0.16623003  1
  In  In23  1  0.18379319  0.35127559  0.47462825  1
  In  In24  1  0.36744408  0.63329762  0.00924377  1
  In  In25  1  0.82409014  0.34602899  0.47518345  1
  In  In26  1  0.37958569  0.03102431  -0.00689656  1
  In  In27  1  0.03810580  0.66096544  -0.00373543  1
  In  In28  1  0.69354871  0.85815665  0.48903101  1
  In  In29  1  0.15079909  0.17847455  0.32451838  1
  In  In30  1  0.65498795  0.84710249  0.17255698  1
  In  In31  1  0.49379842  0.81178665  0.35257258  1
  In  In32  1  0.59929229  0.23559984  0.24492599  1
  In  In33  1  0.33430728  0.00044171  0.35507958  1
  In  In34  1  0.82679677  0.34426213  0.80191755  1
  In  In35  1  0.14573638  -0.03108549  0.52990335  1
  In  In36  1  0.34398678  0.18599023  0.16307591  1
  In  In37  1  0.16278079  0.51910003  0.33027081  1
  In  In38  1  0.34402628  0.50101333  0.84284566  1
  In  In39  1  0.29993668  0.80218273  0.53163485  1
  In  In40  1  -0.01258552  0.00763350  0.32314206  1
  In  In41  1  0.01465223  0.52764273  0.83496806  1
  In  In42  1  -0.01619695  0.82688562  0.14374292  1
  In  In43  1  0.83603586  0.01187977  0.82380884  1
  In  In44  1  -0.00103393  0.15849465  0.17046600  1
  In  In45  1  0.67236850  0.66337591  0.65669777  1
  In  In46  1  -0.00576773  0.18498400  0.48990931  1
  In  In47  1  0.49897827  0.65749098  0.51220719  1
  In  In48  1  0.15191333  0.15640095  0.65489804  1
  In  In49  1  0.31851569  0.81043502  0.81908625  1
  In  In50  1  0.86828548  0.80694429  0.34793463  1
  In  In51  1  0.49189403  0.82020035  0.67902028  1
  In  In52  1  0.32997037  -0.02394380  0.68650023  1
  In  In53  1  0.50093520  0.50636558  0.67151329  1
  In  In54  1  0.00297358  0.49365202  0.16184906  1
  In  In55  1  0.61503010  0.21086191  0.90072166  1
  In  In56  1  0.48237271  0.83267185  0.00692909  1
  In  In57  1  0.49045751  0.63078903  0.17738670  1
  In  In58  1  0.84968699  0.86305468  -0.01665776  1
  In  In59  1  0.18650204  0.83586727  -0.02305126  1
  In  In60  1  0.67974560  0.35348051  0.62785576  1
  In  In61  1  0.84509505  0.50636205  0.64361833  1
  In  In62  1  0.49587177  0.33565665  0.85984018  1
  In  In63  1  0.81982320  0.02555414  0.47610330  1
  In  In64  1  0.33341729  0.30859383  0.64315037  1
  In  In65  1  0.52884134  0.18309610  0.66753748  1
  In  In66  1  0.03798865  0.80858612  0.81267094  1
  In  In67  1  0.65408533  -0.00993300  0.65581541  1
  In  In68  1  0.19596912  0.17177718  -0.00497704  1
  In  In69  1  0.51199923  -0.00345236  0.49662128  1
  In  In70  1  0.36704683  0.14934443  0.50522887  1
  In  In71  1  0.65128535  0.34717955  0.02076592  1
  Te  Te72  1  0.08358193  0.09067512  0.06456632  1
  Te  Te73  1  0.08774067  0.07551959  0.42364979  1
  Te  Te74  1  0.08181390  0.06831442  0.75467257  1
  Te  Te75  1  0.08109679  0.41906024  0.05974685  1
  Te  Te76  1  0.07081194  0.43484783  0.42204527  1
  Te  Te77  1  0.07174159  0.43133703  0.73154489  1
  Te  Te78  1  0.10706839  0.76114316  0.08603736  1
  Te  Te79  1  0.06653253  0.68955216  0.44092164  1
  Te  Te80  1  0.12388076  0.69824769  0.75689361  1
  Te  Te81  1  0.43240198  0.07787326  0.12016251  1
  Te  Te82  1  0.45078585  0.09186933  0.39246457  1
  Te  Te83  1  0.41950641  0.09592256  0.72177203  1
  Te  Te84  1  0.43788450  0.37657593  0.07372832  1
  Te  Te85  1  0.42413230  0.41222969  0.43159167  1
  Te  Te86  1  0.41173539  0.39491791  0.74197357  1
  Te  Te87  1  0.40828778  0.74932570  0.11002546  1
  Te  Te88  1  0.39256862  0.73299081  0.43053981  1
  Te  Te89  1  0.41524048  0.72129938  0.75143013  1
  Te  Te90  1  0.69569742  0.10621507  0.08049604  1
  Te  Te91  1  0.71627200  0.07428276  0.38757849  1
  Te  Te92  1  0.72423374  0.08642370  0.75343353  1
  Te  Te93  1  0.76805901  0.40196696  0.08942571  1
  Te  Te94  1  0.71123884  0.40842953  0.39877582  1
  Te  Te95  1  0.73767089  0.44505951  0.73587852  1
  Te  Te96  1  0.75173517  0.77121125  0.06350161  1
  Te  Te97  1  0.74259234  0.74008351  0.40606960  1
  Te  Te98  1  0.74939026  0.76553676  0.74042348  1
  Te  Te99  1  0.06910171  0.27264490  0.24248852  1
  Te  Te100  1  0.09458919  0.26526854  0.56787514  1
  Te  Te101  1  0.09408110  0.25422719  0.89895732  1
  Te  Te102  1  0.09105602  0.59191955  0.22494011  1
  Te  Te103  1  0.02750256  0.61894925  0.58126944  1
  Te  Te104  1  0.11374454  0.54577914  0.94319985  1
  Te  Te105  1  0.07884886  0.90191607  0.26026041  1
  Te  Te106  1  0.06083037  0.85699065  0.57821432  1
  Te  Te107  1  0.07547208  0.90750678  0.91531465  1
  Te  Te108  1  0.43512616  0.25316048  0.26117794  1
  Te  Te109  1  0.45283641  0.26099354  0.56087045  1
  Te  Te110  1  0.39481123  0.27779081  0.95678862  1
  Te  Te111  1  0.41041644  0.55525448  0.27229660  1
  Te  Te112  1  0.39482991  0.58955285  0.59757526  1
  Te  Te113  1  0.45682877  0.54717091  0.92836332  1
  Te  Te114  1  0.42062326  0.91267611  0.26442494  1
  Te  Te115  1  0.41203178  0.90818437  0.57040203  1
  Te  Te116  1  0.40125547  0.90710715  0.90305993  1
  Te  Te117  1  0.73836224  0.29882089  0.26585605  1
  Te  Te118  1  0.75925497  0.23925371  0.56860549  1
  Te  Te119  1  0.76234794  0.25747761  0.90750285  1
  Te  Te120  1  0.76356494  0.56545719  0.24721798  1
  Te  Te121  1  0.74369551  0.57782318  0.55463957  1
  Te  Te122  1  0.72626440  0.58741623  0.92307280  1
  Te  Te123  1  0.77353002  0.88949255  0.25634476  1
  Te  Te124  1  0.77674630  0.92937920  0.59183587  1
  Te  Te125  1  0.73819170  0.94571098  0.92226908  1
  Te  Te126  1  0.23094384  0.25842766  0.10675362  1
  Te  Te127  1  0.26194242  0.22717587  0.41944317  1
  Te  Te128  1  0.24468191  0.23782743  0.74268366  1
  Te  Te129  1  0.27557944  0.56268472  0.09592553  1
  Te  Te130  1  0.21646724  0.59723288  0.44618128  1
  Te  Te131  1  0.23948049  0.58057652  0.76282056  1
  Te  Te132  1  0.26054141  0.92422993  0.08322166  1
  Te  Te133  1  0.24057036  0.90030147  0.42261380  1
  Te  Te134  1  0.22166908  0.89292196  0.73886255  1
  Te  Te135  1  0.54562390  0.26563483  0.08297408  1
  Te  Te136  1  0.63006260  0.28008434  0.39111423  1
  Te  Te137  1  0.60299134  0.27745154  0.75704253  1
  Te  Te138  1  0.60093704  0.55785082  0.11553064  1
  Te  Te139  1  0.54639336  0.56574999  0.40557823  1
  Te  Te140  1  0.57249166  0.61010915  0.74806220  1
  Te  Te141  1  0.57278438  0.92324435  0.07941830  1
  Te  Te142  1  0.59420498  0.92033781  0.39335633  1
  Te  Te143  1  0.56819358  0.92233102  0.75989916  1
  Te  Te144  1  0.90433069  0.25897769  0.10362108  1
  Te  Te145  1  0.89867745  0.23734308  0.38883300  1
  Te  Te146  1  0.92952504  0.26270519  0.72481243  1
  Te  Te147  1  0.91418923  0.60330578  0.06762525  1
  Te  Te148  1  0.93801184  0.60831412  0.41824252  1
  Te  Te149  1  0.90430911  0.59438300  0.75538350  1
  Te  Te150  1  0.90673030  0.94375794  0.09498448  1
  Te  Te151  1  0.92305306  0.92180314  0.43010820  1
  Te  Te152  1  0.92102981  0.90275665  0.76458765  1
  Te  Te153  1  0.23653749  0.07098062  0.25631572  1
  Te  Te154  1  0.25776398  0.07034498  0.57677164  1
  Te  Te155  1  0.27202717  0.08320460  0.89991377  1
  Te  Te156  1  0.23755812  0.41096237  0.25169292  1
  Te  Te157  1  0.24621255  0.42267489  0.59364225  1
  Te  Te158  1  0.26989439  0.39953363  0.92001405  1
  Te  Te159  1  0.24174809  0.72958475  0.27325519  1
  Te  Te160  1  0.20693026  0.75948729  0.63797735  1
  Te  Te161  1  0.26687046  0.71903495  0.92751195  1
  Te  Te162  1  0.65477991  0.08490157  0.24512850  1
  Te  Te163  1  0.60260626  0.09818380  0.56343289  1
  Te  Te164  1  0.52603469  0.09492649  0.91585895  1
  Te  Te165  1  0.61756535  0.38862355  0.25723157  1
  Te  Te166  1  0.58153615  0.44181622  0.56632674  1
  Te  Te167  1  0.58694977  0.43587757  0.91949676  1
  Te  Te168  1  0.58449841  0.73776955  0.25218550  1
  Te  Te169  1  0.59140388  0.77132651  0.56786411  1
  Te  Te170  1  0.57002362  0.74637370  0.91742350  1
  Te  Te171  1  0.88856594  0.09130152  0.24835737  1
  Te  Te172  1  0.93229670  0.08464526  0.58587224  1
  Te  Te173  1  0.91231185  0.09198373  0.92746136  1
  Te  Te174  1  0.89524432  0.45065624  0.25311052  1
  Te  Te175  1  0.92125658  0.41164121  0.56242758  1
  Te  Te176  1  0.91775766  0.41976216  0.90008719  1
  Te  Te177  1  0.93922170  0.72298911  0.24414562  1
  Te  Te178  1  0.94061336  0.74252301  0.61309767  1
  Te  Te179  1  0.93093050  0.74903372  0.91798838  1
