# generated using pymatgen
data_In2Te3
_symmetry_space_group_name_H-M   'P 1'
_cell_length_a   18.89510261
_cell_length_b   18.91684813
_cell_length_c   18.85836561
_cell_angle_alpha   89.93989631
_cell_angle_beta   90.00853768
_cell_angle_gamma   90.11915078
_symmetry_Int_Tables_number   1
_chemical_formula_structural   In2Te3
_chemical_formula_sum   'In72 Te108'
_cell_volume   6740.63638744
_cell_formula_units_Z   36
loop_
 _symmetry_equiv_pos_site_id
 _symmetry_equiv_pos_as_xyz
  1  'x, y, z'
loop_
 _atom_site_type_symbol
 _atom_site_label
 _atom_site_symmetry_multiplicity
 _atom_site_fract_x
 _atom_site_fract_y
 _atom_site_fract_z
 _atom_site_occupancy
  In  In0  1  0.48459709  0.83628216  0.63627206  1
  In  In1  1  -0.01478166  0.84145213  0.81701005  1
  In  In2  1  0.18343101  0.85350756  0.03218107  1
  In  In3  1  0.61973332  0.52288880  0.49699365  1
  In  In4  1  0.33550443  0.50493027  0.84297617  1
  In  In5  1  0.34932574  -0.02500868  0.03307317  1
  In  In6  1  0.18699465  0.17132642  0.04002181  1
  In  In7  1  0.16561583  0.33889621  0.81548750  1
  In  In8  1  0.34547199  0.64684389  0.64465450  1
  In  In9  1  0.02891122  0.89093307  0.44730654  1
  In  In10  1  0.00664879  0.18977779  0.81623518  1
  In  In11  1  0.03061264  0.66671808  0.03154939  1
  In  In12  1  0.84808461  0.85585238  0.66287020  1
  In  In13  1  0.84258613  0.01998858  0.46964817  1
  In  In14  1  0.80481056  0.47423800  -0.01589687  1
  In  In15  1  0.86789073  0.67418164  0.80696980  1
  In  In16  1  0.30275431  0.81471489  0.83333036  1
  In  In17  1  0.16693346  0.86554597  0.63360913  1
  In  In18  1  0.32529025  0.02081949  0.63796231  1
  In  In19  1  0.82294590  0.66409685  0.16702103  1
  In  In20  1  0.67705942  0.32062997  0.65500469  1
  In  In21  1  0.49277150  0.00902388  0.19193815  1
  In  In22  1  0.01519426  0.64585218  0.64350313  1
  In  In23  1  0.66732866  0.52123636  0.80956758  1
  In  In24  1  0.83260091  0.01553559  0.18489133  1
  In  In25  1  0.84240948  0.17074607  0.02044314  1
  In  In26  1  0.01196495  0.02054135  0.00188526  1
  In  In27  1  -0.00995929  0.68992609  0.34981048  1
  In  In28  1  0.49957706  0.16617024  0.03463061  1
  In  In29  1  0.49676708  0.64971206  0.84302875  1
  In  In30  1  0.64495937  0.83112113  0.47592271  1
  In  In31  1  0.32125493  0.84496626  0.46167178  1
  In  In32  1  0.15741448  0.47933382  0.00092513  1
  In  In33  1  0.83974133  0.46090309  0.35296257  1
  In  In34  1  0.00323099  0.88795335  0.20875310  1
  In  In35  1  0.18965063  0.66548917  0.20209828  1
  In  In36  1  0.20839913  0.48218236  0.61783457  1
  In  In37  1  0.31800554  0.16664043  0.83899049  1
  In  In38  1  0.65866796  -0.00658873  0.34240340  1
  In  In39  1  0.64945302  0.33054489  0.00669996  1
  In  In40  1  0.04817076  0.16331892  0.48714936  1
  In  In41  1  0.82114736  0.82312408  0.01031931  1
  In  In42  1  0.66255413  0.63356863  0.03241113  1
  In  In43  1  0.48141830  0.82482389  0.03562232  1
  In  In44  1  0.47747544  0.33007368  0.49019966  1
  In  In45  1  0.49794561  0.48280165  0.02713148  1
  In  In46  1  0.83267828  0.16746228  0.65419224  1
  In  In47  1  0.67596664  0.02483454  0.64276184  1
  In  In48  1  0.81728875  0.67071454  0.48303772  1
  In  In49  1  0.84399352  0.29402302  0.45905725  1
  In  In50  1  0.29946488  0.17132224  0.45835890  1
  In  In51  1  -0.00995505  0.29902571  0.02443940  1
  In  In52  1  0.46339426  0.19436368  0.31625252  1
  In  In53  1  0.51426732  0.00559426  0.83416267  1
  In  In54  1  0.45726794  0.51661457  0.64461984  1
  In  In55  1  0.66259375  0.48022132  0.17003052  1
  In  In56  1  0.49560670  0.32332560  0.81985736  1
  In  In57  1  0.66390634  0.71394003  0.62943554  1
  In  In58  1  0.01054854  0.49363155  0.15340319  1
  In  In59  1  0.02615768  0.48898025  0.81193136  1
  In  In60  1  0.14612707  0.02292113  0.83419091  1
  In  In61  1  0.32586264  0.83734965  0.21790717  1
  In  In62  1  0.49058919  0.47533104  0.32485819  1
  In  In63  1  0.51480259  0.16688561  0.63172657  1
  In  In64  1  0.32720790  0.48754567  0.18734820  1
  In  In65  1  0.04594030  0.31531368  0.33379030  1
  In  In66  1  0.67527933  -0.00828803  0.02503746  1
  In  In67  1  0.83426527  0.46027100  0.60974272  1
  In  In68  1  0.19612298  0.70799601  0.83332072  1
  In  In69  1  0.84922736  0.31623227  0.84017522  1
  In  In70  1  0.16800450  0.49750265  0.36565040  1
  In  In71  1  0.65707261  0.84425978  0.85266000  1
  Te  Te72  1  0.09131291  0.08108548  0.11377264  1
  Te  Te73  1  0.09009006  0.04103623  0.40504822  1
  Te  Te74  1  0.09176904  0.10757131  0.72719686  1
  Te  Te75  1  0.09649546  0.37980920  0.09874952  1
  Te  Te76  1  0.07469150  0.41203407  0.44658595  1
  Te  Te77  1  0.09537183  0.41312148  0.70193679  1
  Te  Te78  1  0.09193480  0.77148032  0.12312791  1
  Te  Te79  1  0.08805849  0.75525781  0.43603270  1
  Te  Te80  1  0.07973382  0.75262524  0.73623644  1
  Te  Te81  1  0.39255197  0.09560105  0.11615926  1
  Te  Te82  1  0.40151018  0.07917972  0.39389776  1
  Te  Te83  1  0.42036785  0.08625368  0.74594729  1
  Te  Te84  1  0.40348432  0.39027421  0.09718333  1
  Te  Te85  1  0.38022436  0.40218897  0.40268446  1
  Te  Te86  1  0.39894473  0.41046267  0.74158438  1
  Te  Te87  1  0.41012221  0.74686827  0.13625172  1
  Te  Te88  1  0.44222489  0.77434297  0.41312300  1
  Te  Te89  1  0.41981355  0.74710007  0.75030608  1
  Te  Te90  1  0.73564679  0.10363388  0.10848610  1
  Te  Te91  1  0.75669558  0.09875475  0.38071861  1
  Te  Te92  1  0.75021877  0.09075279  0.74953988  1
  Te  Te93  1  0.76428381  0.38511105  0.09563666  1
  Te  Te94  1  0.71035111  0.42246124  0.43455227  1
  Te  Te95  1  0.75574205  0.40999119  0.75537621  1
  Te  Te96  1  0.71993465  0.75852001  0.10302823  1
  Te  Te97  1  0.73274848  0.74517067  0.38424394  1
  Te  Te98  1  0.74939592  0.76210010  0.75520762  1
  Te  Te99  1  0.12859456  0.21268689  0.25784967  1
  Te  Te100  1  0.13285270  0.22669119  0.59179393  1
  Te  Te101  1  0.10174873  0.24045846  0.92558325  1
  Te  Te102  1  0.07049747  0.58724559  0.25873460  1
  Te  Te103  1  0.12399895  0.59077117  0.55576584  1
  Te  Te104  1  0.08951569  0.58816158  0.90931499  1
  Te  Te105  1  0.11599064  0.92069983  0.30469691  1
  Te  Te106  1  0.04139043  0.92580372  0.59266667  1
  Te  Te107  1  0.09197696  0.90222020  0.92043683  1
  Te  Te108  1  0.38470199  0.28173180  0.22499206  1
  Te  Te109  1  0.39401362  0.23311019  0.57335709  1
  Te  Te110  1  0.42079488  0.24215884  0.92320924  1
  Te  Te111  1  0.39886833  0.58080309  0.27648350  1
  Te  Te112  1  0.39585776  0.57516404  0.51866370  1
  Te  Te113  1  0.40978562  0.58521075  0.94849778  1
  Te  Te114  1  0.39497193  0.95066659  0.29068798  1
  Te  Te115  1  0.41624253  0.93795633  0.55066877  1
  Te  Te116  1  0.42669811  0.90930045  0.91447768  1
  Te  Te117  1  0.77417658  0.32500987  0.32636240  1
  Te  Te118  1  0.73829115  0.23014410  0.55196480  1
  Te  Te119  1  0.74580154  0.24488082  0.92356182  1
  Te  Te120  1  0.76594212  0.55495812  0.25205477  1
  Te  Te121  1  0.74098564  0.58133568  0.58591435  1
  Te  Te122  1  0.75297799  0.60237730  0.90752329  1
  Te  Te123  1  0.76156961  0.91519583  0.26533845  1
  Te  Te124  1  0.74795964  0.91226782  0.56219607  1
  Te  Te125  1  0.76461848  0.93024990  0.91629761  1
  Te  Te126  1  0.28476702  0.25765130  0.10710781  1
  Te  Te127  1  0.20625596  0.26719068  0.38054405  1
  Te  Te128  1  0.25040046  0.24723514  0.73584282  1
  Te  Te129  1  0.23766657  0.57288599  0.08859918  1
  Te  Te130  1  0.25483844  0.58381218  0.45086994  1
  Te  Te131  1  0.24527733  0.58305068  0.74736033  1
  Te  Te132  1  0.24322948  0.94292685  0.13727238  1
  Te  Te133  1  0.21383495  0.94617389  0.42833648  1
  Te  Te134  1  0.24953416  0.93724294  0.74946903  1
  Te  Te135  1  0.57661567  0.26393021  0.11692175  1
  Te  Te136  1  0.56594436  0.24749240  0.40897495  1
  Te  Te137  1  0.59234497  0.23150107  0.74724729  1
  Te  Te138  1  0.55447264  0.58481312  0.12450856  1
  Te  Te139  1  0.58308775  0.59743310  0.36587511  1
  Te  Te140  1  0.57619159  0.60441516  0.72101959  1
  Te  Te141  1  0.57939372  0.91208255  0.11305347  1
  Te  Te142  1  0.54974648  0.89029358  0.37657883  1
  Te  Te143  1  0.58266277  0.91123370  0.73454123  1
  Te  Te144  1  0.92522356  0.22267035  0.13457772  1
  Te  Te145  1  0.94587801  0.21028627  0.38288528  1
  Te  Te146  1  0.92590667  0.27238368  0.71712905  1
  Te  Te147  1  0.90834405  0.57294478  0.06958648  1
  Te  Te148  1  0.91777530  0.57692871  0.42271001  1
  Te  Te149  1  0.91715577  0.55029419  0.72218848  1
  Te  Te150  1  0.91918144  0.92045015  0.07590402  1
  Te  Te151  1  0.89239870  0.90835258  0.38699228  1
  Te  Te152  1  0.91633977  0.95188884  0.75119516  1
  Te  Te153  1  0.25011701  0.13246304  0.31400558  1
  Te  Te154  1  0.21602953  0.09692281  0.56818732  1
  Te  Te155  1  0.25695918  0.06332371  0.93752824  1
  Te  Te156  1  0.21476344  0.41551805  0.25300357  1
  Te  Te157  1  0.29652828  0.40032278  0.53524028  1
  Te  Te158  1  0.25904567  0.39925314  0.92109120  1
  Te  Te159  1  0.23985701  0.75474129  0.30864494  1
  Te  Te160  1  0.26501870  0.76562082  0.58381655  1
  Te  Te161  1  0.26614995  0.74589962  0.96697250  1
  Te  Te162  1  0.58338584  0.10321413  0.26465473  1
  Te  Te163  1  0.57906775  0.06960220  0.54351259  1
  Te  Te164  1  0.58986404  0.08520123  0.93800717  1
  Te  Te165  1  0.57509244  0.38426561  0.24174926  1
  Te  Te166  1  0.56885917  0.41237816  0.60115092  1
  Te  Te167  1  0.57949750  0.43155746  0.90169933  1
  Te  Te168  1  0.63140152  0.70461173  0.27297571  1
  Te  Te169  1  0.53766043  0.72991155  0.53783986  1
  Te  Te170  1  0.57911956  0.74186017  0.93494696  1
  Te  Te171  1  0.96227565  0.07744741  0.21575179  1
  Te  Te172  1  0.93142619  0.09230607  0.56804763  1
  Te  Te173  1  0.92237131  0.10020558  0.91023648  1
  Te  Te174  1  0.94409470  0.40403183  0.25370283  1
  Te  Te175  1  0.93828573  0.38260714  0.53878802  1
  Te  Te176  1  0.94238203  0.40994164  0.91820358  1
  Te  Te177  1  0.91536697  0.76115341  0.23818696  1
  Te  Te178  1  0.90937509  0.73979251  0.58457349  1
  Te  Te179  1  0.93141630  0.74657763  0.93546148  1
