# generated using pymatgen
data_In2Te3
_symmetry_space_group_name_H-M   'P 1'
_cell_length_a   18.97364600
_cell_length_b   18.95841296
_cell_length_c   18.95665283
_cell_angle_alpha   89.97464408
_cell_angle_beta   89.92396240
_cell_angle_gamma   89.96331225
_symmetry_Int_Tables_number   1
_chemical_formula_structural   In2Te3
_chemical_formula_sum   'In72 Te108'
_cell_volume   6818.89362132
_cell_formula_units_Z   36
loop_
 _symmetry_equiv_pos_site_id
 _symmetry_equiv_pos_as_xyz
  1  'x, y, z'
loop_
 _atom_site_type_symbol
 _atom_site_label
 _atom_site_symmetry_multiplicity
 _atom_site_fract_x
 _atom_site_fract_y
 _atom_site_fract_z
 _atom_site_occupancy
  In  In0  1  -0.04947938  0.66392605  0.30616404  1
  In  In1  1  0.35483441  0.20650508  0.62281572  1
  In  In2  1  0.49856606  0.66816834  0.49886472  1
  In  In3  1  0.33476925  0.48792170  0.50481360  1
  In  In4  1  0.50146457  -0.01367302  0.51117841  1
  In  In5  1  0.65209412  0.65077849  -0.00072300  1
  In  In6  1  -0.02112720  0.01819803  0.32605620  1
  In  In7  1  0.47164421  0.69015603  0.80372787  1
  In  In8  1  0.19685663  0.86173286  0.68885920  1
  In  In9  1  0.49362362  0.48247558  0.31451998  1
  In  In10  1  0.16818033  0.84860254  -0.01674478  1
  In  In11  1  0.82495053  0.67927551  0.16736778  1
  In  In12  1  0.34077002  0.82354694  0.51906668  1
  In  In13  1  -0.01093771  0.30747046  0.66423358  1
  In  In14  1  0.15226610  0.65812951  0.80173349  1
  In  In15  1  0.66163231  -0.00038672  0.68553906  1
  In  In16  1  0.15224197  0.68641496  0.15782290  1
  In  In17  1  0.52390944  0.67891263  0.18144393  1
  In  In18  1  0.18294879  0.02002427  0.51524505  1
  In  In19  1  0.81020898  0.51436499  0.65267414  1
  In  In20  1  0.82164289  0.49588219  0.33903495  1
  In  In21  1  0.67224302  0.33147805  0.65967992  1
  In  In22  1  0.86688273  0.02337053  0.52861968  1
  In  In23  1  0.00849294  0.65964421  0.65146990  1
  In  In24  1  0.79012970  -0.00275313  0.14346497  1
  In  In25  1  0.16808013  0.49862776  0.67180368  1
  In  In26  1  -0.00404690  0.86321813  0.84964429  1
  In  In27  1  0.50578890  0.14685013  0.01148471  1
  In  In28  1  0.64466646  0.48865621  0.84942391  1
  In  In29  1  0.34380307  0.47274269  0.82158153  1
  In  In30  1  0.00261809  0.30724153  0.00712008  1
  In  In31  1  0.02101839  0.68669179  -0.02008190  1
  In  In32  1  0.67745275  0.66474668  0.32618316  1
  In  In33  1  0.14038766  0.46616644  0.34587604  1
  In  In34  1  0.52193677  -0.00527403  0.15897339  1
  In  In35  1  0.67672254  0.83359324  0.47630752  1
  In  In36  1  0.79822247  0.32549803  0.16014399  1
  In  In37  1  0.51094879  0.31459236  0.15584338  1
  In  In38  1  0.82365444  0.49386739  0.02617563  1
  In  In39  1  0.32154566  0.34270351  0.34428775  1
  In  In40  1  0.15010991  0.32982591  0.52231653  1
  In  In41  1  0.15877377  0.18286151  0.33455419  1
  In  In42  1  0.67160666  0.18644186  0.50339918  1
  In  In43  1  0.49197597  0.84922446  -0.01827132  1
  In  In44  1  0.00236508  0.84215377  0.48471335  1
  In  In45  1  0.83066681  0.18712953  0.33740797  1
  In  In46  1  0.32422150  0.31892373  -0.02023910  1
  In  In47  1  0.16227827  0.32833018  0.17885981  1
  In  In48  1  0.17285724  0.00266677  0.15111735  1
  In  In49  1  0.50297030  0.47882920  -0.01585696  1
  In  In50  1  0.83724935  0.00743345  0.85035147  1
  In  In51  1  0.16692234  0.84544566  0.32400226  1
  In  In52  1  0.51570362  0.14217006  0.34281222  1
  In  In53  1  0.83706616  0.83131014  0.67632003  1
  In  In54  1  0.18339330  0.15617892  -0.00354681  1
  In  In55  1  0.14994181  0.67294143  0.51230851  1
  In  In56  1  0.67178597  0.67949696  0.66503704  1
  In  In57  1  -0.00875576  0.49261257  0.17054836  1
  In  In58  1  0.01476271  0.13973672  0.83885272  1
  In  In59  1  0.36311511  0.13783273  0.17370910  1
  In  In60  1  0.83560109  0.33279687  0.49343117  1
  In  In61  1  0.81367342  0.31310394  0.86751231  1
  In  In62  1  0.66775220  0.16335300  0.83578615  1
  In  In63  1  0.33781185  0.53808196  0.14261458  1
  In  In64  1  0.47175878  -0.00190870  0.81951644  1
  In  In65  1  0.31866889  0.68995187  0.36398328  1
  In  In66  1  -0.02228796  0.49523768  0.80563592  1
  In  In67  1  0.83375298  0.84957027  -0.00393428  1
  In  In68  1  0.37421716  -0.00471505  0.33485868  1
  In  In69  1  0.51057490  0.47551221  0.64970268  1
  In  In70  1  0.33338540  0.68544979  -0.00560159  1
  In  In71  1  0.32755859  0.17403152  0.81945870  1
  Te  Te72  1  0.08969401  0.11485079  0.10321044  1
  Te  Te73  1  0.08165685  0.08168531  0.41764732  1
  Te  Te74  1  0.08302297  0.09123826  0.71581936  1
  Te  Te75  1  0.08574310  0.41512859  0.08107268  1
  Te  Te76  1  0.05624435  0.36589274  0.41149840  1
  Te  Te77  1  0.08038695  0.40121910  0.74704596  1
  Te  Te78  1  0.06593614  0.78513903  0.08419324  1
  Te  Te79  1  0.08008365  0.74061799  0.39573176  1
  Te  Te80  1  0.07136925  0.77081663  0.74088146  1
  Te  Te81  1  0.40096059  0.05079918  0.06032186  1
  Te  Te82  1  0.41174177  0.09242271  0.44349508  1
  Te  Te83  1  0.41684104  0.09936677  0.72211017  1
  Te  Te84  1  0.40638006  0.41422266  0.08859327  1
  Te  Te85  1  0.43230775  0.40157274  0.42991104  1
  Te  Te86  1  0.44988331  0.39019140  0.75711334  1
  Te  Te87  1  0.42962187  0.75328582  0.08802188  1
  Te  Te88  1  0.43496179  0.77398825  0.40925891  1
  Te  Te89  1  0.42365916  0.78449829  0.70321727  1
  Te  Te90  1  0.72158324  0.10960174  0.07397956  1
  Te  Te91  1  0.76575393  0.08861322  0.43516179  1
  Te  Te92  1  0.76615139  0.09237221  0.74444130  1
  Te  Te93  1  0.71721757  0.39728928  0.05646701  1
  Te  Te94  1  0.73356545  0.42235005  0.43379149  1
  Te  Te95  1  0.75613936  0.41406802  0.76456496  1
  Te  Te96  1  0.73701751  0.75339710  0.07000117  1
  Te  Te97  1  0.76940226  0.73919259  0.41332645  1
  Te  Te98  1  0.74078661  0.76375806  0.76281951  1
  Te  Te99  1  0.06471509  0.23123504  0.23072160  1
  Te  Te100  1  0.08986710  0.21430008  0.60081740  1
  Te  Te101  1  0.10187536  0.24824411  0.90840758  1
  Te  Te102  1  0.09108872  0.57959592  0.24880396  1
  Te  Te103  1  0.07453897  0.55266523  0.56589133  1
  Te  Te104  1  0.07510130  0.57087266  0.89727444  1
  Te  Te105  1  0.07302681  0.92958703  0.24317005  1
  Te  Te106  1  0.09979935  0.90878199  0.57903201  1
  Te  Te107  1  0.08528170  0.95450720  0.92084627  1
  Te  Te108  1  0.41490030  0.24922827  0.26528049  1
  Te  Te109  1  0.47141673  0.29988864  0.62731718  1
  Te  Te110  1  0.43026380  0.23771161  0.91395868  1
  Te  Te111  1  0.40473870  0.59935169  0.26515498  1
  Te  Te112  1  0.41507877  0.58172272  0.59115151  1
  Te  Te113  1  0.41701437  0.58316938  0.91470878  1
  Te  Te114  1  0.42999260  0.90808912  0.23482147  1
  Te  Te115  1  0.41599842  0.91120100  0.61231621  1
  Te  Te116  1  0.38388841  0.89553088  0.88756287  1
  Te  Te117  1  0.72356677  0.26714823  0.27407512  1
  Te  Te118  1  0.77686442  0.24046339  0.59954470  1
  Te  Te119  1  0.75728137  0.20247635  0.95171120  1
  Te  Te120  1  0.74433795  0.56786084  0.22888837  1
  Te  Te121  1  0.74377735  0.60548260  0.56029771  1
  Te  Te122  1  0.75277527  0.57353178  0.91628310  1
  Te  Te123  1  0.70672071  0.92918179  0.24533018  1
  Te  Te124  1  0.75544232  0.92330076  0.58309789  1
  Te  Te125  1  0.73741494  0.91837923  0.90957986  1
  Te  Te126  1  0.26739801  0.24404306  0.10204749  1
  Te  Te127  1  0.24931601  0.24905298  0.43775960  1
  Te  Te128  1  0.26902301  0.27239338  0.72544572  1
  Te  Te129  1  0.22573473  0.59520084  0.06026446  1
  Te  Te130  1  0.23864926  0.56986107  0.42103030  1
  Te  Te131  1  0.27090984  0.58308572  0.74352677  1
  Te  Te132  1  0.26074803  0.91334596  0.07720100  1
  Te  Te133  1  0.25923717  0.91496530  0.42154732  1
  Te  Te134  1  0.25932284  0.93947932  0.79682436  1
  Te  Te135  1  0.60033856  0.20052629  0.11533958  1
  Te  Te136  1  0.57695806  0.25378933  0.41351775  1
  Te  Te137  1  0.58382877  0.24279741  0.74034270  1
  Te  Te138  1  0.57078476  0.56596254  0.09410850  1
  Te  Te139  1  0.57339523  0.58123949  0.40141574  1
  Te  Te140  1  0.57479759  0.58112622  0.75027938  1
  Te  Te141  1  0.59591974  0.92256688  0.05470572  1
  Te  Te142  1  0.59108001  0.93227357  0.40539020  1
  Te  Te143  1  0.57064677  0.90858691  0.75543683  1
  Te  Te144  1  0.89644811  0.24541444  0.08407370  1
  Te  Te145  1  0.93427682  0.24490194  0.42631521  1
  Te  Te146  1  0.91485138  0.24171981  0.78019076  1
  Te  Te147  1  0.93021100  0.59856943  0.07732426  1
  Te  Te148  1  0.93103141  0.56525791  0.40914890  1
  Te  Te149  1  0.89801661  0.60485402  0.74046154  1
  Te  Te150  1  0.91172441  0.95402454  0.06719139  1
  Te  Te151  1  0.89834748  0.92414500  0.41346291  1
  Te  Te152  1  0.92264705  0.93787449  0.74094239  1
  Te  Te153  1  0.25722198  0.08002894  0.26750424  1
  Te  Te154  1  0.26622603  0.08064335  0.61853908  1
  Te  Te155  1  0.24548081  0.07066608  0.89046891  1
  Te  Te156  1  0.25814330  0.43758802  0.24331092  1
  Te  Te157  1  0.26311417  0.40035557  0.60460688  1
  Te  Te158  1  0.24396221  0.42142267  0.91525510  1
  Te  Te159  1  0.25827844  0.75775243  0.24038505  1
  Te  Te160  1  0.24654689  0.73967548  0.60396045  1
  Te  Te161  1  0.23731028  0.74532031  0.89436214  1
  Te  Te162  1  0.61242994  0.04979709  0.27101073  1
  Te  Te163  1  0.58822990  0.08630766  0.58493818  1
  Te  Te164  1  0.57860923  0.06459380  0.90796668  1
  Te  Te165  1  0.59206164  0.40118070  0.24202724  1
  Te  Te166  1  0.62264177  0.43254084  0.56208633  1
  Te  Te167  1  0.59774019  0.37616455  0.93539945  1
  Te  Te168  1  0.61955937  0.77355947  0.24137519  1
  Te  Te169  1  0.58355691  0.76595188  0.57641255  1
  Te  Te170  1  0.56969955  0.73982841  0.90707963  1
  Te  Te171  1  0.88150221  0.08645329  0.23559043  1
  Te  Te172  1  0.97402872  0.08990227  0.60586208  1
  Te  Te173  1  0.93504216  0.06994549  0.94393075  1
  Te  Te174  1  0.90279115  0.40319021  0.24842731  1
  Te  Te175  1  0.91291048  0.41927836  0.59296600  1
  Te  Te176  1  0.91767022  0.41777265  0.92498903  1
  Te  Te177  1  0.90049188  0.78210318  0.23931378  1
  Te  Te178  1  0.91796449  0.75040421  0.57084248  1
  Te  Te179  1  0.90984555  0.75066368  0.90329816  1
