# generated using pymatgen
data_In2Te3
_symmetry_space_group_name_H-M   'P 1'
_cell_length_a   18.98592027
_cell_length_b   19.00314516
_cell_length_c   18.99644048
_cell_angle_alpha   90.14777256
_cell_angle_beta   89.70760932
_cell_angle_gamma   90.43765168
_symmetry_Int_Tables_number   1
_chemical_formula_structural   In2Te3
_chemical_formula_sum   'In72 Te108'
_cell_volume   6853.45623343
_cell_formula_units_Z   36
loop_
 _symmetry_equiv_pos_site_id
 _symmetry_equiv_pos_as_xyz
  1  'x, y, z'
loop_
 _atom_site_type_symbol
 _atom_site_label
 _atom_site_symmetry_multiplicity
 _atom_site_fract_x
 _atom_site_fract_y
 _atom_site_fract_z
 _atom_site_occupancy
  In  In0  1  0.52138391  0.51927754  0.33529975  1
  In  In1  1  0.66000656  0.34926957  0.35581017  1
  In  In2  1  0.79327967  0.34929937  0.83786285  1
  In  In3  1  0.32350607  0.02131729  0.31809925  1
  In  In4  1  0.31070281  0.01187594  0.66410279  1
  In  In5  1  0.16118785  0.65177999  0.84816116  1
  In  In6  1  0.00192956  0.49652991  0.52338390  1
  In  In7  1  0.34580306  0.64006218  -0.01759356  1
  In  In8  1  0.16770976  0.49557369  0.66252388  1
  In  In9  1  0.50647827  0.83402374  0.33498115  1
  In  In10  1  0.17375188  0.32005895  0.80771360  1
  In  In11  1  0.30897640  0.00087097  -0.03485178  1
  In  In12  1  0.70005694  0.66809063  -0.00849104  1
  In  In13  1  0.69120540  0.82499949  0.84592833  1
  In  In14  1  0.00419318  0.17146922  0.49896774  1
  In  In15  1  0.13626631  0.33078484  0.15884734  1
  In  In16  1  0.34530859  0.67526547  0.33395843  1
  In  In17  1  0.82622544  0.64036465  0.82915884  1
  In  In18  1  0.83334431  0.05778762  0.41899707  1
  In  In19  1  0.14289471  0.16293026  0.02208049  1
  In  In20  1  0.51469835  0.83396421  0.64393805  1
  In  In21  1  -0.03008833  0.65479017  -0.01690649  1
  In  In22  1  0.30254542  0.48937220  0.14003387  1
  In  In23  1  0.65367630  0.19782890  0.74976140  1
  In  In24  1  0.68292014  0.50218665  0.15819563  1
  In  In25  1  0.63207562  0.33814457  -0.01096711  1
  In  In26  1  0.06177561  0.45836962  0.32257505  1
  In  In27  1  0.83613713  0.00408299  0.18135415  1
  In  In28  1  0.50989601  0.50936068  -0.02891770  1
  In  In29  1  0.34657880  0.47806148  0.53978342  1
  In  In30  1  0.84346800  0.34043783  0.19130003  1
  In  In31  1  0.68574474  0.82090136  0.52188832  1
  In  In32  1  0.83384997  0.85156336  0.32594470  1
  In  In33  1  0.31184446  0.84836537  0.13830024  1
  In  In34  1  0.46516233  0.33200496  0.16312530  1
  In  In35  1  0.66768507  0.18586133  0.17718430  1
  In  In36  1  0.68299222  0.00999215  0.67318223  1
  In  In37  1  0.83321117  0.65242499  0.15386617  1
  In  In38  1  0.17432319  0.83589398  0.32138441  1
  In  In39  1  0.35448309  0.66889890  0.63635015  1
  In  In40  1  -0.02126418  0.82474502  0.13638146  1
  In  In41  1  0.11907350  0.84437956  -0.04460137  1
  In  In42  1  0.46199562  0.15405158  -0.02406446  1
  In  In43  1  -0.00037096  -0.00203180  0.31298628  1
  In  In44  1  0.50747439  0.18740655  0.33732833  1
  In  In45  1  0.61528502  0.56674121  0.56679328  1
  In  In46  1  0.52234874  0.80660259  -0.02573332  1
  In  In47  1  0.50597914  0.00281614  0.15061573  1
  In  In48  1  0.00714713  0.30954329  0.66757195  1
  In  In49  1  0.35037534  0.16347709  0.49168329  1
  In  In50  1  0.14695478  0.85503815  0.66910725  1
  In  In51  1  0.01449365  0.66454255  0.35296342  1
  In  In52  1  0.14930857  0.16859510  0.29622858  1
  In  In53  1  -0.01147447  0.67483879  0.69165355  1
  In  In54  1  0.56128365  0.03283859  0.51994194  1
  In  In55  1  0.83610611  0.18013075  -0.00818116  1
  In  In56  1  0.49990624  0.67432396  0.18404548  1
  In  In57  1  0.87559574  0.86285333  0.69570218  1
  In  In58  1  0.29893896  0.32168284  -0.02727041  1
  In  In59  1  0.33672504  0.46621812  0.78937050  1
  In  In60  1  0.66821796  -0.01091657  -0.01564865  1
  In  In61  1  -0.03003779  0.34422974  0.01342877  1
  In  In62  1  0.34998372  0.84313782  0.47634226  1
  In  In63  1  0.84369555  0.68381832  0.52899278  1
  In  In64  1  0.85404062  0.16433499  0.68451813  1
  In  In65  1  0.51552071  0.33878212  0.53031231  1
  In  In66  1  0.32360599  0.83417028  0.80362992  1
  In  In67  1  0.18474255  0.67045971  0.47948543  1
  In  In68  1  0.47634049  0.00201902  0.80305307  1
  In  In69  1  0.81428750  0.30754311  0.51136980  1
  In  In70  1  0.33803365  0.33180032  0.34035958  1
  In  In71  1  0.02445613  0.16179284  0.83649296  1
  Te  Te72  1  0.09086369  0.10561822  0.14700264  1
  Te  Te73  1  0.08563335  0.08039695  0.40412854  1
  Te  Te74  1  0.05934549  0.08563444  0.71211958  1
  Te  Te75  1  0.06091866  0.43486461  0.08777541  1
  Te  Te76  1  0.11077449  0.42412775  0.45630361  1
  Te  Te77  1  0.07334234  0.41896858  0.75194377  1
  Te  Te78  1  0.07879635  0.74391055  0.05812727  1
  Te  Te79  1  0.08746582  0.77538161  0.42975153  1
  Te  Te80  1  0.08549985  0.75971597  0.77122726  1
  Te  Te81  1  0.39122441  0.06709932  0.07852447  1
  Te  Te82  1  0.43712012  0.06590137  0.40992599  1
  Te  Te83  1  0.38471909  0.10594906  0.75561295  1
  Te  Te84  1  0.41218998  0.42247624  0.05390899  1
  Te  Te85  1  0.44136603  0.41381125  0.41613119  1
  Te  Te86  1  0.41711571  0.36288601  0.72325074  1
  Te  Te87  1  0.41815796  0.74858727  0.07879585  1
  Te  Te88  1  0.44361611  0.73233370  0.43330913  1
  Te  Te89  1  0.43129358  0.74997179  0.74084660  1
  Te  Te90  1  0.73683655  0.09213666  0.07983614  1
  Te  Te91  1  0.69150738  0.08155538  0.45388337  1
  Te  Te92  1  0.76531984  0.08180217  0.77548909  1
  Te  Te93  1  0.73980751  0.38346756  0.08661789  1
  Te  Te94  1  0.75036492  0.42190520  0.44368024  1
  Te  Te95  1  0.73103232  0.40810920  0.71661019  1
  Te  Te96  1  0.75551130  0.75788210  0.09072799  1
  Te  Te97  1  0.76551894  0.74841244  0.41659793  1
  Te  Te98  1  0.77325926  0.76106034  0.73885973  1
  Te  Te99  1  0.05751693  0.28236630  0.27492964  1
  Te  Te100  1  0.10027584  0.21271432  0.60639014  1
  Te  Te101  1  0.08074724  0.27404979  0.93081278  1
  Te  Te102  1  0.11092406  0.58839767  0.27560341  1
  Te  Te103  1  0.09430567  0.61021149  0.58701468  1
  Te  Te104  1  0.05270400  0.56825619  0.89591336  1
  Te  Te105  1  0.07815932  0.90178510  0.22762982  1
  Te  Te106  1  0.06280753  0.96177922  0.61659135  1
  Te  Te107  1  0.04656068  0.95800615  0.90185248  1
  Te  Te108  1  0.39533243  0.22517946  0.24462324  1
  Te  Te109  1  0.40677132  0.25746123  0.59317660  1
  Te  Te110  1  0.42008979  0.27446911  0.90068217  1
  Te  Te111  1  0.40587633  0.56417439  0.23837220  1
  Te  Te112  1  0.45095298  0.55960161  0.60702732  1
  Te  Te113  1  0.41882418  0.57215599  0.86890135  1
  Te  Te114  1  0.40891609  0.90881452  0.24220064  1
  Te  Te115  1  0.41568108  0.92934021  0.58446407  1
  Te  Te116  1  0.42217285  0.90426626  0.91460012  1
  Te  Te117  1  0.75145993  0.25361887  0.28076652  1
  Te  Te118  1  0.73751364  0.23885236  0.62560326  1
  Te  Te119  1  0.71904173  0.23702776  0.91281351  1
  Te  Te120  1  0.75642312  0.57878917  0.25637763  1
  Te  Te121  1  0.76448088  0.58179117  0.60388013  1
  Te  Te122  1  0.76939357  0.54905953  0.94041461  1
  Te  Te123  1  0.73480035  0.93346171  0.25953224  1
  Te  Te124  1  0.77402534  0.91907990  0.59570462  1
  Te  Te125  1  0.77719844  0.91919430  0.91714997  1
  Te  Te126  1  0.24990067  0.24948967  0.09240981  1
  Te  Te127  1  0.24669128  0.23280082  0.40490880  1
  Te  Te128  1  0.24855614  0.19868167  0.77755978  1
  Te  Te129  1  0.23390366  0.58982749  0.06226779  1
  Te  Te130  1  0.28698878  0.57289304  0.43086786  1
  Te  Te131  1  0.25662208  0.59886584  0.73275160  1
  Te  Te132  1  0.21304198  0.92138874  0.05181204  1
  Te  Te133  1  0.24553859  0.93290005  0.41452640  1
  Te  Te134  1  0.22512478  0.94090242  0.76976908  1
  Te  Te135  1  0.55402712  0.23258877  0.08086063  1
  Te  Te136  1  0.59833948  0.24074157  0.44452653  1
  Te  Te137  1  0.53983639  0.28830617  0.78396135  1
  Te  Te138  1  0.57830621  0.58581480  0.08313641  1
  Te  Te139  1  0.62699908  0.57423456  0.41819603  1
  Te  Te140  1  0.72005962  0.55221710  0.75487736  1
  Te  Te141  1  0.58814748  0.89780818  0.07790289  1
  Te  Te142  1  0.59092491  0.90552180  0.43947259  1
  Te  Te143  1  0.59285244  0.90745145  0.75382425  1
  Te  Te144  1  0.91727494  0.23643072  0.10630462  1
  Te  Te145  1  0.92767063  0.27120512  0.42560508  1
  Te  Te146  1  0.91438834  0.26350843  0.78779250  1
  Te  Te147  1  0.93762436  0.56647549  0.09832241  1
  Te  Te148  1  0.91625530  0.58582147  0.43761713  1
  Te  Te149  1  0.90865950  0.56001573  0.73280030  1
  Te  Te150  1  0.91398659  0.93918705  0.07578360  1
  Te  Te151  1  0.91746233  0.93079903  0.42392748  1
  Te  Te152  1  0.97392268  0.95541246  0.76332744  1
  Te  Te153  1  0.22305778  0.06161891  0.21770556  1
  Te  Te154  1  0.24358084  0.08763690  0.56039622  1
  Te  Te155  1  0.23106273  0.11341939  0.90777419  1
  Te  Te156  1  0.24302066  0.40514180  0.24955563  1
  Te  Te157  1  0.23674737  0.39142392  0.58467429  1
  Te  Te158  1  0.23656538  0.43392184  0.89737639  1
  Te  Te159  1  0.25411519  0.74237705  0.23328126  1
  Te  Te160  1  0.25532426  0.77314597  0.58096339  1
  Te  Te161  1  0.26147741  0.75274091  0.91504726  1
  Te  Te162  1  0.58347572  0.08331625  0.25287407  1
  Te  Te163  1  0.57101547  0.10839509  0.65060436  1
  Te  Te164  1  0.56568155  0.07130780  0.90385000  1
  Te  Te165  1  0.57508820  0.40546537  0.23687603  1
  Te  Te166  1  0.61145969  0.41997389  0.60953867  1
  Te  Te167  1  0.58943676  0.42639196  0.87821203  1
  Te  Te168  1  0.59791753  0.74780884  0.26155846  1
  Te  Te169  1  0.60138310  0.72111944  0.59778194  1
  Te  Te170  1  0.59799555  0.70881695  0.88790441  1
  Te  Te171  1  0.89160639  0.09993541  0.28467853  1
  Te  Te172  1  0.89131641  0.09020162  0.56029876  1
  Te  Te173  1  0.94184413  0.08944855  0.93820775  1
  Te  Te174  1  0.92600337  0.43528272  0.26870314  1
  Te  Te175  1  0.91194858  0.39803462  0.59428161  1
  Te  Te176  1  0.87958646  0.42951774  0.92964247  1
  Te  Te177  1  0.92727587  0.74925178  0.25952866  1
  Te  Te178  1  0.94604309  0.77802507  0.58956706  1
  Te  Te179  1  0.89534975  0.74968563  0.90214817  1
