# generated using pymatgen
data_In2Te3
_symmetry_space_group_name_H-M   'P 1'
_cell_length_a   18.98633374
_cell_length_b   19.02220476
_cell_length_c   19.00568594
_cell_angle_alpha   90.12724210
_cell_angle_beta   90.11988267
_cell_angle_gamma   90.26048146
_symmetry_Int_Tables_number   1
_chemical_formula_structural   In2Te3
_chemical_formula_sum   'In72 Te108'
_cell_volume   6864.02714591
_cell_formula_units_Z   36
loop_
 _symmetry_equiv_pos_site_id
 _symmetry_equiv_pos_as_xyz
  1  'x, y, z'
loop_
 _atom_site_type_symbol
 _atom_site_label
 _atom_site_symmetry_multiplicity
 _atom_site_fract_x
 _atom_site_fract_y
 _atom_site_fract_z
 _atom_site_occupancy
  In  In0  1  0.49343699  -0.02425394  0.51101620  1
  In  In1  1  0.54488330  0.16685348  -0.00358246  1
  In  In2  1  0.82201530  0.35470207  0.50443220  1
  In  In3  1  -0.01726995  0.31526409  0.30306025  1
  In  In4  1  0.67627134  -0.01998785  0.68851571  1
  In  In5  1  0.66944360  0.83340956  0.20884175  1
  In  In6  1  0.48735195  -0.00244063  0.83386797  1
  In  In7  1  0.35144151  0.33486421  -0.00517467  1
  In  In8  1  0.33392704  0.18618259  0.48969505  1
  In  In9  1  0.29171510  0.79566986  0.75825224  1
  In  In10  1  0.47833913  0.81081699  0.36062029  1
  In  In11  1  0.30923245  0.02529173  0.01925517  1
  In  In12  1  0.16487246  0.65899981  0.79662101  1
  In  In13  1  0.15153269  0.18447156  0.00364650  1
  In  In14  1  0.52147817  0.35036287  0.86079213  1
  In  In15  1  0.14844383  -0.03146340  0.82884424  1
  In  In16  1  0.00647000  0.21635373  0.81654985  1
  In  In17  1  0.85551324  0.64110158  0.47897365  1
  In  In18  1  0.31440770  0.59455250  0.38350803  1
  In  In19  1  0.47829622  0.49612493  0.33435508  1
  In  In20  1  0.02303457  0.82937880  0.49508985  1
  In  In21  1  0.00318818  0.17195445  0.48470280  1
  In  In22  1  0.66610409  0.84563988  0.48871361  1
  In  In23  1  0.47648587  0.64893347  0.50638874  1
  In  In24  1  -0.02787769  0.81502509  0.85745888  1
  In  In25  1  0.54230205  0.16479103  0.65801789  1
  In  In26  1  0.16921860  0.84482693  0.33808840  1
  In  In27  1  0.66809973  0.67286402  0.34105634  1
  In  In28  1  0.03243399  0.65955617  0.36320888  1
  In  In29  1  0.83872138  0.34990114  0.83490363  1
  In  In30  1  0.33426386  0.15463566  0.80799228  1
  In  In31  1  -0.01476530  0.01163457  0.30053639  1
  In  In32  1  0.53327069  0.65538469  0.83842380  1
  In  In33  1  0.84420039  0.02675909  0.83876860  1
  In  In34  1  0.84537851  0.51237460  0.01149314  1
  In  In35  1  0.71505046  0.34472187  0.01235868  1
  In  In36  1  0.50150220  0.48593439  0.66772825  1
  In  In37  1  0.15263262  0.01222850  0.48903122  1
  In  In38  1  0.67724296  0.34015112  0.66011639  1
  In  In39  1  0.73298167  0.80731146  0.84375272  1
  In  In40  1  0.49632404  0.34108339  0.48399538  1
  In  In41  1  0.84050394  0.50833868  0.64748726  1
  In  In42  1  0.66525194  -0.01177464  0.01495375  1
  In  In43  1  0.47905893  0.82584282  -0.02194286  1
  In  In44  1  0.68546836  0.65227989  0.03291331  1
  In  In45  1  0.83522052  0.81352848  0.68621342  1
  In  In46  1  -0.01818543  0.82123855  0.14058923  1
  In  In47  1  0.47054178  0.32185369  0.17906697  1
  In  In48  1  0.01080860  0.48481803  0.81283949  1
  In  In49  1  0.14662656  0.50193270  0.00237431  1
  In  In50  1  0.19393264  0.35347483  0.19828870  1
  In  In51  1  0.31891831  0.51463158  0.82697511  1
  In  In52  1  0.66300854  0.34809345  0.35705236  1
  In  In53  1  0.83240173  0.02949557  0.49045219  1
  In  In54  1  0.01792823  0.64226272  0.65509591  1
  In  In55  1  0.16184317  0.33413035  0.45756133  1
  In  In56  1  0.49835343  0.17895475  0.33091383  1
  In  In57  1  0.83539308  0.66083437  0.19225468  1
  In  In58  1  0.52295689  0.50260960  0.02873187  1
  In  In59  1  0.69102936  0.17841144  0.15624692  1
  In  In60  1  0.17521367  0.17241408  0.66168606  1
  In  In61  1  0.31184140  0.33537712  0.65948702  1
  In  In62  1  0.18394357  0.01591195  0.18066610  1
  In  In63  1  0.47936233  0.00459429  0.17911357  1
  In  In64  1  0.00536844  0.00265325  0.64143305  1
  In  In65  1  0.14724886  0.68060488  0.15699071  1
  In  In66  1  0.33006748  0.83852757  0.14299204  1
  In  In67  1  0.48949353  0.82081235  0.65922616  1
  In  In68  1  0.00324462  0.50597005  0.19198528  1
  In  In69  1  0.84074139  0.86665905  0.30815846  1
  In  In70  1  0.31411067  0.66051324  -0.01582367  1
  In  In71  1  -0.01954846  0.02556473  0.02735307  1
  Te  Te72  1  0.07893126  0.10499899  0.11066671  1
  Te  Te73  1  0.08305286  0.09521839  0.38117670  1
  Te  Te74  1  0.08060273  0.08637578  0.74633484  1
  Te  Te75  1  0.08372075  0.41144326  0.10501608  1
  Te  Te76  1  0.05311592  0.41219170  0.39401337  1
  Te  Te77  1  0.11840413  0.41939863  0.74021887  1
  Te  Te78  1  0.06915641  0.74633274  0.05199282  1
  Te  Te79  1  0.13331496  0.74108616  0.44385361  1
  Te  Te80  1  0.05714962  0.76034504  0.74926315  1
  Te  Te81  1  0.43053864  0.09996005  0.07180486  1
  Te  Te82  1  0.42593197  0.08503561  0.42519420  1
  Te  Te83  1  0.43133425  0.07853476  0.71986934  1
  Te  Te84  1  0.40669022  0.43232122  0.09706410  1
  Te  Te85  1  0.39107794  0.38308847  0.38549089  1
  Te  Te86  1  0.41143708  0.40079707  0.76750933  1
  Te  Te87  1  0.41430337  0.73100899  0.07583804  1
  Te  Te88  1  0.37320954  0.73207592  0.43485031  1
  Te  Te89  1  0.42704261  0.72035205  0.75361953  1
  Te  Te90  1  0.75799996  0.10293833  0.04521373  1
  Te  Te91  1  0.77497341  0.07763912  0.36646495  1
  Te  Te92  1  0.75309362  0.09106460  0.74429474  1
  Te  Te93  1  0.77342838  0.43413627  0.11488467  1
  Te  Te94  1  0.76015329  0.44847312  0.40752930  1
  Te  Te95  1  0.75035226  0.43746956  0.74989860  1
  Te  Te96  1  0.75863318  0.76366371  0.11119956  1
  Te  Te97  1  0.76944036  0.77070812  0.40684057  1
  Te  Te98  1  0.72195319  0.72832347  0.72048747  1
  Te  Te99  1  0.09574137  0.24903506  0.23513537  1
  Te  Te100  1  0.09080964  0.25851106  0.57392795  1
  Te  Te101  1  0.07629255  0.28314673  0.92635494  1
  Te  Te102  1  0.11414100  0.57922940  0.26521505  1
  Te  Te103  1  0.07398310  0.55346535  0.55366953  1
  Te  Te104  1  0.07670431  0.58934445  0.90389385  1
  Te  Te105  1  0.07715909  0.90914843  0.23439111  1
  Te  Te106  1  0.11011191  0.90598484  0.59280755  1
  Te  Te107  1  0.04828023  0.92331088  0.93104500  1
  Te  Te108  1  0.38102511  0.22295004  0.24737680  1
  Te  Te109  1  0.43198962  0.25512827  0.59823210  1
  Te  Te110  1  0.42518231  0.22878418  0.90731129  1
  Te  Te111  1  0.39128276  0.58886760  0.26087031  1
  Te  Te112  1  0.40119034  0.55016812  0.58359613  1
  Te  Te113  1  0.42784425  0.57017548  0.92071114  1
  Te  Te114  1  0.40401973  0.90224577  0.25953607  1
  Te  Te115  1  0.39354987  0.89341458  0.57778790  1
  Te  Te116  1  0.38682218  0.93058046  0.92339512  1
  Te  Te117  1  0.74679132  0.27047413  0.26064927  1
  Te  Te118  1  0.73973750  0.24844744  0.56553120  1
  Te  Te119  1  0.76170451  0.25083882  0.91184612  1
  Te  Te120  1  0.76547318  0.57393478  0.28903817  1
  Te  Te121  1  0.75055578  0.58919001  0.56341453  1
  Te  Te122  1  0.76699040  0.59975202  0.92163187  1
  Te  Te123  1  0.74270661  0.95720968  0.24317643  1
  Te  Te124  1  0.77043202  0.91220458  0.57925859  1
  Te  Te125  1  0.77497752  0.92619097  0.92834500  1
  Te  Te126  1  0.25419335  0.26183571  0.08364946  1
  Te  Te127  1  0.22671687  0.21749557  0.39584290  1
  Te  Te128  1  0.23562913  0.26279765  0.76878831  1
  Te  Te129  1  0.24237946  0.58086307  0.08968484  1
  Te  Te130  1  0.20486955  0.54812978  0.46864581  1
  Te  Te131  1  0.21517834  0.53158102  0.71734998  1
  Te  Te132  1  0.22107561  0.91444484  0.07100384  1
  Te  Te133  1  0.25080088  0.94548564  0.40469221  1
  Te  Te134  1  0.26159640  0.93843996  0.74387952  1
  Te  Te135  1  0.58409301  0.28438771  0.08145213  1
  Te  Te136  1  0.59366150  0.23585410  0.43454686  1
  Te  Te137  1  0.59616333  0.25977900  0.76441920  1
  Te  Te138  1  0.59893779  0.58088638  0.12551694  1
  Te  Te139  1  0.57545319  0.57865339  0.41686020  1
  Te  Te140  1  0.59890170  0.56402196  0.74622921  1
  Te  Te141  1  0.55682074  0.90913934  0.08550736  1
  Te  Te142  1  0.57870392  0.92179283  0.39408541  1
  Te  Te143  1  0.57409217  0.89561499  0.76235211  1
  Te  Te144  1  0.84391817  0.20710981  0.14297343  1
  Te  Te145  1  0.90009480  0.25430059  0.41559229  1
  Te  Te146  1  0.91669191  0.28769514  0.72394839  1
  Te  Te147  1  0.93509623  0.60168121  0.09554149  1
  Te  Te148  1  0.95925700  0.54515464  0.43123698  1
  Te  Te149  1  0.91736599  0.58899764  0.75252887  1
  Te  Te150  1  0.89543094  0.93108092  0.10058326  1
  Te  Te151  1  0.93508177  0.92905528  0.42441633  1
  Te  Te152  1  0.92040242  0.92789143  0.74379585  1
  Te  Te153  1  0.30084123  0.09006823  0.22295934  1
  Te  Te154  1  0.25890575  0.08446947  0.57568082  1
  Te  Te155  1  0.22937109  0.08905869  0.90604756  1
  Te  Te156  1  0.27520316  0.43332999  0.29400110  1
  Te  Te157  1  0.26530434  0.40891801  0.54012798  1
  Te  Te158  1  0.24900946  0.42121080  0.92329859  1
  Te  Te159  1  0.24722874  0.75772074  0.24104842  1
  Te  Te160  1  0.22947086  0.69858603  0.66579283  1
  Te  Te161  1  0.23971138  0.75406114  0.89799293  1
  Te  Te162  1  0.58251724  0.09880811  0.23517646  1
  Te  Te163  1  0.60615564  0.05607251  0.57501281  1
  Te  Te164  1  0.60335626  0.06976220  0.89834943  1
  Te  Te165  1  0.57108090  0.40965677  0.25283949  1
  Te  Te166  1  0.59327359  0.42426119  0.56428107  1
  Te  Te167  1  0.61899706  0.43889549  0.93141691  1
  Te  Te168  1  0.56136670  0.73937658  0.25495753  1
  Te  Te169  1  0.58122812  0.74709716  0.56450591  1
  Te  Te170  1  0.60387580  0.75095943  0.93537019  1
  Te  Te171  1  0.88182606  0.10793394  0.25674716  1
  Te  Te172  1  0.91213642  0.11000637  0.59165842  1
  Te  Te173  1  0.93819099  0.11781025  0.91526111  1
  Te  Te174  1  0.89546285  0.41116644  0.22857211  1
  Te  Te175  1  0.92736425  0.39846611  0.60097640  1
  Te  Te176  1  0.93263481  0.42086887  0.93014808  1
  Te  Te177  1  0.93936584  0.74500745  0.27753314  1
  Te  Te178  1  0.92348507  0.74607986  0.57362533  1
  Te  Te179  1  0.85508045  0.74360550  0.90750526  1
