# generated using pymatgen
data_In2Te3
_symmetry_space_group_name_H-M   'P 1'
_cell_length_a   18.80302985
_cell_length_b   18.79678198
_cell_length_c   18.80083471
_cell_angle_alpha   89.90099655
_cell_angle_beta   90.00489344
_cell_angle_gamma   90.12397835
_symmetry_Int_Tables_number   1
_chemical_formula_structural   In2Te3
_chemical_formula_sum   'In72 Te108'
_cell_volume   6644.87482611
_cell_formula_units_Z   36
loop_
 _symmetry_equiv_pos_site_id
 _symmetry_equiv_pos_as_xyz
  1  'x, y, z'
loop_
 _atom_site_type_symbol
 _atom_site_label
 _atom_site_symmetry_multiplicity
 _atom_site_fract_x
 _atom_site_fract_y
 _atom_site_fract_z
 _atom_site_occupancy
  In  In0  1  0.65244095  0.33797430  0.01641978  1
  In  In1  1  0.66844262  0.17306211  0.48309147  1
  In  In2  1  0.65332808  0.01046238  -0.00093586  1
  In  In3  1  0.17366094  0.48588652  0.34138526  1
  In  In4  1  0.68339064  -0.01536663  0.66553524  1
  In  In5  1  0.84246491  0.00493289  0.79976870  1
  In  In6  1  0.00176883  0.17240844  0.18006242  1
  In  In7  1  0.14945926  0.64844646  0.49609229  1
  In  In8  1  0.82198653  0.65332944  0.81527540  1
  In  In9  1  0.49640472  0.49709350  0.32699735  1
  In  In10  1  0.83665605  0.01227588  0.16310928  1
  In  In11  1  0.50241360  0.66568550  0.84058968  1
  In  In12  1  0.67583387  0.84230212  0.50199296  1
  In  In13  1  0.01014347  0.34680872  0.64885404  1
  In  In14  1  0.33625985  0.00434584  0.02288159  1
  In  In15  1  0.50112506  0.17441564  0.33491942  1
  In  In16  1  0.19951691  0.65056930  0.13198802  1
  In  In17  1  0.82670127  0.82846580  -0.00379978  1
  In  In18  1  0.85647179  0.86831705  0.37140340  1
  In  In19  1  0.34372644  0.49512520  0.84638478  1
  In  In20  1  0.81554885  0.18576844  0.33494270  1
  In  In21  1  0.00540917  0.81839717  0.82668392  1
  In  In22  1  0.66445400  0.49268087  0.15423848  1
  In  In23  1  0.84456161  0.33150125  0.49581866  1
  In  In24  1  0.21977514  0.35383576  0.84456051  1
  In  In25  1  0.17004010  -0.01610079  0.83170789  1
  In  In26  1  -0.00653207  0.49622388  0.17396494  1
  In  In27  1  0.49278597  0.00925660  0.83398592  1
  In  In28  1  0.15394590  0.33244276  0.49150911  1
  In  In29  1  0.14710283  0.15354689  0.36813128  1
  In  In30  1  0.36553400  0.19952534  0.85000543  1
  In  In31  1  0.66190980  0.48510702  0.84494750  1
  In  In32  1  0.31555098  0.81419715  0.83725026  1
  In  In33  1  0.85449376  0.65283588  0.16295151  1
  In  In34  1  0.48734586  0.34617150  0.15652182  1
  In  In35  1  -0.00058956  0.66538383  0.33316819  1
  In  In36  1  0.15791660  0.51544248  0.67541514  1
  In  In37  1  0.00994749  -0.02394993  -0.02517904  1
  In  In38  1  0.33539138  0.50153191  0.49048040  1
  In  In39  1  0.00106095  0.00907304  0.64381484  1
  In  In40  1  0.64846301  0.34419355  0.67943969  1
  In  In41  1  0.33591748  -0.00054636  0.32866000  1
  In  In42  1  0.65781736  0.81625779  0.82892444  1
  In  In43  1  0.18678015  0.33522121  0.17208125  1
  In  In44  1  0.35944486  0.16603959  0.15949016  1
  In  In45  1  0.64913124  0.84999672  0.16115802  1
  In  In46  1  0.64950779  0.65123681  -0.00734563  1
  In  In47  1  0.49307075  -0.00494702  0.48693281  1
  In  In48  1  0.49841580  0.17967162  0.66315105  1
  In  In49  1  0.34323729  0.84091997  0.48951254  1
  In  In50  1  0.47520592  0.67295995  0.49567418  1
  In  In51  1  -0.00527061  0.31754899  0.02715791  1
  In  In52  1  0.33636104  0.65804570  0.67213439  1
  In  In53  1  0.03694632  0.81126248  0.17279139  1
  In  In54  1  0.66225828  0.69562082  0.34011831  1
  In  In55  1  0.34572813  0.32973671  0.67618056  1
  In  In56  1  0.67274298  0.67243909  0.65212518  1
  In  In57  1  0.82905079  0.34736993  0.83783407  1
  In  In58  1  0.16169545  0.82310825  0.68260339  1
  In  In59  1  0.18959385  -0.02931491  0.18475573  1
  In  In60  1  0.82855711  0.13768272  0.66498305  1
  In  In61  1  0.16529036  0.83358001  0.34438014  1
  In  In62  1  0.65573758  0.01613480  0.33672823  1
  In  In63  1  0.21553952  0.16482074  0.60839121  1
  In  In64  1  0.47730183  0.64693337  0.15794476  1
  In  In65  1  0.16937850  0.15788403  0.01872596  1
  In  In66  1  0.35391593  0.82931754  0.17184641  1
  In  In67  1  0.02300587  0.52594384  0.85598878  1
  In  In68  1  0.81796751  0.18610666  0.01454434  1
  In  In69  1  0.67642299  0.48837966  0.51419190  1
  In  In70  1  0.83592391  0.50842973  0.34816144  1
  In  In71  1  -0.00743586  0.17181008  0.83907925  1
  Te  Te72  1  0.07016202  0.06490173  0.08721602  1
  Te  Te73  1  0.05864771  0.05550328  0.43313326  1
  Te  Te74  1  0.08075369  0.08115626  0.75430931  1
  Te  Te75  1  0.09355289  0.41948554  0.08445575  1
  Te  Te76  1  0.06774665  0.43373256  0.42857271  1
  Te  Te77  1  0.08990739  0.40593242  0.76703960  1
  Te  Te78  1  0.07528502  0.71324921  0.06899566  1
  Te  Te79  1  0.06497617  0.76104778  0.43462136  1
  Te  Te80  1  0.06266115  0.72166012  0.72873781  1
  Te  Te81  1  0.44172916  0.10769905  0.04937302  1
  Te  Te82  1  0.40121821  0.09946729  0.42501093  1
  Te  Te83  1  0.40049823  0.09305630  0.74456250  1
  Te  Te84  1  0.39734151  0.40802695  0.05464922  1
  Te  Te85  1  0.42349649  0.40750458  0.42062549  1
  Te  Te86  1  0.43290940  0.41669001  0.75800782  1
  Te  Te87  1  0.40890759  0.74210516  0.06618359  1
  Te  Te88  1  0.40930871  0.75304566  0.39143219  1
  Te  Te89  1  0.42565351  0.75671066  0.74525045  1
  Te  Te90  1  0.72632144  0.09855408  0.10246019  1
  Te  Te91  1  0.76278305  0.06808700  0.42888182  1
  Te  Te92  1  0.72363827  0.09420100  0.76618929  1
  Te  Te93  1  0.76149357  0.42529108  0.06729819  1
  Te  Te94  1  0.74153651  0.40290971  0.40571820  1
  Te  Te95  1  0.75871922  0.43601069  0.73674193  1
  Te  Te96  1  0.74006102  0.73961212  0.08712897  1
  Te  Te97  1  0.77935333  0.74063096  0.43168409  1
  Te  Te98  1  0.76351350  0.76751507  0.73129924  1
  Te  Te99  1  0.09072190  0.26120090  0.26456484  1
  Te  Te100  1  0.07990832  0.23009299  0.57948904  1
  Te  Te101  1  0.09099675  0.25202447  0.92393949  1
  Te  Te102  1  0.09962894  0.59164739  0.24471786  1
  Te  Te103  1  0.05687848  0.58806953  0.59552182  1
  Te  Te104  1  0.11009513  0.61700106  0.93502541  1
  Te  Te105  1  0.06948332  0.92710387  0.26509942  1
  Te  Te106  1  0.08719659  0.90418850  0.58130321  1
  Te  Te107  1  0.11105027  0.87533597  0.92219673  1
  Te  Te108  1  0.40342862  0.26771132  0.26158169  1
  Te  Te109  1  0.40943737  0.25096386  0.56911307  1
  Te  Te110  1  0.42044553  0.31088140  0.93491367  1
  Te  Te111  1  0.38958111  0.55924167  0.24247844  1
  Te  Te112  1  0.42895684  0.56595403  0.59539794  1
  Te  Te113  1  0.40202016  0.60501272  0.93389887  1
  Te  Te114  1  0.42967769  0.94241821  0.23025624  1
  Te  Te115  1  0.42252013  0.91512449  0.58924504  1
  Te  Te116  1  0.40126502  0.91650759  0.91472227  1
  Te  Te117  1  0.75395617  0.24364177  0.21615442  1
  Te  Te118  1  0.74448208  0.25079307  0.59382064  1
  Te  Te119  1  0.73452738  0.25236790  0.90802540  1
  Te  Te120  1  0.73916328  0.59360482  0.25211870  1
  Te  Te121  1  0.77333199  0.58435126  0.58215894  1
  Te  Te122  1  0.75973825  0.56933800  0.92767155  1
  Te  Te123  1  0.75224026  0.91401820  0.25548098  1
  Te  Te124  1  0.77879652  0.92149609  0.57282259  1
  Te  Te125  1  0.74912229  0.92291869  0.90500402  1
  Te  Te126  1  0.27060523  0.25736925  0.07118729  1
  Te  Te127  1  0.24832549  0.25050920  0.41388456  1
  Te  Te128  1  0.23960193  0.23473097  0.74783270  1
  Te  Te129  1  0.29415997  0.55648021  0.06124130  1
  Te  Te130  1  0.25911736  0.60011362  0.40358295  1
  Te  Te131  1  0.24112927  0.59629181  0.77398677  1
  Te  Te132  1  0.24410884  0.89188884  0.07112111  1
  Te  Te133  1  0.23274684  0.94302742  0.43112358  1
  Te  Te134  1  0.26760671  0.92045151  0.73487455  1
  Te  Te135  1  0.56721457  0.23994366  0.08947971  1
  Te  Te136  1  0.58393304  0.26962062  0.41332636  1
  Te  Te137  1  0.57025427  0.25480391  0.76773705  1
  Te  Te138  1  0.55748152  0.55484039  0.06576001  1
  Te  Te139  1  0.58951444  0.58859645  0.42253932  1
  Te  Te140  1  0.59244276  0.58395898  0.74941348  1
  Te  Te141  1  0.55841195  0.92279591  0.07225288  1
  Te  Te142  1  0.57703320  0.90098016  0.40103647  1
  Te  Te143  1  0.57479649  0.91286163  0.74517132  1
  Te  Te144  1  0.88423035  0.26691670  0.12917826  1
  Te  Te145  1  0.92800597  0.25306903  0.40334846  1
  Te  Te146  1  0.90957291  0.25471627  0.74168091  1
  Te  Te147  1  0.92485813  0.57066770  0.06516507  1
  Te  Te148  1  0.92226553  0.59107407  0.43925730  1
  Te  Te149  1  0.93360825  0.58023985  0.75051806  1
  Te  Te150  1  0.92453706  0.90281075  0.08793508  1
  Te  Te151  1  0.96402543  0.93066536  0.45156592  1
  Te  Te152  1  0.92298055  0.90187634  0.72648010  1
  Te  Te153  1  0.24185510  0.09954722  0.24189630  1
  Te  Te154  1  0.26725438  0.04319335  0.54935552  1
  Te  Te155  1  0.25388507  0.08544262  0.91363232  1
  Te  Te156  1  0.27418014  0.43193060  0.24607008  1
  Te  Te157  1  0.24343313  0.42107129  0.59267431  1
  Te  Te158  1  0.23635311  0.45764638  0.95272697  1
  Te  Te159  1  0.24420100  0.74984276  0.24292315  1
  Te  Te160  1  0.25188257  0.73999601  0.57502708  1
  Te  Te161  1  0.23599846  0.70632511  0.90100614  1
  Te  Te162  1  0.57043079  0.08527052  0.23961517  1
  Te  Te163  1  0.59126003  0.07742371  0.57872274  1
  Te  Te164  1  0.56730083  0.10470898  0.92093147  1
  Te  Te165  1  0.59415035  0.40442834  0.25459408  1
  Te  Te166  1  0.56685522  0.41134895  0.57583784  1
  Te  Te167  1  0.55826172  0.40797905  0.92032203  1
  Te  Te168  1  0.56338821  0.74873363  0.23868568  1
  Te  Te169  1  0.57221033  0.75942860  0.57928430  1
  Te  Te170  1  0.56650873  0.76785354  0.93952291  1
  Te  Te171  1  0.91840156  0.08134802  0.26927182  1
  Te  Te172  1  0.92347383  0.10368398  0.55774012  1
  Te  Te173  1  0.90546380  0.08410118  0.93164538  1
  Te  Te174  1  0.92055355  0.41419478  0.27198544  1
  Te  Te175  1  0.90862630  0.43086987  0.58544609  1
  Te  Te176  1  0.93439754  0.41370500  0.92345896  1
  Te  Te177  1  0.90698999  0.76297218  0.25534063  1
  Te  Te178  1  0.87215758  0.70385693  0.54826186  1
  Te  Te179  1  0.91158114  0.73507849  0.91509367  1
