# generated using pymatgen
data_In2Te3
_symmetry_space_group_name_H-M   'P 1'
_cell_length_a   18.84563292
_cell_length_b   18.86057826
_cell_length_c   18.85334194
_cell_angle_alpha   90.01758244
_cell_angle_beta   90.03583891
_cell_angle_gamma   89.99321276
_symmetry_Int_Tables_number   1
_chemical_formula_structural   In2Te3
_chemical_formula_sum   'In72 Te108'
_cell_volume   6701.22141368
_cell_formula_units_Z   36
loop_
 _symmetry_equiv_pos_site_id
 _symmetry_equiv_pos_as_xyz
  1  'x, y, z'
loop_
 _atom_site_type_symbol
 _atom_site_label
 _atom_site_symmetry_multiplicity
 _atom_site_fract_x
 _atom_site_fract_y
 _atom_site_fract_z
 _atom_site_occupancy
  In  In0  1  0.17209352  0.81678420  0.71918953  1
  In  In1  1  0.33669294  -0.01565914  0.31990441  1
  In  In2  1  0.67870299  0.14555229  0.19217027  1
  In  In3  1  0.49702007  0.50216273  -0.02631110  1
  In  In4  1  0.33027333  0.81068223  0.51785697  1
  In  In5  1  0.15408147  0.18118373  0.66121059  1
  In  In6  1  0.33151655  0.49572702  0.18903774  1
  In  In7  1  0.00422612  0.66532111  0.64817560  1
  In  In8  1  0.84858451  0.37181287  0.53409650  1
  In  In9  1  0.00651353  0.82836202  0.17598973  1
  In  In10  1  0.31435048  0.64734036  0.33149760  1
  In  In11  1  0.64405023  0.00149350  0.32793701  1
  In  In12  1  -0.00348217  0.81644479  0.50804593  1
  In  In13  1  0.31707172  0.65196919  0.67741521  1
  In  In14  1  -0.01544423  0.18335528  0.83628139  1
  In  In15  1  0.81412219  0.00119835  0.85617097  1
  In  In16  1  0.49938216  0.35162784  0.16239740  1
  In  In17  1  -0.00774346  0.50570056  0.82160813  1
  In  In18  1  0.84783845  0.34322709  0.80488209  1
  In  In19  1  0.46873018  0.36221915  0.79389523  1
  In  In20  1  0.31687848  0.32603884  0.32690954  1
  In  In21  1  0.34785328  0.00501629  0.68242350  1
  In  In22  1  0.20250730  -0.01878544  0.15285125  1
  In  In23  1  0.85947948  -0.01867418  0.50396674  1
  In  In24  1  0.67360235  0.67574312  0.00106289  1
  In  In25  1  0.52120069  0.66381340  0.51996089  1
  In  In26  1  0.52887138  0.79150021  0.65562737  1
  In  In27  1  0.51151018  0.14741325  0.00269689  1
  In  In28  1  0.32814666  0.17221006  0.49405187  1
  In  In29  1  0.80017530  0.49106304  0.35033655  1
  In  In30  1  0.00253434  0.50365347  0.16007020  1
  In  In31  1  0.84690447  -0.01797221  0.16497913  1
  In  In32  1  0.31152044  0.30619946  -0.01735014  1
  In  In33  1  0.65882256  0.84206102  0.85266889  1
  In  In34  1  0.16211712  0.68672713  0.14915460  1
  In  In35  1  0.17860206  0.33564127  0.81763983  1
  In  In36  1  0.84448729  0.67433636  0.83830729  1
  In  In37  1  0.16704547  0.50300987  0.66878784  1
  In  In38  1  0.83292960  0.15724948  0.33242587  1
  In  In39  1  0.36205386  0.68685851  -0.00071233  1
  In  In40  1  0.15514652  0.15544477  0.01172922  1
  In  In41  1  0.32391822  0.16210615  0.85576615  1
  In  In42  1  -0.02333448  0.65012301  0.33918668  1
  In  In43  1  0.83903412  0.81691802  0.66608608  1
  In  In44  1  0.65629636  0.16615084  0.84096632  1
  In  In45  1  0.13565158  0.00929747  0.48729128  1
  In  In46  1  0.00495711  0.68761651  0.00366176  1
  In  In47  1  0.14903367  0.82302863  0.33543350  1
  In  In48  1  0.65516021  0.34166568  -0.01565416  1
  In  In49  1  0.68626341  0.69049102  0.34292693  1
  In  In50  1  0.02025499  -0.00362629  0.69907923  1
  In  In51  1  0.16456484  0.49610364  0.36318327  1
  In  In52  1  0.16810076  0.48194938  0.00578612  1
  In  In53  1  0.85162000  0.15936938  0.01041532  1
  In  In54  1  0.67027185  0.19802585  0.49248078  1
  In  In55  1  -0.00134249  0.17690054  0.50648238  1
  In  In56  1  -0.02115876  0.02038116  0.34537005  1
  In  In57  1  0.48206465  0.15439035  0.66151491  1
  In  In58  1  0.83191196  0.31813640  0.15885836  1
  In  In59  1  0.33920246  0.17003458  0.14766820  1
  In  In60  1  0.67916607  -0.00480077  0.70023346  1
  In  In61  1  0.67592771  0.34929261  0.66150440  1
  In  In62  1  0.34468352  0.84264483  0.87268957  1
  In  In63  1  0.01344869  0.32684889  0.31967560  1
  In  In64  1  0.64626771  0.85526367  0.14548467  1
  In  In65  1  0.51002427  0.34386536  0.48128026  1
  In  In66  1  0.65932214  0.51488108  0.16661659  1
  In  In67  1  0.49494622  0.83637710  0.31859088  1
  In  In68  1  0.84629808  0.52208348  -0.01825082  1
  In  In69  1  0.49272500  0.51547481  0.33358813  1
  In  In70  1  0.51753032  -0.00107409  0.49210268  1
  In  In71  1  0.51043534  0.66675597  0.79291146  1
  Te  Te72  1  0.08924620  0.03829757  0.07508811  1
  Te  Te73  1  0.09260488  0.12124049  0.38955311  1
  Te  Te74  1  0.10040453  0.09829080  0.77678357  1
  Te  Te75  1  0.07260643  0.40068109  0.08235470  1
  Te  Te76  1  0.06762103  0.40851737  0.43062806  1
  Te  Te77  1  0.06832558  0.40299740  0.73881329  1
  Te  Te78  1  0.10379785  0.79190194  0.05726226  1
  Te  Te79  1  0.08541413  0.72236345  0.42642725  1
  Te  Te80  1  0.04863222  0.74009387  0.77074664  1
  Te  Te81  1  0.39007416  0.07118314  0.04668696  1
  Te  Te82  1  0.41741333  0.07958293  0.41091448  1
  Te  Te83  1  0.43343057  0.07942621  0.78438917  1
  Te  Te84  1  0.40049110  0.42003682  0.06997412  1
  Te  Te85  1  0.39934797  0.42500077  0.41187433  1
  Te  Te86  1  0.38041559  0.45382158  0.71263522  1
  Te  Te87  1  0.41092716  0.79661580  0.08625444  1
  Te  Te88  1  0.41825573  0.73931664  0.41570629  1
  Te  Te89  1  0.40030043  0.76995334  0.74289008  1
  Te  Te90  1  0.75108843  0.07069142  0.08270011  1
  Te  Te91  1  0.74992950  0.07053645  0.42623395  1
  Te  Te92  1  0.76780499  0.10609248  0.75441863  1
  Te  Te93  1  0.74762068  0.42742161  0.07389081  1
  Te  Te94  1  0.73162472  0.40593921  0.45004218  1
  Te  Te95  1  0.75348048  0.44039406  0.74841699  1
  Te  Te96  1  0.75191104  0.77046512  0.08202092  1
  Te  Te97  1  0.78197228  0.74941027  0.43638311  1
  Te  Te98  1  0.73777354  0.74940519  0.75834191  1
  Te  Te99  1  0.08049836  0.21158554  0.26250428  1
  Te  Te100  1  0.09882860  0.27433775  0.55945854  1
  Te  Te101  1  0.09147908  0.25775113  0.91572173  1
  Te  Te102  1  0.09618574  0.58976407  0.24802585  1
  Te  Te103  1  0.06942908  0.55874364  0.56678620  1
  Te  Te104  1  0.07756674  0.57739819  0.92659884  1
  Te  Te105  1  0.08576767  0.93917095  0.26154244  1
  Te  Te106  1  0.08737290  0.90781128  0.59306066  1
  Te  Te107  1  0.10055244  0.87011195  0.83943526  1
  Te  Te108  1  0.42282726  0.25089348  0.24716929  1
  Te  Te109  1  0.41863280  0.26243390  0.57748977  1
  Te  Te110  1  0.44168114  0.26162141  0.91815715  1
  Te  Te111  1  0.42559864  0.60648835  0.23220124  1
  Te  Te112  1  0.41790528  0.58156764  0.59179030  1
  Te  Te113  1  0.41249203  0.59118547  0.88701556  1
  Te  Te114  1  0.43960165  0.93675887  0.22319537  1
  Te  Te115  1  0.42627448  0.91385271  0.58140492  1
  Te  Te116  1  0.44159085  0.92462082  0.94957760  1
  Te  Te117  1  0.74065908  0.26224168  0.26728664  1
  Te  Te118  1  0.76920117  0.24886398  0.59255038  1
  Te  Te119  1  0.76060970  0.25164265  0.92017135  1
  Te  Te120  1  0.75969026  0.59511603  0.24437542  1
  Te  Te121  1  0.68308198  0.57757220  0.61582962  1
  Te  Te122  1  0.73518985  0.58105732  0.89811960  1
  Te  Te123  1  0.74398502  0.91427476  0.25381549  1
  Te  Te124  1  0.75041846  0.91717394  0.58978893  1
  Te  Te125  1  0.76670065  0.89041521  0.94432243  1
  Te  Te126  1  0.22732462  0.26081111  0.09886122  1
  Te  Te127  1  0.23340093  0.26949469  0.43570181  1
  Te  Te128  1  0.27232750  0.24442880  0.73877435  1
  Te  Te129  1  0.25847721  0.58690521  0.08316520  1
  Te  Te130  1  0.26230170  0.57047692  0.44478819  1
  Te  Te131  1  0.21296280  0.60215475  0.76862997  1
  Te  Te132  1  0.27843258  0.87043978  0.08695580  1
  Te  Te133  1  0.24883773  0.90986821  0.42494705  1
  Te  Te134  1  0.25303400  0.93675813  0.77780725  1
  Te  Te135  1  0.59448305  0.25163934  0.09201519  1
  Te  Te136  1  0.56385048  0.23249703  0.39967846  1
  Te  Te137  1  0.57723745  0.25122642  0.74135166  1
  Te  Te138  1  0.56522806  0.59192072  0.07597660  1
  Te  Te139  1  0.59964573  0.58440874  0.41513003  1
  Te  Te140  1  0.57036163  0.55503513  0.70860151  1
  Te  Te141  1  0.57100462  0.92500036  0.03654922  1
  Te  Te142  1  0.59507329  0.88905474  0.42217378  1
  Te  Te143  1  0.56601175  0.90983806  0.75093804  1
  Te  Te144  1  0.93989529  0.24969850  0.08713596  1
  Te  Te145  1  0.90331263  0.25970249  0.42033452  1
  Te  Te146  1  0.93127442  0.25699386  0.72038987  1
  Te  Te147  1  0.91060654  0.60419927  0.09186621  1
  Te  Te148  1  0.90056544  0.56331436  0.43157807  1
  Te  Te149  1  0.89793018  0.57871122  0.72467523  1
  Te  Te150  1  0.94247164  0.91604832  0.07372844  1
  Te  Te151  1  0.91825523  0.88994180  0.39750498  1
  Te  Te152  1  0.90351007  0.91917045  0.75815227  1
  Te  Te153  1  0.25465022  0.09046494  0.24792125  1
  Te  Te154  1  0.24674141  0.07349221  0.58635384  1
  Te  Te155  1  0.25174292  0.06449512  0.94089093  1
  Te  Te156  1  0.21977113  0.41237249  0.24641066  1
  Te  Te157  1  0.26807017  0.40328691  0.62654082  1
  Te  Te158  1  0.26635070  0.42739805  0.90163915  1
  Te  Te159  1  0.25590194  0.76082985  0.24677772  1
  Te  Te160  1  0.22100702  0.74095350  0.59219944  1
  Te  Te161  1  0.24963239  0.73987198  0.91905919  1
  Te  Te162  1  0.55726576  0.06732294  0.22669182  1
  Te  Te163  1  0.59911367  0.08509755  0.59116818  1
  Te  Te164  1  0.60632882  0.05695795  0.93032715  1
  Te  Te165  1  0.59010572  0.41978758  0.26325679  1
  Te  Te166  1  0.57644444  0.43268353  0.58488187  1
  Te  Te167  1  0.58597106  0.42438216  0.87867672  1
  Te  Te168  1  0.58762959  0.74637521  0.23858222  1
  Te  Te169  1  0.64582958  0.72549315  0.58156369  1
  Te  Te170  1  0.56439568  0.74171261  0.91603713  1
  Te  Te171  1  0.92428350  0.10035567  0.22614336  1
  Te  Te172  1  0.93146376  0.07589813  0.59778077  1
  Te  Te173  1  0.93517975  0.06708424  0.92262020  1
  Te  Te174  1  0.90679121  0.42308669  0.25073948  1
  Te  Te175  1  0.93487270  0.46950075  0.60218920  1
  Te  Te176  1  0.92493209  0.40848950  0.92106491  1
  Te  Te177  1  0.90929848  0.74727775  0.25129854  1
  Te  Te178  1  0.88138253  0.71889372  0.55408493  1
  Te  Te179  1  0.90314341  0.77083724  0.93356116  1
