# generated using pymatgen
data_In2Te3
_symmetry_space_group_name_H-M   'P 1'
_cell_length_a   18.74813847
_cell_length_b   18.74823847
_cell_length_c   18.74895029
_cell_angle_alpha   90.01739444
_cell_angle_beta   89.98660694
_cell_angle_gamma   89.93214403
_symmetry_Int_Tables_number   1
_chemical_formula_structural   In2Te3
_chemical_formula_sum   'In72 Te108'
_cell_volume   6590.14912776
_cell_formula_units_Z   36
loop_
 _symmetry_equiv_pos_site_id
 _symmetry_equiv_pos_as_xyz
  1  'x, y, z'
loop_
 _atom_site_type_symbol
 _atom_site_label
 _atom_site_symmetry_multiplicity
 _atom_site_fract_x
 _atom_site_fract_y
 _atom_site_fract_z
 _atom_site_occupancy
  In  In0  1  0.32672691  0.00733214  0.67355255  1
  In  In1  1  0.83514356  0.65464687  0.51743211  1
  In  In2  1  0.37838206  0.28512785  0.32525420  1
  In  In3  1  0.50145900  0.65595087  0.49628247  1
  In  In4  1  0.66040364  0.86641697  0.48746551  1
  In  In5  1  0.32183466  0.67874686  0.64117213  1
  In  In6  1  0.65340488  0.31100638  -0.00444482  1
  In  In7  1  0.81062085  0.16167458  0.00927174  1
  In  In8  1  0.35495330  0.15226374  0.48954760  1
  In  In9  1  -0.00074658  0.67955904  -0.00549223  1
  In  In10  1  0.17377061  0.84795140  -0.01532387  1
  In  In11  1  0.17712058  0.49870158  0.67302471  1
  In  In12  1  0.49943879  0.86742596  0.67725072  1
  In  In13  1  0.64159203  0.84125986  0.81729547  1
  In  In14  1  0.31129613  0.66256258  0.32809395  1
  In  In15  1  0.18543593  0.00496629  0.17150301  1
  In  In16  1  0.83971191  0.85243080  0.66003957  1
  In  In17  1  0.33565302  0.50251327  0.17337240  1
  In  In18  1  0.16456075  0.14568113  0.33389037  1
  In  In19  1  0.03237240  0.70506530  0.70204638  1
  In  In20  1  0.34017880  0.31221917  0.66318786  1
  In  In21  1  0.81837556  0.66524096  0.18699177  1
  In  In22  1  0.51181808  0.45788792  0.66026896  1
  In  In23  1  0.66788273  0.66106325  -0.02822521  1
  In  In24  1  0.00855809  -0.01518949  0.00438493  1
  In  In25  1  0.65441346  0.16941015  0.80957616  1
  In  In26  1  0.34199217  0.51366846  0.80968215  1
  In  In27  1  0.16109418  0.50976712  0.34716197  1
  In  In28  1  0.50435409  0.66591480  0.83247741  1
  In  In29  1  0.50706370  0.30692993  0.51452632  1
  In  In30  1  0.83507864  0.32046362  0.16033899  1
  In  In31  1  0.33986590  0.31465739  -0.00908537  1
  In  In32  1  0.49212289  0.00947350  0.17488023  1
  In  In33  1  0.84426855  0.65545402  0.85418008  1
  In  In34  1  0.02441685  0.86671732  0.51543222  1
  In  In35  1  -0.02441853  0.30721320  0.33593362  1
  In  In36  1  -0.01406562  0.48055567  0.53626377  1
  In  In37  1  0.33753972  0.15593662  0.82988664  1
  In  In38  1  0.50732062  0.47912918  0.33283920  1
  In  In39  1  0.82166031  0.46613262  0.69504821  1
  In  In40  1  0.64553412  0.48894822  0.17754124  1
  In  In41  1  0.00343091  0.14678544  0.16387761  1
  In  In42  1  0.64621861  0.65811949  0.34519340  1
  In  In43  1  0.15295341  0.31293412  0.52006941  1
  In  In44  1  -0.01309006  0.50103062  0.84219314  1
  In  In45  1  0.33674625  0.85569243  0.85105429  1
  In  In46  1  0.17630498  0.32324694  0.83178318  1
  In  In47  1  -0.02022691  0.31023143  0.65633323  1
  In  In48  1  0.82228189  0.16318424  0.38201783  1
  In  In49  1  0.32467062  0.85982801  0.50348025  1
  In  In50  1  0.67504033  0.86212023  0.17098173  1
  In  In51  1  0.34324930  0.02032796  -0.01846707  1
  In  In52  1  0.85223355  0.84275628  0.00119392  1
  In  In53  1  0.50139953  0.85180563  0.32932060  1
  In  In54  1  0.00944988  0.47534652  0.16730498  1
  In  In55  1  0.17948788  0.33810508  0.13545037  1
  In  In56  1  0.15965351  0.51281547  0.01268954  1
  In  In57  1  0.83532425  0.85184950  0.33478478  1
  In  In58  1  0.46812238  0.70500323  0.13125179  1
  In  In59  1  0.50370708  0.47865305  -0.00485313  1
  In  In60  1  0.64959352  0.02015335  -0.00883119  1
  In  In61  1  0.85418842  0.48314379  -0.01995818  1
  In  In62  1  0.65563806  0.15610298  0.15973890  1
  In  In63  1  0.18566637  0.85917866  0.33388175  1
  In  In64  1  -0.00518692  0.00706670  0.35395642  1
  In  In65  1  0.18699162  0.67261490  0.49855517  1
  In  In66  1  0.67670761  0.31195970  0.38422616  1
  In  In67  1  0.66881412  0.66590103  0.66598078  1
  In  In68  1  0.83359142  0.00381670  0.81539937  1
  In  In69  1  0.00938830  0.16728363  0.81760737  1
  In  In70  1  -0.03202893  0.68316314  0.34859770  1
  In  In71  1  0.16626679  0.68962349  0.16396568  1
  Te  Te72  1  0.10565170  0.08500538  0.06821021  1
  Te  Te73  1  0.07928194  0.09182397  0.44226026  1
  Te  Te74  1  0.06228099  0.06238334  0.72281715  1
  Te  Te75  1  0.06560793  0.39790543  0.04904758  1
  Te  Te76  1  0.07114729  0.40909210  0.42192159  1
  Te  Te77  1  0.07436082  0.41039576  0.74229695  1
  Te  Te78  1  0.07433465  0.77961505  0.08267195  1
  Te  Te79  1  0.08958958  0.75527871  0.40574525  1
  Te  Te80  1  0.11259374  0.80193239  0.77742282  1
  Te  Te81  1  0.41228988  0.10727559  0.08861260  1
  Te  Te82  1  0.45143947  0.07736378  0.40465652  1
  Te  Te83  1  0.43546933  0.08093367  0.74424804  1
  Te  Te84  1  0.41967564  0.40239774  0.09695543  1
  Te  Te85  1  0.41710839  0.39879556  0.42432455  1
  Te  Te86  1  0.42216518  0.39164552  0.76633378  1
  Te  Te87  1  0.37639210  0.78060654  0.04573069  1
  Te  Te88  1  0.40766723  0.75184033  0.42035404  1
  Te  Te89  1  0.41629575  0.75474081  0.74004582  1
  Te  Te90  1  0.75434503  0.05419251  0.10024115  1
  Te  Te91  1  0.73194255  0.07471207  0.46395674  1
  Te  Te92  1  0.75612621  0.09549077  0.72733150  1
  Te  Te93  1  0.74621268  0.41976769  0.08116528  1
  Te  Te94  1  0.78307337  0.39945809  0.43277837  1
  Te  Te95  1  0.71249823  0.37725829  0.74287162  1
  Te  Te96  1  0.74709677  0.74655328  0.07604558  1
  Te  Te97  1  0.74742732  0.74502133  0.42211669  1
  Te  Te98  1  0.75792373  0.75016127  0.75837980  1
  Te  Te99  1  0.08798497  0.25494001  0.24355855  1
  Te  Te100  1  0.08272148  0.21378807  0.60522959  1
  Te  Te101  1  0.09759688  0.23325381  0.91803147  1
  Te  Te102  1  0.07711565  0.59265453  0.24661702  1
  Te  Te103  1  0.08664101  0.59055652  0.58311697  1
  Te  Te104  1  0.09075344  0.59638220  0.90392596  1
  Te  Te105  1  0.07807845  0.92763006  0.24997741  1
  Te  Te106  1  0.09140897  0.96484876  0.60234104  1
  Te  Te107  1  0.08144069  0.91953112  0.88908059  1
  Te  Te108  1  0.42869428  0.20942306  0.20972668  1
  Te  Te109  1  0.43660285  0.20617940  0.61007772  1
  Te  Te110  1  0.43572177  0.24339465  0.90311240  1
  Te  Te111  1  0.43156712  0.59020699  0.25492721  1
  Te  Te112  1  0.42295589  0.57206322  0.59739426  1
  Te  Te113  1  0.41509104  0.58281511  0.92519362  1
  Te  Te114  1  0.39680432  0.92747370  0.25672076  1
  Te  Te115  1  0.43175434  0.94740731  0.56874066  1
  Te  Te116  1  0.44392424  0.94237415  0.90303280  1
  Te  Te117  1  0.75185537  0.23911598  0.25747309  1
  Te  Te118  1  0.74687320  0.21461808  0.56500345  1
  Te  Te119  1  0.75657131  0.25134025  0.90161054  1
  Te  Te120  1  0.74234239  0.56317991  0.27117327  1
  Te  Te121  1  0.74546290  0.55766125  0.59134909  1
  Te  Te122  1  0.74240114  0.55034497  0.89591382  1
  Te  Te123  1  0.73116732  0.94183640  0.28128596  1
  Te  Te124  1  0.72821255  0.93186050  0.60268601  1
  Te  Te125  1  0.74406970  0.91462743  0.91570592  1
  Te  Te126  1  0.25768575  0.22755581  0.07829856  1
  Te  Te127  1  0.25260440  0.25569645  0.41272685  1
  Te  Te128  1  0.23549381  0.22591681  0.73110136  1
  Te  Te129  1  0.26264807  0.60133888  0.08291865  1
  Te  Te130  1  0.27426692  0.56221895  0.43677928  1
  Te  Te131  1  0.23928684  0.61244237  0.75382779  1
  Te  Te132  1  0.27327507  0.91751734  0.08012422  1
  Te  Te133  1  0.24053272  0.95823880  0.42962740  1
  Te  Te134  1  0.23883087  0.91390408  0.75344562  1
  Te  Te135  1  0.55769094  0.24089268  0.08514433  1
  Te  Te136  1  0.56515426  0.20651696  0.41117450  1
  Te  Te137  1  0.59685463  0.27716615  0.72089336  1
  Te  Te138  1  0.58051822  0.59074940  0.08276162  1
  Te  Te139  1  0.59426514  0.54805783  0.43883208  1
  Te  Te140  1  0.58304565  0.56807789  0.74658283  1
  Te  Te141  1  0.57027384  0.91834478  0.07651478  1
  Te  Te142  1  0.55540691  0.95678564  0.42487891  1
  Te  Te143  1  0.59638674  0.96040549  0.74102630  1
  Te  Te144  1  0.92785704  0.24229078  0.06959198  1
  Te  Te145  1  0.94512942  0.22111047  0.45438131  1
  Te  Te146  1  0.89460460  0.23869592  0.75396442  1
  Te  Te147  1  0.91272483  0.58567623  0.08566353  1
  Te  Te148  1  0.91428053  0.56387744  0.42234240  1
  Te  Te149  1  0.91831603  0.58928880  0.73236055  1
  Te  Te150  1  0.90956612  0.93253130  0.10290681  1
  Te  Te151  1  0.90098916  0.92956244  0.44936419  1
  Te  Te152  1  0.93896278  0.94952131  0.71903146  1
  Te  Te153  1  0.27620969  0.08141633  0.26114420  1
  Te  Te154  1  0.24879895  0.07836539  0.56622958  1
  Te  Te155  1  0.23268148  0.08019170  0.90223565  1
  Te  Te156  1  0.24251148  0.41497373  0.25602492  1
  Te  Te157  1  0.25757634  0.41057908  0.57876186  1
  Te  Te158  1  0.25296854  0.42975749  0.91521120  1
  Te  Te159  1  0.27040192  0.77571382  0.23610102  1
  Te  Te160  1  0.22397297  0.78635095  0.59331681  1
  Te  Te161  1  0.27124889  0.74415372  0.93058743  1
  Te  Te162  1  0.58084692  0.08646168  0.26970260  1
  Te  Te163  1  0.61539971  0.14132731  0.54827150  1
  Te  Te164  1  0.56318203  0.11548703  0.91714519  1
  Te  Te165  1  0.58926285  0.37513090  0.26025970  1
  Te  Te166  1  0.61919012  0.38078216  0.58720757  1
  Te  Te167  1  0.59454060  0.41079230  0.90198935  1
  Te  Te168  1  0.58434251  0.75050802  0.23984521  1
  Te  Te169  1  0.58011861  0.75889665  0.58091068  1
  Te  Te170  1  0.56572266  0.76772447  0.92856790  1
  Te  Te171  1  0.90456824  0.09252806  0.26484731  1
  Te  Te172  1  0.86836616  0.12044718  0.55097160  1
  Te  Te173  1  0.91287019  0.07909125  0.92437239  1
  Te  Te174  1  0.90201511  0.41830721  0.25893714  1
  Te  Te175  1  0.86910755  0.38372803  0.56422179  1
  Te  Te176  1  0.91229534  0.38197165  0.88926468  1
  Te  Te177  1  0.91938407  0.77102449  0.23381989  1
  Te  Te178  1  0.93524182  0.75186626  0.58090621  1
  Te  Te179  1  0.93327003  0.77416687  0.89136220  1
