# generated using pymatgen
data_In2Te3
_symmetry_space_group_name_H-M   'P 1'
_cell_length_a   18.89513659
_cell_length_b   18.89533593
_cell_length_c   18.89230563
_cell_angle_alpha   90.18543220
_cell_angle_beta   89.94947154
_cell_angle_gamma   90.02554409
_symmetry_Int_Tables_number   1
_chemical_formula_structural   In2Te3
_chemical_formula_sum   'In72 Te108'
_cell_volume   6745.08038700
_cell_formula_units_Z   36
loop_
 _symmetry_equiv_pos_site_id
 _symmetry_equiv_pos_as_xyz
  1  'x, y, z'
loop_
 _atom_site_type_symbol
 _atom_site_label
 _atom_site_symmetry_multiplicity
 _atom_site_fract_x
 _atom_site_fract_y
 _atom_site_fract_z
 _atom_site_occupancy
  In  In0  1  0.78892894  0.82193440  0.33857037  1
  In  In1  1  -0.00455206  0.14869748  0.14946210  1
  In  In2  1  0.51940857  -0.00985601  0.13647785  1
  In  In3  1  0.35157538  0.64176425  0.31096121  1
  In  In4  1  0.64331416  0.54191126  0.80312138  1
  In  In5  1  0.35675441  0.15530917  0.84315411  1
  In  In6  1  0.01221597  0.34384012  0.66153139  1
  In  In7  1  0.81074113  0.15980285  0.32097617  1
  In  In8  1  0.83114119  0.34906899  0.84329857  1
  In  In9  1  0.81190857  0.67950911  0.83567368  1
  In  In10  1  0.33699203  0.66075927  -0.00372816  1
  In  In11  1  0.66383530  0.50983500  0.16025127  1
  In  In12  1  0.50931871  0.50001639  0.34209432  1
  In  In13  1  0.11890203  0.84830242  -0.05728755  1
  In  In14  1  0.17153719  0.65995878  0.48676477  1
  In  In15  1  0.18827882  0.44752103  0.33035814  1
  In  In16  1  0.16914534  0.66794853  0.13500556  1
  In  In17  1  0.82077720  0.83274378  0.67957343  1
  In  In18  1  0.82286369  -0.01443265  0.87570690  1
  In  In19  1  0.84419525  0.02405329  0.49283983  1
  In  In20  1  0.66955090  0.34940817  0.66335575  1
  In  In21  1  0.34251417  0.34265587  0.67231772  1
  In  In22  1  0.18514362  0.52040008  0.65486051  1
  In  In23  1  0.17660472  0.16198278  0.00485701  1
  In  In24  1  0.01411589  0.51319660  0.16140843  1
  In  In25  1  0.64815545  0.13690647  0.85579168  1
  In  In26  1  0.51115604  0.33337773  0.15929315  1
  In  In27  1  0.51535834  0.81731056  -0.01686459  1
  In  In28  1  0.18931949  0.17873833  0.32790844  1
  In  In29  1  -0.02496241  0.86334374  0.16006681  1
  In  In30  1  0.52498937  0.80559479  0.30608110  1
  In  In31  1  -0.01357068  0.17505353  0.53564443  1
  In  In32  1  0.50480360  0.34995149  0.50346689  1
  In  In33  1  0.34133327  0.19161515  0.49807462  1
  In  In34  1  0.34736801  0.85485381  0.15018637  1
  In  In35  1  0.15393323  -0.01827947  0.51298622  1
  In  In36  1  0.84967926  0.30548115  0.17747052  1
  In  In37  1  0.14801636  0.14663862  0.67424281  1
  In  In38  1  0.35097441  0.01222111  0.68471196  1
  In  In39  1  0.64811573  -0.03954772  0.67244262  1
  In  In40  1  0.34120278  0.83554794  0.51047612  1
  In  In41  1  0.82785433  0.50836755  -0.01342609  1
  In  In42  1  0.51450332  0.18820532  0.34528839  1
  In  In43  1  0.81532892  0.49252479  0.35134691  1
  In  In44  1  0.13748084  0.81653313  0.72005279  1
  In  In45  1  0.84211226  0.16447974  0.70459570  1
  In  In46  1  -0.00015681  0.83676774  0.52983245  1
  In  In47  1  0.01164850  0.33611004  0.34776006  1
  In  In48  1  0.17697644  0.48467680  0.00650392  1
  In  In49  1  0.34008779  0.51219458  0.82429367  1
  In  In50  1  0.66377329  0.79946921  0.50646412  1
  In  In51  1  0.84003168  0.34932186  0.51345950  1
  In  In52  1  0.34966279  0.18684829  0.17589136  1
  In  In53  1  -0.01411526  0.65830888  -0.01739907  1
  In  In54  1  0.50007929  0.65291122  0.50820677  1
  In  In55  1  0.66545727  0.31729253  -0.00224993  1
  In  In56  1  0.51925911  0.49059762  0.00745920  1
  In  In57  1  0.49106838  0.32748783  0.83326129  1
  In  In58  1  0.18357934  0.82424984  0.34764865  1
  In  In59  1  0.00731247  0.00868401  0.33619996  1
  In  In60  1  0.31779616  -0.00731319  -0.00157642  1
  In  In61  1  0.33216938  0.67819925  0.65385577  1
  In  In62  1  0.18167301  0.02663105  0.16228825  1
  In  In63  1  0.65597423  -0.00227634  0.33161766  1
  In  In64  1  0.50242227  0.00431654  0.52259540  1
  In  In65  1  -0.02965509  0.65100827  0.32457067  1
  In  In66  1  0.79469534  -0.00699029  0.10167137  1
  In  In67  1  0.34117918  0.82130628  0.82966257  1
  In  In68  1  0.17081542  0.31225300  0.85186868  1
  In  In69  1  -0.00800121  0.50917096  0.82784422  1
  In  In70  1  0.80744478  0.55472056  0.64246018  1
  In  In71  1  0.76052432  0.71340196  0.15053400  1
  Te  Te72  1  0.07563106  0.05511043  0.06092146  1
  Te  Te73  1  0.08558968  0.09397351  0.43405021  1
  Te  Te74  1  0.06400908  0.09237357  0.78160980  1
  Te  Te75  1  0.08436398  0.40403998  0.09108513  1
  Te  Te76  1  0.08045453  0.43663402  0.42959623  1
  Te  Te77  1  0.10186506  0.42126489  0.75973425  1
  Te  Te78  1  0.06089927  0.75832952  0.07960707  1
  Te  Te79  1  0.06438027  0.75342767  0.40891233  1
  Te  Te80  1  0.02865067  0.73768294  0.77805687  1
  Te  Te81  1  0.40870665  0.08010802  0.08141836  1
  Te  Te82  1  0.42619849  0.08920077  0.42290430  1
  Te  Te83  1  0.45497753  0.08469750  0.75927065  1
  Te  Te84  1  0.41958231  0.40276008  0.06803383  1
  Te  Te85  1  0.41098567  0.41060547  0.40654312  1
  Te  Te86  1  0.44151481  0.43670538  0.73939286  1
  Te  Te87  1  0.42827129  0.74408720  0.08703222  1
  Te  Te88  1  0.41481562  0.74885581  0.40840834  1
  Te  Te89  1  0.43026764  0.72556430  0.75657653  1
  Te  Te90  1  0.69519096  0.09372729  0.06108540  1
  Te  Te91  1  0.72534170  0.09362314  0.42899666  1
  Te  Te92  1  0.74356920  0.05964731  0.75566305  1
  Te  Te93  1  0.75772242  0.41107183  0.08138602  1
  Te  Te94  1  0.73611825  0.38599154  0.41603256  1
  Te  Te95  1  0.76424046  0.45125273  0.75340604  1
  Te  Te96  1  0.73660644  0.80664089  0.03733562  1
  Te  Te97  1  0.77055584  0.71755648  0.44195692  1
  Te  Te98  1  0.71896509  0.73935323  0.73581507  1
  Te  Te99  1  0.07349986  0.23578597  0.24986725  1
  Te  Te100  1  0.10571233  0.25858482  0.57782789  1
  Te  Te101  1  0.07518279  0.24743346  0.94052718  1
  Te  Te102  1  0.09906213  0.60027081  0.25288096  1
  Te  Te103  1  0.08377799  0.60105381  0.58727544  1
  Te  Te104  1  0.09678366  0.57972860  0.91671262  1
  Te  Te105  1  0.09753979  0.91802699  0.25294004  1
  Te  Te106  1  0.07268014  0.92618645  0.62750874  1
  Te  Te107  1  0.05120036  0.95643164  0.86472707  1
  Te  Te108  1  0.41656763  0.28057709  0.27439023  1
  Te  Te109  1  0.43667324  0.24687360  0.60082871  1
  Te  Te110  1  0.42284145  0.24804230  0.93608234  1
  Te  Te111  1  0.45395161  0.57862551  0.22913338  1
  Te  Te112  1  0.38582517  0.57717255  0.56123211  1
  Te  Te113  1  0.43902542  0.58573121  0.91333905  1
  Te  Te114  1  0.43864409  0.91948635  0.25280122  1
  Te  Te115  1  0.43116906  0.90268280  0.61201150  1
  Te  Te116  1  0.42116420  0.91872673  0.91636679  1
  Te  Te117  1  0.72972290  0.24313312  0.23307386  1
  Te  Te118  1  0.76646444  0.24712183  0.60150931  1
  Te  Te119  1  0.75939945  0.23355758  0.90955985  1
  Te  Te120  1  0.76637494  0.58649820  0.24225975  1
  Te  Te121  1  0.70755178  0.57754730  0.53608487  1
  Te  Te122  1  0.72239862  0.59780477  0.92794399  1
  Te  Te123  1  0.75536194  0.93078838  0.23954667  1
  Te  Te124  1  0.75348333  0.92009983  0.56145316  1
  Te  Te125  1  0.70865833  0.89001307  0.90534693  1
  Te  Te126  1  0.23976014  0.25943416  0.10476868  1
  Te  Te127  1  0.25003729  0.27648144  0.41865098  1
  Te  Te128  1  0.25699877  0.23716693  0.74665428  1
  Te  Te129  1  0.27270168  0.56475715  0.09623044  1
  Te  Te130  1  0.25903159  0.56694898  0.40317919  1
  Te  Te131  1  0.24368955  0.61079221  0.76210200  1
  Te  Te132  1  0.22391324  0.90077871  0.07388344  1
  Te  Te133  1  0.26477806  0.93116587  0.41866210  1
  Te  Te134  1  0.25182480  0.91659336  0.75170810  1
  Te  Te135  1  0.58019469  0.22767410  0.07877228  1
  Te  Te136  1  0.60504491  0.26362150  0.43444673  1
  Te  Te137  1  0.60279665  0.25294546  0.76053007  1
  Te  Te138  1  0.59857096  0.60239510  0.06585897  1
  Te  Te139  1  0.60389486  0.59071319  0.41862388  1
  Te  Te140  1  0.55935303  0.62111627  0.71291605  1
  Te  Te141  1  0.60251324  0.87237699  0.09513814  1
  Te  Te142  1  0.57759405  0.90228505  0.42327710  1
  Te  Te143  1  0.59020177  0.90201939  0.79499156  1
  Te  Te144  1  0.89932421  0.22255951  0.06742308  1
  Te  Te145  1  0.91181767  0.23614700  0.41720297  1
  Te  Te146  1  0.93655451  0.26623627  0.76707499  1
  Te  Te147  1  0.90400654  0.59265439  0.09133738  1
  Te  Te148  1  0.92460056  0.55699150  0.42667278  1
  Te  Te149  1  0.92093748  0.61308861  0.74497587  1
  Te  Te150  1  0.90849250  0.92259233  0.04210646  1
  Te  Te151  1  0.91883170  0.91397572  0.41602351  1
  Te  Te152  1  0.90864045  0.89984745  0.78042235  1
  Te  Te153  1  0.28145378  0.07674420  0.26247439  1
  Te  Te154  1  0.25900999  0.07983276  0.58193954  1
  Te  Te155  1  0.24058967  0.07379073  0.89798707  1
  Te  Te156  1  0.21897642  0.38067155  0.20471475  1
  Te  Te157  1  0.26103256  0.42051539  0.57911189  1
  Te  Te158  1  0.27274467  0.40894548  0.91399616  1
  Te  Te159  1  0.26117355  0.75182977  0.23797028  1
  Te  Te160  1  0.22402835  0.77171235  0.58480236  1
  Te  Te161  1  0.24191405  0.75352184  0.92350525  1
  Te  Te162  1  0.57259475  0.08743574  0.24355752  1
  Te  Te163  1  0.59234876  0.08114398  0.60821931  1
  Te  Te164  1  0.59624532  0.04451344  0.95936123  1
  Te  Te165  1  0.59971742  0.41150297  0.25456407  1
  Te  Te166  1  0.59072659  0.44341982  0.58360816  1
  Te  Te167  1  0.60703319  0.41797967  0.89712212  1
  Te  Te168  1  0.65080461  0.74819994  0.25624694  1
  Te  Te169  1  0.56879956  0.74286932  0.60783762  1
  Te  Te170  1  0.59973860  0.76565246  0.86985937  1
  Te  Te171  1  0.90465918  0.06693721  0.24118599  1
  Te  Te172  1  0.92279125  0.06545809  0.61715737  1
  Te  Te173  1  0.94183540  0.07710210  0.88100972  1
  Te  Te174  1  0.92298091  0.41804441  0.25128037  1
  Te  Te175  1  0.91266595  0.44340421  0.60621016  1
  Te  Te176  1  0.93577007  0.41529173  0.93386976  1
  Te  Te177  1  0.89798257  0.76044383  0.24227779  1
  Te  Te178  1  0.89677140  0.74768300  0.58200023  1
  Te  Te179  1  0.91925077  0.76512790  0.90026944  1
