# generated using pymatgen
data_In2Te3
_symmetry_space_group_name_H-M   'P 1'
_cell_length_a   18.96229903
_cell_length_b   18.97591981
_cell_length_c   18.97542824
_cell_angle_alpha   89.88585767
_cell_angle_beta   90.09968798
_cell_angle_gamma   90.01002419
_symmetry_Int_Tables_number   1
_chemical_formula_structural   In2Te3
_chemical_formula_sum   'In72 Te108'
_cell_volume   6827.84868040
_cell_formula_units_Z   36
loop_
 _symmetry_equiv_pos_site_id
 _symmetry_equiv_pos_as_xyz
  1  'x, y, z'
loop_
 _atom_site_type_symbol
 _atom_site_label
 _atom_site_symmetry_multiplicity
 _atom_site_fract_x
 _atom_site_fract_y
 _atom_site_fract_z
 _atom_site_occupancy
  In  In0  1  0.14028807  0.67843139  0.14817587  1
  In  In1  1  0.69410236  0.15048476  0.14940959  1
  In  In2  1  0.62762767  0.16382065  0.50243867  1
  In  In3  1  0.16432416  0.00903994  0.17039743  1
  In  In4  1  0.13672386  0.83489103  0.33030480  1
  In  In5  1  -0.02809271  0.69293728  -0.01114515  1
  In  In6  1  0.49821626  0.83546610  0.00945038  1
  In  In7  1  0.00085272  0.00962707  0.32572995  1
  In  In8  1  0.85436762  0.49668697  0.67338232  1
  In  In9  1  0.82247124  0.50705526  0.01607212  1
  In  In10  1  0.85036987  0.47733883  0.33062125  1
  In  In11  1  0.83871730  0.65707086  0.53839851  1
  In  In12  1  0.52214621  0.34246302  0.14568806  1
  In  In13  1  0.51991615  0.82809176  0.32956542  1
  In  In14  1  0.01353611  0.51022048  0.82037910  1
  In  In15  1  0.34284890  0.64818629  0.30562517  1
  In  In16  1  0.00503421  0.69342342  0.67616703  1
  In  In17  1  0.67222448  0.85979896  0.50040060  1
  In  In18  1  0.47532243  0.31498244  0.46883457  1
  In  In19  1  0.32624673  0.64998263  0.69805193  1
  In  In20  1  0.66129220  0.51419619  0.84646395  1
  In  In21  1  0.01526360  0.32493759  -0.00634305  1
  In  In22  1  0.31119827  0.01305835  0.69359415  1
  In  In23  1  0.31717725  0.02133443  -0.00082795  1
  In  In24  1  0.15772709  -0.00584026  0.84918740  1
  In  In25  1  0.48607538  0.31740080  0.85184533  1
  In  In26  1  0.84591692  0.19260544  0.30631304  1
  In  In27  1  0.48492402  0.52167370  -0.02005858  1
  In  In28  1  0.70200698  -0.02784263  0.71600193  1
  In  In29  1  0.66036498  0.49900105  0.15337494  1
  In  In30  1  -0.00221668  0.50307878  0.49876550  1
  In  In31  1  0.67911729  0.69149346  0.70635543  1
  In  In32  1  0.83114641  0.18869880  0.67980357  1
  In  In33  1  0.33290673  0.85382250  0.51421976  1
  In  In34  1  -0.00469713  -0.02412452  0.68059359  1
  In  In35  1  0.34751445  0.49253480  0.16191341  1
  In  In36  1  0.34177795  0.82686779  0.15533046  1
  In  In37  1  0.68226287  0.70042366  -0.01549323  1
  In  In38  1  0.16505129  0.48194764  0.01076703  1
  In  In39  1  0.30712255  0.30549758  0.30551089  1
  In  In40  1  0.50068551  0.67367681  0.50323519  1
  In  In41  1  0.18888505  0.52432263  0.31393745  1
  In  In42  1  0.65626488  0.66303809  0.33159684  1
  In  In43  1  -0.02847551  -0.02144358  -0.03118114  1
  In  In44  1  0.01328390  0.16872028  0.14889971  1
  In  In45  1  0.16473397  0.16667120  0.66485663  1
  In  In46  1  0.66771487  0.84072559  0.17569002  1
  In  In47  1  0.69417117  0.51277213  0.47523169  1
  In  In48  1  0.01507431  0.33363615  0.32532360  1
  In  In49  1  0.49622402  0.14607254  -0.00334945  1
  In  In50  1  0.52703224  0.48759721  0.68399406  1
  In  In51  1  0.82290142  0.01439426  0.49885831  1
  In  In52  1  0.49954154  0.15364193  0.65327172  1
  In  In53  1  0.84449881  0.31660963  0.84987121  1
  In  In54  1  0.19599122  0.66911304  0.85845494  1
  In  In55  1  0.33963262  -0.00079291  0.32902279  1
  In  In56  1  0.01988229  0.14395601  0.48431711  1
  In  In57  1  0.85239932  0.81085725  0.34190759  1
  In  In58  1  0.65116727  0.00195244  0.33551131  1
  In  In59  1  0.48558926  0.15890708  0.31246359  1
  In  In60  1  0.46831182  0.82007644  0.68136176  1
  In  In61  1  0.48998865  0.00298302  0.83373077  1
  In  In62  1  0.34621275  0.34073769  0.67079337  1
  In  In63  1  0.82764167  0.68069615  0.15201195  1
  In  In64  1  0.65045976  0.16043979  0.83392374  1
  In  In65  1  0.18915672  0.31926678  0.49007186  1
  In  In66  1  0.84266204  0.14054878  -0.00432595  1
  In  In67  1  0.15365683  0.34702503  0.83447899  1
  In  In68  1  0.15616313  0.85290379  0.68241345  1
  In  In69  1  0.15584160  0.68034077  0.50244966  1
  In  In70  1  0.34204697  0.47926525  0.50644126  1
  In  In71  1  0.67879383  0.34689364  0.64677106  1
  Te  Te72  1  0.06896834  0.05915306  0.06378088  1
  Te  Te73  1  0.11140767  0.08889602  0.38352250  1
  Te  Te74  1  0.07490626  0.08104024  0.75486289  1
  Te  Te75  1  0.07136562  0.41034684  0.09986004  1
  Te  Te76  1  0.10684046  0.42969611  0.41233685  1
  Te  Te77  1  0.05480384  0.39834361  0.73511396  1
  Te  Te78  1  0.07705252  0.77543822  0.05452750  1
  Te  Te79  1  0.05832076  0.75832761  0.42792627  1
  Te  Te80  1  0.09346322  0.75651359  0.77946720  1
  Te  Te81  1  0.41121191  0.07862249  0.09738748  1
  Te  Te82  1  0.42015983  0.08309333  0.41990308  1
  Te  Te83  1  0.40651308  0.10870013  0.76453630  1
  Te  Te84  1  0.41645446  0.40965641  0.05649355  1
  Te  Te85  1  0.39190551  0.40902616  0.38417214  1
  Te  Te86  1  0.41843219  0.42936137  0.77075175  1
  Te  Te87  1  0.41402709  0.72735436  0.07202245  1
  Te  Te88  1  0.40965652  0.75680971  0.41431179  1
  Te  Te89  1  0.40601217  0.73805405  0.78675265  1
  Te  Te90  1  0.76791606  0.03800376  0.07674449  1
  Te  Te91  1  0.74179812  0.10212893  0.40532758  1
  Te  Te92  1  0.77448900  0.08991805  0.77927879  1
  Te  Te93  1  0.74930009  0.40301197  0.08654057  1
  Te  Te94  1  0.75627940  0.39896452  0.41151052  1
  Te  Te95  1  0.74986417  0.41472964  0.76340077  1
  Te  Te96  1  0.76914272  0.79491618  0.06903875  1
  Te  Te97  1  0.73920788  0.74146000  0.43157895  1
  Te  Te98  1  0.77536611  0.78068302  0.77489758  1
  Te  Te99  1  0.09729185  0.22566390  0.26199453  1
  Te  Te100  1  0.08001823  0.25256819  0.57176686  1
  Te  Te101  1  0.11371176  0.23756981  0.92791558  1
  Te  Te102  1  0.08071139  0.60673794  0.26183293  1
  Te  Te103  1  0.08019536  0.58669454  0.59474044  1
  Te  Te104  1  0.07840697  0.59145807  0.93084128  1
  Te  Te105  1  0.05808017  0.91019333  0.22665237  1
  Te  Te106  1  0.09591427  0.93881538  0.57840163  1
  Te  Te107  1  0.08706961  0.89157405  0.93026241  1
  Te  Te108  1  0.41722880  0.25332753  0.21518745  1
  Te  Te109  1  0.39954863  0.23667668  0.57372640  1
  Te  Te110  1  0.39781369  0.23619647  0.93358438  1
  Te  Te111  1  0.44583586  0.57620943  0.23367667  1
  Te  Te112  1  0.42673194  0.57753547  0.59686927  1
  Te  Te113  1  0.38754773  0.61107231  0.91133927  1
  Te  Te114  1  0.43108302  0.91367442  0.24225628  1
  Te  Te115  1  0.41663303  0.93994419  0.60528577  1
  Te  Te116  1  0.40248172  0.92023382  0.92282285  1
  Te  Te117  1  0.75041191  0.26495381  0.22319564  1
  Te  Te118  1  0.74747351  0.24182262  0.56528028  1
  Te  Te119  1  0.74095987  0.24001404  0.92619015  1
  Te  Te120  1  0.75767294  0.58532554  0.25091309  1
  Te  Te121  1  0.72280563  0.57535322  0.60856545  1
  Te  Te122  1  0.76827534  0.59994442  0.90880859  1
  Te  Te123  1  0.75636165  0.91120073  0.27575469  1
  Te  Te124  1  0.77595600  0.90829509  0.59879149  1
  Te  Te125  1  0.79274635  0.90184343  0.87215717  1
  Te  Te126  1  0.18775016  0.18831207  0.14295855  1
  Te  Te127  1  0.25726061  0.21675892  0.41196927  1
  Te  Te128  1  0.25078365  0.25605174  0.75075124  1
  Te  Te129  1  0.24443379  0.58274987  0.09308281  1
  Te  Te130  1  0.26533188  0.59486840  0.43764979  1
  Te  Te131  1  0.22459416  0.56567950  0.75845906  1
  Te  Te132  1  0.24398478  0.91360305  0.08077291  1
  Te  Te133  1  0.24352014  0.91438289  0.40975972  1
  Te  Te134  1  0.26045990  0.90184154  0.78084497  1
  Te  Te135  1  0.59587481  0.23706344  0.06657221  1
  Te  Te136  1  0.58521523  0.25176086  0.38732150  1
  Te  Te137  1  0.58068799  0.26075316  0.73544785  1
  Te  Te138  1  0.59493403  0.59424504  0.05616468  1
  Te  Te139  1  0.56728176  0.57086898  0.41420303  1
  Te  Te140  1  0.56983028  0.60673696  0.76939788  1
  Te  Te141  1  0.58388960  0.92437342  0.09034076  1
  Te  Te142  1  0.55830098  0.93314661  0.43472682  1
  Te  Te143  1  0.57447976  0.90191696  0.75824602  1
  Te  Te144  1  0.90956074  0.25224386  0.07514275  1
  Te  Te145  1  0.93018692  0.24929963  0.41759974  1
  Te  Te146  1  0.93611947  0.27008688  0.74491992  1
  Te  Te147  1  0.92820707  0.58602074  0.08896839  1
  Te  Te148  1  0.90492278  0.59275888  0.41926549  1
  Te  Te149  1  0.91094469  0.60523809  0.75934959  1
  Te  Te150  1  0.87567495  0.92646296  0.06849760  1
  Te  Te151  1  0.91705250  0.92562352  0.42089526  1
  Te  Te152  1  0.91745997  0.89387384  0.77883304  1
  Te  Te153  1  0.28124299  0.09150034  0.22138952  1
  Te  Te154  1  0.22445599  0.05862760  0.58309661  1
  Te  Te155  1  0.22450245  0.10653042  0.92008355  1
  Te  Te156  1  0.23456916  0.41102176  0.22398774  1
  Te  Te157  1  0.23866046  0.41941193  0.59668048  1
  Te  Te158  1  0.25400561  0.41081891  0.92096281  1
  Te  Te159  1  0.24647155  0.75337827  0.25404796  1
  Te  Te160  1  0.25498498  0.75590378  0.60061387  1
  Te  Te161  1  0.28917066  0.71788806  0.96284697  1
  Te  Te162  1  0.58239751  0.07856257  0.22724879  1
  Te  Te163  1  0.61901640  0.06793806  0.61855116  1
  Te  Te164  1  0.60038907  0.05217358  0.92486501  1
  Te  Te165  1  0.58022248  0.42555108  0.25146958  1
  Te  Te166  1  0.56437566  0.40229439  0.56349312  1
  Te  Te167  1  0.58254800  0.41262561  0.92307957  1
  Te  Te168  1  0.57356828  0.73141080  0.22554002  1
  Te  Te169  1  0.58847814  0.76006074  0.59186641  1
  Te  Te170  1  0.58392853  0.77381881  0.90543064  1
  Te  Te171  1  0.90914303  0.08157779  0.23010530  1
  Te  Te172  1  0.91780713  0.08703685  0.59378947  1
  Te  Te173  1  0.94523319  0.10487999  0.89735498  1
  Te  Te174  1  0.93822435  0.41464153  0.23116311  1
  Te  Te175  1  0.90060262  0.41444970  0.56406208  1
  Te  Te176  1  0.91911886  0.43058963  0.91733006  1
  Te  Te177  1  0.92770242  0.75152080  0.23304907  1
  Te  Te178  1  0.92169183  0.76856030  0.58110026  1
  Te  Te179  1  0.89427045  0.78365467  0.89582385  1
