# generated using pymatgen
data_In2Te3
_symmetry_space_group_name_H-M   'P 1'
_cell_length_a   18.92511827
_cell_length_b   18.90069666
_cell_length_c   18.91428608
_cell_angle_alpha   89.90892801
_cell_angle_beta   90.10505797
_cell_angle_gamma   89.94802161
_symmetry_Int_Tables_number   1
_chemical_formula_structural   In2Te3
_chemical_formula_sum   'In72 Te108'
_cell_volume   6765.57806125
_cell_formula_units_Z   36
loop_
 _symmetry_equiv_pos_site_id
 _symmetry_equiv_pos_as_xyz
  1  'x, y, z'
loop_
 _atom_site_type_symbol
 _atom_site_label
 _atom_site_symmetry_multiplicity
 _atom_site_fract_x
 _atom_site_fract_y
 _atom_site_fract_z
 _atom_site_occupancy
  In  In0  1  0.48214129  0.48899709  0.01093211  1
  In  In1  1  0.82983068  -0.02172899  0.84981271  1
  In  In2  1  0.01408337  0.31002456  0.66897685  1
  In  In3  1  0.67199180  0.01028650  0.34725513  1
  In  In4  1  0.85204875  0.48928076  0.03972774  1
  In  In5  1  0.66268437  0.84232542  0.16318175  1
  In  In6  1  0.31640043  0.32226590  0.01403679  1
  In  In7  1  0.18043316  -0.00304005  0.82302237  1
  In  In8  1  0.46170559  0.86443882  0.30040939  1
  In  In9  1  0.65570259  0.18329728  0.84219052  1
  In  In10  1  0.84092211  0.48946038  0.31581350  1
  In  In11  1  0.17520189  0.84118100  -0.01906193  1
  In  In12  1  0.17194958  0.34943675  0.17581201  1
  In  In13  1  -0.00072806  0.65049903  0.00688728  1
  In  In14  1  0.00970325  0.82672971  0.80687735  1
  In  In15  1  0.16264363  0.66816184  0.17292950  1
  In  In16  1  0.65912066  0.34209641  0.66268125  1
  In  In17  1  0.84476771  0.32812160  0.48738081  1
  In  In18  1  0.32380602  0.68962673  0.64284219  1
  In  In19  1  0.33116154  0.15705375  0.81581082  1
  In  In20  1  0.70506736  0.66995642  0.34062972  1
  In  In21  1  0.32478626  0.84303493  0.80060486  1
  In  In22  1  0.03230298  0.46671378  0.45820880  1
  In  In23  1  0.51357129  0.84362690  0.65645776  1
  In  In24  1  0.52733735  0.65633307  0.83884167  1
  In  In25  1  0.00344433  0.68097502  0.65235415  1
  In  In26  1  0.00958694  0.66614023  0.34178714  1
  In  In27  1  0.32274637  -0.01245644  0.01340828  1
  In  In28  1  0.17892698  0.50744548  0.64654508  1
  In  In29  1  0.82596238  0.02342587  0.18181240  1
  In  In30  1  0.68375804  0.32803968  0.01874825  1
  In  In31  1  0.49400739  0.67657288  0.17815810  1
  In  In32  1  0.50752879  0.48508191  0.35375171  1
  In  In33  1  0.31308608  0.48188391  0.47249621  1
  In  In34  1  0.81089418  0.68955725  0.80013271  1
  In  In35  1  0.68735931  0.30636806  0.30729688  1
  In  In36  1  0.36247110  0.50721784  0.81988494  1
  In  In37  1  0.45303462  0.28512044  0.51604463  1
  In  In38  1  0.48218746  0.00911963  0.50034013  1
  In  In39  1  0.49862345  0.00102819  0.80975764  1
  In  In40  1  0.69092345  0.51251626  0.52807861  1
  In  In41  1  -0.02062891  0.30826675  0.04620843  1
  In  In42  1  0.01884357  0.84722810  0.49342342  1
  In  In43  1  0.16368175  0.14445627  0.63584874  1
  In  In44  1  0.31132696  0.66630012  0.31749521  1
  In  In45  1  -0.00176781  -0.01855557  0.65383808  1
  In  In46  1  0.49416813  0.67928834  0.50677514  1
  In  In47  1  0.68664355  0.84050534  0.48165531  1
  In  In48  1  0.84571615  0.17062924  0.03307424  1
  In  In49  1  0.51225167  0.34231000  0.79388384  1
  In  In50  1  0.47695650  0.18012408  -0.00149366  1
  In  In51  1  -0.00264739  0.49833850  0.86246302  1
  In  In52  1  0.49352943  0.49545765  0.68115094  1
  In  In53  1  0.00931413  0.17824897  0.45635087  1
  In  In54  1  0.67296735  0.50923250  0.85243041  1
  In  In55  1  0.64820590  0.14992902  0.49532864  1
  In  In56  1  0.16962374  0.50684247  0.01369277  1
  In  In57  1  0.02503557  0.84156730  0.20639108  1
  In  In58  1  0.66997101  0.66555567  0.01045846  1
  In  In59  1  0.49059572  0.15850750  0.32002983  1
  In  In60  1  0.49120567  0.84095369  0.03254705  1
  In  In61  1  0.83466251  0.15407190  0.68030151  1
  In  In62  1  0.29968804  0.85314533  0.46477469  1
  In  In63  1  0.00941978  0.13546105  0.16496254  1
  In  In64  1  0.18046046  0.15616224  0.33924012  1
  In  In65  1  0.01175527  0.01485815  0.03091603  1
  In  In66  1  0.00977568  0.18858980  0.84902289  1
  In  In67  1  0.84472345  -0.00017890  0.48934229  1
  In  In68  1  0.83728234  0.83211365  0.00221205  1
  In  In69  1  0.48962603  0.31930488  0.16565465  1
  In  In70  1  0.15225128  0.32614872  0.85162277  1
  In  In71  1  0.82565063  0.50393544  0.66137496  1
  Te  Te72  1  0.12609436  0.06602068  0.10693801  1
  Te  Te73  1  0.10123096  0.06554470  0.42877361  1
  Te  Te74  1  0.06694707  0.08649461  0.75093651  1
  Te  Te75  1  0.06953157  0.42630134  0.09058282  1
  Te  Te76  1  0.14115072  0.38776643  0.38283459  1
  Te  Te77  1  0.08250078  0.42389866  0.75186007  1
  Te  Te78  1  0.07368383  0.76573075  0.07615519  1
  Te  Te79  1  0.10465012  0.75365232  0.41428988  1
  Te  Te80  1  0.10594486  0.74387409  0.73542824  1
  Te  Te81  1  0.41049070  0.08199867  0.08875016  1
  Te  Te82  1  0.38920342  0.09385678  0.41723690  1
  Te  Te83  1  0.39510179  0.06290671  0.72130507  1
  Te  Te84  1  0.38813016  0.42070798  0.10599654  1
  Te  Te85  1  0.40575081  0.38366281  0.40389768  1
  Te  Te86  1  0.38764651  0.39129944  0.72227787  1
  Te  Te87  1  0.39498439  0.76119288  0.10861811  1
  Te  Te88  1  0.41232133  0.75428558  0.40414248  1
  Te  Te89  1  0.43799250  0.73488806  0.74007815  1
  Te  Te90  1  0.74742542  0.06375906  0.06163396  1
  Te  Te91  1  0.76836919  0.10966770  0.41360857  1
  Te  Te92  1  0.74204321  0.07719265  0.76968531  1
  Te  Te93  1  0.72848222  0.44003939  0.10168284  1
  Te  Te94  1  0.73568897  0.41202293  0.42105813  1
  Te  Te95  1  0.75023674  0.41408020  0.76103746  1
  Te  Te96  1  0.76222489  0.74359573  0.10185224  1
  Te  Te97  1  0.79087649  0.76801201  0.40680426  1
  Te  Te98  1  0.71848938  0.79657361  0.77636408  1
  Te  Te99  1  0.08803861  0.23725366  0.24381470  1
  Te  Te100  1  0.09753782  0.25909745  0.55380766  1
  Te  Te101  1  0.09237716  0.24281044  0.96422952  1
  Te  Te102  1  0.09508486  0.56819194  0.26320128  1
  Te  Te103  1  0.06747981  0.57142218  0.56680319  1
  Te  Te104  1  0.10251087  0.59696783  0.90807253  1
  Te  Te105  1  0.08548783  0.94720995  0.29034561  1
  Te  Te106  1  0.11315367  0.92370279  0.58282518  1
  Te  Te107  1  0.06521671  0.92986607  0.90777267  1
  Te  Te108  1  0.39147446  0.24224175  0.24408145  1
  Te  Te109  1  0.38313751  0.18735661  0.60297096  1
  Te  Te110  1  0.40957386  0.27058479  0.89624093  1
  Te  Te111  1  0.42061958  0.57265005  0.26402026  1
  Te  Te112  1  0.40730809  0.57366238  0.57402865  1
  Te  Te113  1  0.41725627  0.59940010  0.92899912  1
  Te  Te114  1  0.40642485  0.97762821  0.22345670  1
  Te  Te115  1  0.40045890  0.90193104  0.57085384  1
  Te  Te116  1  0.40934095  0.91560105  0.90591225  1
  Te  Te117  1  0.75231066  0.20395155  0.22541749  1
  Te  Te118  1  0.75216357  0.24735818  0.58562556  1
  Te  Te119  1  0.76635689  0.24902385  0.92214671  1
  Te  Te120  1  0.74096450  0.56808426  0.24168659  1
  Te  Te121  1  0.77585181  0.61859695  0.58261775  1
  Te  Te122  1  0.77446046  0.59275259  0.92561719  1
  Te  Te123  1  0.75422140  0.91536327  0.26136041  1
  Te  Te124  1  0.73556077  0.94721168  0.57418980  1
  Te  Te125  1  0.73647908  0.93060544  0.95496501  1
  Te  Te126  1  0.26124915  0.24121791  0.12281705  1
  Te  Te127  1  0.22611175  0.26848532  0.42578664  1
  Te  Te128  1  0.21955733  0.23664781  0.74883392  1
  Te  Te129  1  0.25893923  0.59268019  0.08995567  1
  Te  Te130  1  0.23475121  0.59907391  0.42638528  1
  Te  Te131  1  0.26071492  0.59228518  0.74272416  1
  Te  Te132  1  0.23570792  0.90514277  0.10043358  1
  Te  Te133  1  0.22595043  0.92344796  0.35512851  1
  Te  Te134  1  0.23050351  0.91500863  0.71057302  1
  Te  Te135  1  0.58941781  0.23320448  0.08830664  1
  Te  Te136  1  0.57838739  0.25402545  0.41176691  1
  Te  Te137  1  0.57425817  0.22616991  0.71987412  1
  Te  Te138  1  0.57449268  0.57982560  0.09213453  1
  Te  Te139  1  0.59250298  0.59154972  0.42402328  1
  Te  Te140  1  0.60874103  0.58082842  0.73445861  1
  Te  Te141  1  0.56893256  0.94095596  0.10556855  1
  Te  Te142  1  0.56446152  0.91304200  0.40949975  1
  Te  Te143  1  0.60300139  0.90369662  0.76202502  1
  Te  Te144  1  0.86170356  0.27830681  0.14551502  1
  Te  Te145  1  0.93007578  0.27923722  0.37524618  1
  Te  Te146  1  0.90592852  0.26246752  0.76287611  1
  Te  Te147  1  0.92260710  0.59164645  0.11638482  1
  Te  Te148  1  0.91978114  0.56320312  0.42121751  1
  Te  Te149  1  0.91915976  0.58104771  0.76031972  1
  Te  Te150  1  0.91861967  0.91837821  0.10142202  1
  Te  Te151  1  0.93825957  0.93202470  0.39740878  1
  Te  Te152  1  0.89763817  0.90228470  0.73566060  1
  Te  Te153  1  0.28817831  0.05570577  0.29002309  1
  Te  Te154  1  0.26971001  0.10399903  0.54033047  1
  Te  Te155  1  0.24686720  0.08914709  0.92224375  1
  Te  Te156  1  0.21564364  0.46151715  0.26360099  1
  Te  Te157  1  0.25460146  0.40013980  0.58204322  1
  Te  Te158  1  0.25606388  0.42492343  0.90676623  1
  Te  Te159  1  0.24941740  0.77358466  0.23547799  1
  Te  Te160  1  0.23265997  0.73500748  0.53338840  1
  Te  Te161  1  0.25962467  0.75516827  0.89812217  1
  Te  Te162  1  0.59133377  0.08056159  0.24585322  1
  Te  Te163  1  0.59579897  0.04953703  0.58938445  1
  Te  Te164  1  0.56645779  0.08568709  0.91649238  1
  Te  Te165  1  0.58419714  0.40409307  0.24953307  1
  Te  Te166  1  0.56755235  0.41893860  0.57016413  1
  Te  Te167  1  0.57658884  0.40880558  0.91948299  1
  Te  Te168  1  0.58896409  0.75570308  0.26646712  1
  Te  Te169  1  0.60596867  0.74996842  0.57903900  1
  Te  Te170  1  0.58111991  0.76167339  0.93444321  1
  Te  Te171  1  0.93690370  0.06414888  0.27212396  1
  Te  Te172  1  0.93269836  0.10400483  0.57575759  1
  Te  Te173  1  0.91902820  0.08809501  0.92050943  1
  Te  Te174  1  0.92201977  0.38523938  0.25376109  1
  Te  Te175  1  0.92407483  0.40782277  0.59000762  1
  Te  Te176  1  0.91337579  0.39756554  0.93567810  1
  Te  Te177  1  0.92224493  0.74995733  0.25664680  1
  Te  Te178  1  0.91956323  0.77209276  0.57612591  1
  Te  Te179  1  0.92304754  0.74646286  0.90746173  1
