# generated using pymatgen
data_In2Te3
_symmetry_space_group_name_H-M   'P 1'
_cell_length_a   19.00251453
_cell_length_b   19.02138531
_cell_length_c   18.99604895
_cell_angle_alpha   89.78981985
_cell_angle_beta   90.18364958
_cell_angle_gamma   90.30325035
_symmetry_Int_Tables_number   1
_chemical_formula_structural   In2Te3
_chemical_formula_sum   'In72 Te108'
_cell_volume   6866.02352646
_cell_formula_units_Z   36
loop_
 _symmetry_equiv_pos_site_id
 _symmetry_equiv_pos_as_xyz
  1  'x, y, z'
loop_
 _atom_site_type_symbol
 _atom_site_label
 _atom_site_symmetry_multiplicity
 _atom_site_fract_x
 _atom_site_fract_y
 _atom_site_fract_z
 _atom_site_occupancy
  In  In0  1  0.18151521  0.48207866  0.67840840  1
  In  In1  1  0.67196674  0.50765234  0.51610492  1
  In  In2  1  0.00586668  0.00767374  0.68145383  1
  In  In3  1  0.36896287  0.70051570  0.72558796  1
  In  In4  1  0.33504150  0.16299812  0.83641359  1
  In  In5  1  0.31566696  0.83139349  0.13487970  1
  In  In6  1  0.81150195  0.81583266  0.31943590  1
  In  In7  1  0.15021035  0.16156077  0.33430313  1
  In  In8  1  0.81619685  0.18256847  0.33593985  1
  In  In9  1  0.85096445  0.84018758  0.66281159  1
  In  In10  1  0.85925946  0.70019533  0.85677066  1
  In  In11  1  0.69641478  0.00395257  0.32387815  1
  In  In12  1  0.47681406  0.00159072  0.15684884  1
  In  In13  1  0.15122290  0.30869902  0.17926944  1
  In  In14  1  0.82415144  0.32513551  0.15989929  1
  In  In15  1  -0.02713382  0.49224342  0.49056911  1
  In  In16  1  0.33816624  0.69789388  -0.01963269  1
  In  In17  1  0.66600793  0.16974751  0.83071991  1
  In  In18  1  0.52644600  0.52707298  0.69619286  1
  In  In19  1  0.32827059  0.48890750  0.84446629  1
  In  In20  1  0.34598791  0.14839813  0.51174207  1
  In  In21  1  0.83046684  0.50413430  0.65086318  1
  In  In22  1  0.49946521  0.17808202  0.33843334  1
  In  In23  1  0.57947025  0.39547356  0.36269510  1
  In  In24  1  0.48561332  0.33516606  0.85160208  1
  In  In25  1  0.64887456  0.81775170  0.13824574  1
  In  In26  1  0.83105914  0.16927857  0.00531359  1
  In  In27  1  0.15814146  0.69595242  0.83648836  1
  In  In28  1  0.14589689  0.33098159  0.51710485  1
  In  In29  1  0.13612751  0.67276880  0.15222605  1
  In  In30  1  0.34217359  -0.02145154  0.70451682  1
  In  In31  1  0.34942331  0.49164583  0.14013851  1
  In  In32  1  0.33438561  0.83842562  0.52801943  1
  In  In33  1  0.52682274  0.03001024  0.52487209  1
  In  In34  1  0.79964735  0.01702012  0.48724531  1
  In  In35  1  0.80286910  0.49108916  0.33737392  1
  In  In36  1  0.00363734  0.84460278  0.14012666  1
  In  In37  1  0.52437928  0.66616064  0.52507880  1
  In  In38  1  0.67645466  0.65220081  0.33607216  1
  In  In39  1  0.48493112  0.84639371  0.33983398  1
  In  In40  1  0.32808796  0.16735488  0.16987554  1
  In  In41  1  0.33988701  0.67500797  0.30855366  1
  In  In42  1  0.68216277  0.15121169  0.15307396  1
  In  In43  1  0.51804677  0.49891366  0.00514253  1
  In  In44  1  0.65224450  0.32348637  0.00932289  1
  In  In45  1  0.17417934  0.69124165  0.51854744  1
  In  In46  1  0.66941737  0.32408278  0.66112417  1
  In  In47  1  0.82636707  0.69694536  0.13861114  1
  In  In48  1  0.16546008  0.01292481  0.15542913  1
  In  In49  1  0.48896946  0.84502869  -0.04908329  1
  In  In50  1  0.51561388  0.63656482  0.17490384  1
  In  In51  1  0.34401906  0.30443429  0.65845833  1
  In  In52  1  0.00481773  0.17208296  0.83229355  1
  In  In53  1  0.86963040  -0.00803028  0.13170351  1
  In  In54  1  0.36397062  0.51028669  0.49041999  1
  In  In55  1  0.51175221  0.01644725  0.83930515  1
  In  In56  1  0.85916653  0.34226155  0.80819225  1
  In  In57  1  0.02089907  0.50098357  0.81917454  1
  In  In58  1  -0.02598314  0.00442922  0.31939630  1
  In  In59  1  0.01966602  -0.00989609  -0.02849625  1
  In  In60  1  0.18074599  -0.01371780  0.51363521  1
  In  In61  1  0.82048620  0.52978228  -0.01208479  1
  In  In62  1  0.16076067  0.50133085  0.33491985  1
  In  In63  1  0.65233106  0.83338557  0.52044854  1
  In  In64  1  0.01921159  0.66580467  0.66102481  1
  In  In65  1  0.00508679  0.84563965  0.50697982  1
  In  In66  1  0.79281946  -0.01932716  0.84220627  1
  In  In67  1  0.02517716  0.32848937  -0.02221348  1
  In  In68  1  0.18330266  0.49839346  -0.00453926  1
  In  In69  1  0.33413727  0.31615022  0.32766017  1
  In  In70  1  -0.01391000  0.17472137  0.49730201  1
  In  In71  1  -0.02862832  0.50018243  0.16591574  1
  Te  Te72  1  0.05650014  0.07936228  0.08172566  1
  Te  Te73  1  0.07466372  0.05948612  0.42138087  1
  Te  Te74  1  0.10522740  0.08418306  0.76162343  1
  Te  Te75  1  0.08274750  0.42846803  0.09197028  1
  Te  Te76  1  0.07218672  0.40403756  0.40811428  1
  Te  Te77  1  0.09351050  0.39323439  0.75449202  1
  Te  Te78  1  0.09309568  0.77008618  0.04644575  1
  Te  Te79  1  0.08284845  0.75459439  0.42459940  1
  Te  Te80  1  0.05756812  0.76763737  0.75853360  1
  Te  Te81  1  0.37724604  0.06815755  0.06814243  1
  Te  Te82  1  0.42713662  0.06754536  0.41416460  1
  Te  Te83  1  0.43173059  0.09550697  0.73905601  1
  Te  Te84  1  0.42657581  0.39740893  0.06214827  1
  Te  Te85  1  0.42812441  0.40191146  0.41013892  1
  Te  Te86  1  0.41367346  0.42366875  0.73889520  1
  Te  Te87  1  0.43094527  0.73554274  0.09915048  1
  Te  Te88  1  0.42000158  0.74035066  0.42673698  1
  Te  Te89  1  0.45250735  0.80201148  0.80332572  1
  Te  Te90  1  0.74953721  0.05273328  0.06031601  1
  Te  Te91  1  0.70897264  0.11957897  0.42203183  1
  Te  Te92  1  0.74035890  0.07764449  0.73997489  1
  Te  Te93  1  0.74975419  0.42343536  0.07258160  1
  Te  Te94  1  0.73349617  0.40151606  0.43418299  1
  Te  Te95  1  0.74629084  0.42197946  0.74833971  1
  Te  Te96  1  0.73714012  0.75865520  0.03976029  1
  Te  Te97  1  0.74307330  0.74541772  0.43413123  1
  Te  Te98  1  0.76550444  0.76657813  0.76059132  1
  Te  Te99  1  0.05292897  0.24290561  0.26334527  1
  Te  Te100  1  0.09020766  0.21931737  0.59016345  1
  Te  Te101  1  0.09970379  0.21066883  0.93953942  1
  Te  Te102  1  0.06445799  0.58552432  0.25493685  1
  Te  Te103  1  0.09956993  0.56577271  0.57887021  1
  Te  Te104  1  0.08819743  0.58952054  0.92150178  1
  Te  Te105  1  0.07653505  0.92214018  0.24819159  1
  Te  Te106  1  0.09543723  0.90690880  0.61081524  1
  Te  Te107  1  0.11863490  0.96079413  0.86482667  1
  Te  Te108  1  0.43365393  0.26025013  0.22931378  1
  Te  Te109  1  0.44017795  0.24431416  0.56840979  1
  Te  Te110  1  0.40812820  0.24577764  0.93546292  1
  Te  Te111  1  0.41990427  0.55622043  0.25851495  1
  Te  Te112  1  0.41216029  0.59744340  0.60530768  1
  Te  Te113  1  0.41603585  0.58142400  0.92439320  1
  Te  Te114  1  0.39030093  0.91210572  0.24424169  1
  Te  Te115  1  0.43789365  0.92602192  0.59362468  1
  Te  Te116  1  0.39355174  0.96487731  0.93076517  1
  Te  Te117  1  0.70592966  0.27379396  0.24289943  1
  Te  Te118  1  0.73323725  0.20016342  0.61595154  1
  Te  Te119  1  0.76332456  0.26649365  0.91039713  1
  Te  Te120  1  0.75794651  0.59084821  0.22848562  1
  Te  Te121  1  0.73841444  0.60526123  0.60035768  1
  Te  Te122  1  0.74737016  0.60397189  0.88540831  1
  Te  Te123  1  0.75947102  0.91431722  0.21598702  1
  Te  Te124  1  0.74397943  0.92662022  0.59576464  1
  Te  Te125  1  0.69617552  0.87223124  0.87446343  1
  Te  Te126  1  0.23819247  0.24521526  0.08391353  1
  Te  Te127  1  0.24629003  0.23974855  0.42539959  1
  Te  Te128  1  0.25013008  0.25313824  0.75488613  1
  Te  Te129  1  0.25720017  0.59940270  0.08542827  1
  Te  Te130  1  0.25494126  0.59253235  0.41368932  1
  Te  Te131  1  0.24640095  0.59026048  0.76300964  1
  Te  Te132  1  0.21091644  0.90547560  0.06466544  1
  Te  Te133  1  0.25250540  0.89797800  0.42369843  1
  Te  Te134  1  0.24192322  0.90573340  0.78566333  1
  Te  Te135  1  0.57757454  0.20743673  0.06345564  1
  Te  Te136  1  0.58251639  0.26142501  0.42491305  1
  Te  Te137  1  0.56795571  0.25547737  0.75427627  1
  Te  Te138  1  0.61047619  0.58748365  0.07775967  1
  Te  Te139  1  0.57206577  0.57715966  0.41347461  1
  Te  Te140  1  0.59396508  0.61958595  0.78554232  1
  Te  Te141  1  0.56394313  0.91836526  0.06572643  1
  Te  Te142  1  0.59282717  0.92532676  0.41247373  1
  Te  Te143  1  0.58808317  0.90711756  0.77562330  1
  Te  Te144  1  0.93021723  0.25779309  0.07719442  1
  Te  Te145  1  0.89049703  0.26269292  0.43118237  1
  Te  Te146  1  0.91498968  0.23301987  0.73306446  1
  Te  Te147  1  0.92480346  0.60570105  0.06777420  1
  Te  Te148  1  0.89254053  0.58236370  0.41142912  1
  Te  Te149  1  0.91887981  0.58959486  0.75249212  1
  Te  Te150  1  0.90545117  0.88835125  0.02325793  1
  Te  Te151  1  0.89081649  0.91371115  0.40982626  1
  Te  Te152  1  0.91436556  0.92416512  0.77206726  1
  Te  Te153  1  0.25254033  0.07719889  0.26554051  1
  Te  Te154  1  0.26116734  0.07067912  0.60851533  1
  Te  Te155  1  0.27640695  0.05817356  0.92647046  1
  Te  Te156  1  0.25158195  0.41769562  0.24653306  1
  Te  Te157  1  0.26489108  0.41777691  0.56282676  1
  Te  Te158  1  0.23769110  0.39500703  0.91021499  1
  Te  Te159  1  0.23112157  0.75315176  0.24155418  1
  Te  Te160  1  0.25825612  0.75349310  0.62621935  1
  Te  Te161  1  0.26032774  0.79139514  0.89490292  1
  Te  Te162  1  0.57897926  0.07315153  0.24564384  1
  Te  Te163  1  0.61936101  0.09516174  0.61883345  1
  Te  Te164  1  0.59015966  0.09753147  0.93605975  1
  Te  Te165  1  0.61584075  0.39527119  0.22294804  1
  Te  Te166  1  0.57304861  0.42620469  0.59656500  1
  Te  Te167  1  0.59929376  0.42021304  0.90411232  1
  Te  Te168  1  0.58528248  0.75907456  0.26489407  1
  Te  Te169  1  0.57563877  0.76088628  0.62233078  1
  Te  Te170  1  0.54740747  0.72047175  0.89457628  1
  Te  Te171  1  0.89413292  0.10237749  0.23665240  1
  Te  Te172  1  0.91187080  0.06775329  0.57574362  1
  Te  Te173  1  0.90308954  0.07857132  0.90786415  1
  Te  Te174  1  0.90289909  0.40574810  0.26133431  1
  Te  Te175  1  0.92217229  0.40622327  0.59521251  1
  Te  Te176  1  0.92307359  0.42862863  0.92398444  1
  Te  Te177  1  0.92374732  0.75713770  0.23928311  1
  Te  Te178  1  0.91957043  0.73922359  0.57306568  1
  Te  Te179  1  0.95966554  0.77054222  0.93888958  1
