# generated using pymatgen
data_In2Te3
_symmetry_space_group_name_H-M   'P 1'
_cell_length_a   18.98589923
_cell_length_b   19.03829175
_cell_length_c   19.03032307
_cell_angle_alpha   89.84211183
_cell_angle_beta   90.00629772
_cell_angle_gamma   89.95767352
_symmetry_Int_Tables_number   1
_chemical_formula_structural   In2Te3
_chemical_formula_sum   'In72 Te108'
_cell_volume   6878.65519752
_cell_formula_units_Z   36
loop_
 _symmetry_equiv_pos_site_id
 _symmetry_equiv_pos_as_xyz
  1  'x, y, z'
loop_
 _atom_site_type_symbol
 _atom_site_label
 _atom_site_symmetry_multiplicity
 _atom_site_fract_x
 _atom_site_fract_y
 _atom_site_fract_z
 _atom_site_occupancy
  In  In0  1  0.02075884  -0.01180657  0.01368813  1
  In  In1  1  0.01877697  0.84471617  0.17740886  1
  In  In2  1  0.64233337  0.33758580  0.68293722  1
  In  In3  1  -0.01821175  0.49446056  0.20469747  1
  In  In4  1  0.32530022  0.52162117  0.80650356  1
  In  In5  1  0.15312786  0.31226522  0.83781113  1
  In  In6  1  0.34979208  0.50353348  0.50876049  1
  In  In7  1  0.66161896  0.00846986  -0.01294164  1
  In  In8  1  0.50503674  0.17804499  0.01448195  1
  In  In9  1  0.32643512  0.31157637  0.32885255  1
  In  In10  1  0.16278508  0.64619557  0.15356066  1
  In  In11  1  -0.01082825  0.30482235  0.68128455  1
  In  In12  1  0.82406914  0.50839575  0.00328781  1
  In  In13  1  0.49656515  0.52132271  0.67491882  1
  In  In14  1  0.01894438  0.67699857  -0.02435770  1
  In  In15  1  0.36487685  0.34673673  0.68200312  1
  In  In16  1  0.81351771  0.49569915  0.33766348  1
  In  In17  1  0.62446122  0.67315231  0.33901219  1
  In  In18  1  0.17605702  0.32014653  0.17087944  1
  In  In19  1  0.49541451  0.65230743  0.16995354  1
  In  In20  1  0.02690847  -0.00966325  0.67158518  1
  In  In21  1  0.78020374  0.32455445  0.81633301  1
  In  In22  1  0.18005076  0.69094432  0.51683299  1
  In  In23  1  0.36127510  0.68763613  0.33576277  1
  In  In24  1  0.18381760  0.33579049  0.51003307  1
  In  In25  1  0.18000453  0.86008491  0.31736341  1
  In  In26  1  0.82053746  0.15623437  0.66179612  1
  In  In27  1  0.68457509  0.84452789  0.80688731  1
  In  In28  1  0.02504866  0.81398999  0.81077448  1
  In  In29  1  -0.01243462  0.33465975  0.35094472  1
  In  In30  1  0.34114270  0.31936778  0.01218936  1
  In  In31  1  0.49257586  0.32586376  0.16684424  1
  In  In32  1  0.82322353  0.33410897  0.49916025  1
  In  In33  1  0.64843066  -0.00364227  0.36859007  1
  In  In34  1  0.84439515  0.00050429  0.81998146  1
  In  In35  1  0.84280573  0.86088508  0.34908371  1
  In  In36  1  0.49238912  0.11285616  0.59713651  1
  In  In37  1  0.83494364  0.67711313  0.50290375  1
  In  In38  1  -0.02504304  0.66827115  0.35564509  1
  In  In39  1  0.84840072  0.53350384  0.66318328  1
  In  In40  1  0.18999617  -0.00439296  0.18869163  1
  In  In41  1  0.51019520  0.03103630  0.18065666  1
  In  In42  1  0.49058089  0.83948809  -0.00618010  1
  In  In43  1  0.18499895  0.47371772  0.34796709  1
  In  In44  1  0.33823323  -0.00887325  -0.00117554  1
  In  In45  1  0.83377234  0.67227616  0.12921345  1
  In  In46  1  0.19873615  -0.01959603  0.79717081  1
  In  In47  1  0.45960572  -0.02461939  0.81714183  1
  In  In48  1  0.83400322  0.68474739  0.83044704  1
  In  In49  1  0.80441360  0.16740645  0.36189081  1
  In  In50  1  0.51043055  0.31173975  0.49401331  1
  In  In51  1  -0.00762304  0.17144198  0.17907253  1
  In  In52  1  0.14414969  0.53239665  0.66866360  1
  In  In53  1  0.34236705  0.84233439  0.14929593  1
  In  In54  1  0.65648437  0.32950720  0.32810619  1
  In  In55  1  0.66819070  0.83610661  0.50642153  1
  In  In56  1  0.83353645  0.00645160  0.18026051  1
  In  In57  1  -0.00693929  0.33049781  -0.01597896  1
  In  In58  1  0.34852426  0.00657635  0.35416645  1
  In  In59  1  0.65760972  0.50974506  0.16685512  1
  In  In60  1  0.65502842  0.68366494  0.01096669  1
  In  In61  1  0.04062461  0.12168088  0.49272699  1
  In  In62  1  0.33723296  0.17721779  0.84411622  1
  In  In63  1  0.84090021  0.13127764  0.01286053  1
  In  In64  1  0.49519538  0.86086271  0.64360623  1
  In  In65  1  0.00709206  0.51508136  0.85804737  1
  In  In66  1  0.63442406  0.19939409  0.83864455  1
  In  In67  1  0.20232084  0.13100755  0.63862904  1
  In  In68  1  0.47417072  0.68596575  0.80448519  1
  In  In69  1  0.17728648  0.46394894  0.01129669  1
  In  In70  1  0.01536936  0.83413627  0.51008971  1
  In  In71  1  0.50241414  0.67110926  0.51230208  1
  Te  Te72  1  0.09155335  0.08165195  0.10764468  1
  Te  Te73  1  0.11135793  0.03799014  0.39855007  1
  Te  Te74  1  0.10596345  0.09162226  0.74955883  1
  Te  Te75  1  0.06343825  0.40617739  0.10420592  1
  Te  Te76  1  0.07715232  0.41913915  0.43944906  1
  Te  Te77  1  0.07346848  0.41759020  0.75519256  1
  Te  Te78  1  0.09513122  0.75935789  0.07875942  1
  Te  Te79  1  0.09138979  0.75600941  0.39620049  1
  Te  Te80  1  0.11745235  0.73434805  0.72431142  1
  Te  Te81  1  0.40384529  0.09115282  0.08970888  1
  Te  Te82  1  0.43382620  0.08043703  0.45428077  1
  Te  Te83  1  0.39996299  0.08833761  0.74237333  1
  Te  Te84  1  0.42646743  0.41870830  0.07293024  1
  Te  Te85  1  0.41118049  0.40080159  0.41963127  1
  Te  Te86  1  0.44277411  0.42539926  0.78108308  1
  Te  Te87  1  0.41099693  0.73614560  0.06991708  1
  Te  Te88  1  0.43559005  0.77495051  0.42771169  1
  Te  Te89  1  0.39697419  0.78418189  0.72412699  1
  Te  Te90  1  0.72853638  0.08316440  0.10277650  1
  Te  Te91  1  0.74878253  0.06598895  0.45936487  1
  Te  Te92  1  0.73861542  0.09635303  0.77331530  1
  Te  Te93  1  0.74618106  0.42223635  0.08928488  1
  Te  Te94  1  0.72178504  0.42238778  0.43091140  1
  Te  Te95  1  0.74271014  0.44602072  0.72763075  1
  Te  Te96  1  0.73882382  0.77372406  0.08862207  1
  Te  Te97  1  0.75223210  0.74733393  0.39556837  1
  Te  Te98  1  0.76898300  0.76026660  0.72290607  1
  Te  Te99  1  0.08384676  0.25073917  0.27052191  1
  Te  Te100  1  0.09030435  0.24056905  0.58877290  1
  Te  Te101  1  0.08765159  0.23018943  0.93813133  1
  Te  Te102  1  0.08923543  0.57791884  0.27036004  1
  Te  Te103  1  0.07708554  0.59573156  0.55681866  1
  Te  Te104  1  0.12478685  0.58187995  0.92350984  1
  Te  Te105  1  0.05657471  0.94588032  0.28385813  1
  Te  Te106  1  0.12010492  0.90682844  0.59089027  1
  Te  Te107  1  0.09879574  0.92002377  0.90317022  1
  Te  Te108  1  0.41441804  0.23087927  0.24680384  1
  Te  Te109  1  0.40711189  0.24575553  0.58173356  1
  Te  Te110  1  0.43851888  0.26608109  0.90825585  1
  Te  Te111  1  0.41434808  0.57409224  0.26379302  1
  Te  Te112  1  0.39650860  0.61010259  0.60229112  1
  Te  Te113  1  0.38703958  0.61509271  0.89896640  1
  Te  Te114  1  0.41983187  0.92493143  0.24463125  1
  Te  Te115  1  0.41553892  0.97417769  0.57753885  1
  Te  Te116  1  0.37613515  0.88108914  0.90238242  1
  Te  Te117  1  0.75535501  0.25020107  0.25334744  1
  Te  Te118  1  0.73231636  0.25320869  0.58700630  1
  Te  Te119  1  0.75210280  0.22544690  0.93504624  1
  Te  Te120  1  0.75874370  0.59726910  0.24090275  1
  Te  Te121  1  0.74614564  0.58207978  0.57061859  1
  Te  Te122  1  0.74276351  0.59966456  0.91631955  1
  Te  Te123  1  0.73758149  0.92453878  0.26258958  1
  Te  Te124  1  0.73531460  0.94423207  0.58025169  1
  Te  Te125  1  0.76090510  0.91867976  0.91690707  1
  Te  Te126  1  0.24246032  0.23335568  0.07549324  1
  Te  Te127  1  0.23976091  0.23668597  0.42100632  1
  Te  Te128  1  0.25165817  0.25343912  0.73754513  1
  Te  Te129  1  0.25859295  0.56231122  0.08346426  1
  Te  Te130  1  0.25800846  0.58754454  0.41978207  1
  Te  Te131  1  0.23861569  0.62334477  0.73643223  1
  Te  Te132  1  0.23212803  0.90983370  0.07184969  1
  Te  Te133  1  0.27604837  0.89383973  0.42292238  1
  Te  Te134  1  0.24638677  0.88541594  0.69219250  1
  Te  Te135  1  0.59844854  0.25345355  0.09449228  1
  Te  Te136  1  0.58775137  0.22241042  0.40584955  1
  Te  Te137  1  0.56789920  0.20841842  0.70401809  1
  Te  Te138  1  0.56874642  0.57170576  0.06078485  1
  Te  Te139  1  0.55983864  0.57265463  0.41975744  1
  Te  Te140  1  0.58427499  0.60219456  0.75859336  1
  Te  Te141  1  0.57183160  0.93007083  0.08200876  1
  Te  Te142  1  0.56234622  0.88476376  0.41525630  1
  Te  Te143  1  0.58522270  0.93812414  0.74028481  1
  Te  Te144  1  0.90737806  0.24953862  0.08151504  1
  Te  Te145  1  0.92447684  0.23290381  0.44402957  1
  Te  Te146  1  0.89845774  0.23160278  0.77158767  1
  Te  Te147  1  0.94665927  0.57827013  0.07562503  1
  Te  Te148  1  0.91240982  0.55728807  0.43242749  1
  Te  Te149  1  0.94330639  0.60713651  0.75755417  1
  Te  Te150  1  0.91430471  0.91405726  0.09147016  1
  Te  Te151  1  0.91149015  0.92626107  0.45787735  1
  Te  Te152  1  0.92203343  0.90338714  0.73554471  1
  Te  Te153  1  0.24394672  0.08946673  0.28705472  1
  Te  Te154  1  0.28996966  0.06199290  0.54366571  1
  Te  Te155  1  0.24833151  0.07341633  0.90811347  1
  Te  Te156  1  0.26679894  0.42163249  0.23497607  1
  Te  Te157  1  0.25361175  0.43188067  0.60685630  1
  Te  Te158  1  0.25628318  0.40691217  0.89540859  1
  Te  Te159  1  0.25284857  0.74820141  0.23677800  1
  Te  Te160  1  0.26626904  0.80030165  0.56311879  1
  Te  Te161  1  0.16755001  0.77882277  0.85730466  1
  Te  Te162  1  0.58338566  0.10325661  0.28683354  1
  Te  Te163  1  0.62665371  0.04527104  0.55906688  1
  Te  Te164  1  0.54516629  0.06821321  0.91184661  1
  Te  Te165  1  0.56837494  0.42774711  0.25600553  1
  Te  Te166  1  0.56537992  0.42145174  0.58383593  1
  Te  Te167  1  0.64017645  0.34797658  0.86558674  1
  Te  Te168  1  0.57980366  0.75551368  0.22938384  1
  Te  Te169  1  0.59250382  0.74951704  0.60406116  1
  Te  Te170  1  0.58538591  0.76988222  0.89851805  1
  Te  Te171  1  0.90887187  0.09220478  0.27751687  1
  Te  Te172  1  0.93295636  0.07755184  0.58980110  1
  Te  Te173  1  0.93925293  0.07121045  0.91564942  1
  Te  Te174  1  0.88504761  0.38996251  0.25401272  1
  Te  Te175  1  0.91009351  0.40444666  0.60151019  1
  Te  Te176  1  0.89634226  0.41970205  0.89920924  1
  Te  Te177  1  0.91825645  0.74838648  0.24086076  1
  Te  Te178  1  0.92222779  0.75370622  0.59068706  1
  Te  Te179  1  0.91899577  0.77209723  0.92029788  1
