# generated using pymatgen
data_In2Te3
_symmetry_space_group_name_H-M   'P 1'
_cell_length_a   18.77807492
_cell_length_b   18.76473640
_cell_length_c   18.75989201
_cell_angle_alpha   90.01884198
_cell_angle_beta   89.97353686
_cell_angle_gamma   89.94347456
_symmetry_Int_Tables_number   1
_chemical_formula_structural   In2Te3
_chemical_formula_sum   'In72 Te108'
_cell_volume   6610.33680935
_cell_formula_units_Z   36
loop_
 _symmetry_equiv_pos_site_id
 _symmetry_equiv_pos_as_xyz
  1  'x, y, z'
loop_
 _atom_site_type_symbol
 _atom_site_label
 _atom_site_symmetry_multiplicity
 _atom_site_fract_x
 _atom_site_fract_y
 _atom_site_fract_z
 _atom_site_occupancy
  In  In0  1  0.50078759  0.17929630  0.34918565  1
  In  In1  1  0.51509048  0.16698270  0.68638077  1
  In  In2  1  0.50786339  0.47900933  0.66772806  1
  In  In3  1  -0.00229004  -0.00730958  0.30638712  1
  In  In4  1  0.00826817  0.81875512  0.50364495  1
  In  In5  1  0.84241843  0.83285525  0.00262450  1
  In  In6  1  0.69577995  0.33032992  0.63124909  1
  In  In7  1  0.67014135  0.64629494  0.00242041  1
  In  In8  1  0.16483678  0.66852798  0.81617019  1
  In  In9  1  0.33134951  0.50527653  0.18536814  1
  In  In10  1  0.84577967  0.01247811  0.51294004  1
  In  In11  1  0.52456889  0.33909039  0.19627293  1
  In  In12  1  -0.00259241  0.18303145  0.52420149  1
  In  In13  1  0.52889898  0.14330270  0.01030296  1
  In  In14  1  0.18745155  0.49968961  0.00404966  1
  In  In15  1  0.67136773  0.01642773  0.35390020  1
  In  In16  1  0.00734890  0.66083312  0.00548069  1
  In  In17  1  0.84784747  0.00334010  0.16413040  1
  In  In18  1  0.17629911  0.33996037  0.15210699  1
  In  In19  1  0.14378840  0.32404642  0.81760567  1
  In  In20  1  0.82595174  0.48787663  0.34625639  1
  In  In21  1  0.69557414  0.18206909  0.16916314  1
  In  In22  1  0.15219904  -0.02824182  0.48292852  1
  In  In23  1  -0.02211082  -0.00429056  -0.01032089  1
  In  In24  1  0.50292648  0.65123020  0.17460225  1
  In  In25  1  0.83465462  0.02750188  0.83210623  1
  In  In26  1  0.66019578  0.02171019  0.01752595  1
  In  In27  1  0.82326859  0.80740229  0.33522236  1
  In  In28  1  0.30817828  0.16996119  0.17500160  1
  In  In29  1  0.51458415  0.35270458  0.84744392  1
  In  In30  1  0.83836234  0.29593421  0.82787797  1
  In  In31  1  0.47247556  0.81562405  0.33690505  1
  In  In32  1  0.32442602  0.16490038  0.84590970  1
  In  In33  1  0.66095367  0.82108081  0.47631735  1
  In  In34  1  0.01081188  0.50908321  0.53805417  1
  In  In35  1  0.28470252  0.68093704  0.63058193  1
  In  In36  1  0.01131004  0.81488713  0.81520660  1
  In  In37  1  0.51562058  0.34075388  0.48801749  1
  In  In38  1  0.15868677  -0.01401340  0.17754867  1
  In  In39  1  0.49975339  0.02266401  0.87033575  1
  In  In40  1  0.31336931  0.86144975  0.81016962  1
  In  In41  1  0.85344131  0.83230323  0.65476783  1
  In  In42  1  0.15531977  0.50863488  0.34944958  1
  In  In43  1  0.30628646  -0.00655571  0.65242809  1
  In  In44  1  0.48610214  0.01744581  0.52992449  1
  In  In45  1  0.33950312  0.33139416  0.02094889  1
  In  In46  1  0.33247813  0.16680799  0.50069918  1
  In  In47  1  0.15205662  0.83374449  0.00007547  1
  In  In48  1  0.49809812  0.65817477  0.83542801  1
  In  In49  1  0.68975066  0.65500756  0.33739004  1
  In  In50  1  0.83510748  0.49550624  0.00490302  1
  In  In51  1  0.66569231  0.82797878  0.82413671  1
  In  In52  1  0.34174818  0.66019567  0.01075337  1
  In  In53  1  -0.01958570  0.51732218  0.78542417  1
  In  In54  1  0.82687463  0.34686054  0.17655869  1
  In  In55  1  0.68011884  0.02847084  0.66787974  1
  In  In56  1  0.69211189  0.47601693  0.83433440  1
  In  In57  1  0.00699950  0.66419381  0.32320207  1
  In  In58  1  0.16660019  0.18491781  0.35450252  1
  In  In59  1  0.51174863  0.65302240  0.49443392  1
  In  In60  1  0.48724813  0.83438443  0.67566701  1
  In  In61  1  0.31256930  0.53960378  0.83424529  1
  In  In62  1  0.30622021  0.79033140  0.19368218  1
  In  In63  1  0.32802091  0.00466371  -0.01906542  1
  In  In64  1  0.01431939  0.33238193  -0.01229629  1
  In  In65  1  0.49553220  -0.02067944  0.18581711  1
  In  In66  1  0.70737421  0.63592466  0.64112118  1
  In  In67  1  -0.01770242  0.16165086  0.15890412  1
  In  In68  1  0.67226463  0.82916782  0.14501199  1
  In  In69  1  0.34452872  0.49578513  0.49076361  1
  In  In70  1  -0.01508370  0.33197073  0.34824694  1
  In  In71  1  0.31180664  0.34547173  0.65730671  1
  Te  Te72  1  0.07926773  0.07350625  0.08090988  1
  Te  Te73  1  0.05871105  0.08826897  0.41152380  1
  Te  Te74  1  0.05032407  0.14703566  0.70152982  1
  Te  Te75  1  0.07620076  0.43363069  0.08524366  1
  Te  Te76  1  0.07949643  0.40765225  0.43857064  1
  Te  Te77  1  0.06070739  0.40550383  0.72026860  1
  Te  Te78  1  0.09092261  0.74239368  0.09703610  1
  Te  Te79  1  0.10173891  0.73079968  0.42380476  1
  Te  Te80  1  0.07680613  0.72896220  0.70825559  1
  Te  Te81  1  0.40998434  0.08259588  0.09344031  1
  Te  Te82  1  0.40876819  0.07171728  0.40845306  1
  Te  Te83  1  0.41151819  0.06918543  0.74510263  1
  Te  Te84  1  0.42879316  0.42194582  0.10106800  1
  Te  Te85  1  0.43428114  0.42424651  0.39248169  1
  Te  Te86  1  0.40188440  0.41950378  0.76156716  1
  Te  Te87  1  0.42205679  0.75658678  0.09692400  1
  Te  Te88  1  0.39910715  0.71827473  0.42098392  1
  Te  Te89  1  0.39496363  0.73738672  0.75011473  1
  Te  Te90  1  0.77946682  0.10051801  0.06764431  1
  Te  Te91  1  0.75678922  0.10653290  0.43705264  1
  Te  Te92  1  0.76575050  0.12490416  0.74153027  1
  Te  Te93  1  0.73479575  0.41703922  0.08214883  1
  Te  Te94  1  0.75333330  0.42363703  0.46037566  1
  Te  Te95  1  0.78203018  0.41125775  0.73006429  1
  Te  Te96  1  0.77034922  0.72895926  0.08920919  1
  Te  Te97  1  0.77180175  0.72013100  0.44984609  1
  Te  Te98  1  0.76077239  0.74460719  0.74334308  1
  Te  Te99  1  0.07918934  0.25123122  0.24090915  1
  Te  Te100  1  0.07611542  0.27504964  0.61259502  1
  Te  Te101  1  0.07748037  0.22462295  0.90660128  1
  Te  Te102  1  0.08644936  0.57274874  0.23559771  1
  Te  Te103  1  0.10173581  0.60806806  0.60806718  1
  Te  Te104  1  0.08706691  0.56470087  0.89968605  1
  Te  Te105  1  0.09856104  0.88660617  0.27346181  1
  Te  Te106  1  0.06103303  0.92747347  0.59049643  1
  Te  Te107  1  0.08018461  0.92268734  0.90012670  1
  Te  Te108  1  0.40602418  0.25521544  0.25386884  1
  Te  Te109  1  0.42776906  0.25673765  0.59209457  1
  Te  Te110  1  0.43126978  0.24240390  0.92345195  1
  Te  Te111  1  0.39981479  0.60652174  0.27112528  1
  Te  Te112  1  0.41815347  0.58467621  0.60329881  1
  Te  Te113  1  0.42879488  0.56213762  0.93313895  1
  Te  Te114  1  0.38174794  0.91117343  0.25864758  1
  Te  Te115  1  0.39891458  0.89854586  0.56969148  1
  Te  Te116  1  0.41870081  0.89940329  0.91430992  1
  Te  Te117  1  0.74713697  0.26931769  0.27723478  1
  Te  Te118  1  0.78056034  0.23420485  0.55611267  1
  Te  Te119  1  0.72580201  0.23681332  0.90025742  1
  Te  Te120  1  0.76064842  0.57071409  0.24024001  1
  Te  Te121  1  0.79314560  0.53505257  0.55937462  1
  Te  Te122  1  0.76902870  0.59015505  0.89990428  1
  Te  Te123  1  0.74325060  0.92479221  0.24993978  1
  Te  Te124  1  0.73793524  0.91233002  0.57972808  1
  Te  Te125  1  0.74734643  0.91981748  0.91872563  1
  Te  Te126  1  0.23057079  0.22992027  0.05805190  1
  Te  Te127  1  0.25439722  0.27277638  0.43333654  1
  Te  Te128  1  0.24468514  0.23334313  0.73675479  1
  Te  Te129  1  0.23821314  0.60089525  0.10585698  1
  Te  Te130  1  0.25535052  0.59347342  0.42092500  1
  Te  Te131  1  0.21957548  0.56003608  0.71314923  1
  Te  Te132  1  0.25866778  0.91018197  0.08346476  1
  Te  Te133  1  0.25681576  0.88252532  0.42960804  1
  Te  Te134  1  0.20392076  0.91429067  0.72736896  1
  Te  Te135  1  0.59588319  0.26197657  0.08416608  1
  Te  Te136  1  0.61063199  0.26641517  0.39760103  1
  Te  Te137  1  0.60020751  0.27915455  0.74445277  1
  Te  Te138  1  0.60019186  0.56520092  0.10567879  1
  Te  Te139  1  0.58077082  0.56551587  0.39171453  1
  Te  Te140  1  0.59642324  0.57692415  0.75012740  1
  Te  Te141  1  0.56692076  0.91090911  0.06914319  1
  Te  Te142  1  0.56386014  0.92435589  0.41813521  1
  Te  Te143  1  0.58112918  0.93248753  0.74790659  1
  Te  Te144  1  0.90721237  0.26283026  0.07348087  1
  Te  Te145  1  0.89323138  0.27007946  0.45141477  1
  Te  Te146  1  0.94698228  0.25557403  0.72717395  1
  Te  Te147  1  0.92000842  0.57918948  0.09244970  1
  Te  Te148  1  0.93192809  0.57332426  0.41993482  1
  Te  Te149  1  0.90275342  0.60862777  0.69752319  1
  Te  Te150  1  0.93945989  0.89786577  0.10201932  1
  Te  Te151  1  0.90778806  0.91233646  0.41240825  1
  Te  Te152  1  0.92194909  0.92441375  0.75345410  1
  Te  Te153  1  0.23990297  0.07599194  0.27339626  1
  Te  Te154  1  0.22230446  0.08700935  0.56733024  1
  Te  Te155  1  0.22700473  0.06386489  0.89156498  1
  Te  Te156  1  0.24732097  0.40734493  0.26646106  1
  Te  Te157  1  0.23353570  0.42559526  0.56219714  1
  Te  Te158  1  0.25310929  0.40021424  0.90796605  1
  Te  Te159  1  0.20567615  0.76244519  0.29922150  1
  Te  Te160  1  0.22646809  0.79570208  0.55446079  1
  Te  Te161  1  0.25405334  0.74644639  0.91595271  1
  Te  Te162  1  0.58649506  0.09026789  0.23959377  1
  Te  Te163  1  0.59758314  0.11292510  0.56788256  1
  Te  Te164  1  0.62695844  0.11371404  0.88937341  1
  Te  Te165  1  0.57171675  0.43550537  0.29861622  1
  Te  Te166  1  0.60554596  0.44313343  0.55943309  1
  Te  Te167  1  0.59902709  0.42973874  0.93990825  1
  Te  Te168  1  0.59657559  0.76137833  0.26144364  1
  Te  Te169  1  0.58708336  0.74938408  0.59512702  1
  Te  Te170  1  0.58258691  0.74868371  0.92512172  1
  Te  Te171  1  0.89531057  0.10325060  0.27056034  1
  Te  Te172  1  0.92426489  0.08552765  0.61745154  1
  Te  Te173  1  0.93189638  0.11092470  0.90786324  1
  Te  Te174  1  0.93325623  0.43103606  0.24660046  1
  Te  Te175  1  0.89706207  0.42739978  0.59115305  1
  Te  Te176  1  0.92230773  0.41682107  0.89690193  1
  Te  Te177  1  0.91835487  0.75135563  0.23925286  1
  Te  Te178  1  0.92473371  0.71887606  0.58463846  1
  Te  Te179  1  0.91740788  0.73864740  0.90706664  1
