# generated using pymatgen
data_In2Te3
_symmetry_space_group_name_H-M   'P 1'
_cell_length_a   19.03945993
_cell_length_b   19.01976566
_cell_length_c   19.00823678
_cell_angle_alpha   90.01611549
_cell_angle_beta   90.34002062
_cell_angle_gamma   90.04086254
_symmetry_Int_Tables_number   1
_chemical_formula_structural   In2Te3
_chemical_formula_sum   'In72 Te108'
_cell_volume   6883.25477121
_cell_formula_units_Z   36
loop_
 _symmetry_equiv_pos_site_id
 _symmetry_equiv_pos_as_xyz
  1  'x, y, z'
loop_
 _atom_site_type_symbol
 _atom_site_label
 _atom_site_symmetry_multiplicity
 _atom_site_fract_x
 _atom_site_fract_y
 _atom_site_fract_z
 _atom_site_occupancy
  In  In0  1  0.16353579  -0.00178275  0.15663545  1
  In  In1  1  0.69011434  0.17846635  0.82616945  1
  In  In2  1  0.64625763  0.64243426  0.69538618  1
  In  In3  1  0.00189427  0.15435740  0.17053035  1
  In  In4  1  0.19184176  0.48974184  0.34036850  1
  In  In5  1  0.53953644  0.36041874  0.48256951  1
  In  In6  1  -0.02627593  0.34773339  -0.00170152  1
  In  In7  1  0.32871848  0.32829442  0.00160087  1
  In  In8  1  0.81717399  0.21551038  0.31213702  1
  In  In9  1  0.80414609  0.52015398  0.33015366  1
  In  In10  1  0.20460316  0.49449548  0.66669510  1
  In  In11  1  0.83822654  -0.01151295  0.15440145  1
  In  In12  1  0.51182836  0.15050829  0.65688588  1
  In  In13  1  -0.02550515  0.66402203  0.31314403  1
  In  In14  1  0.30685586  0.15778550  0.15102490  1
  In  In15  1  -0.01585249  0.48928222  0.84787347  1
  In  In16  1  0.52100585  0.36049363  0.17294663  1
  In  In17  1  0.54251536  0.78841361  0.29733720  1
  In  In18  1  0.35522181  0.64291319  0.65831706  1
  In  In19  1  0.65787370  0.18678747  0.49799357  1
  In  In20  1  0.64787235  0.00943899  0.01293640  1
  In  In21  1  0.35248768  -0.00144816  0.31602263  1
  In  In22  1  0.16152154  0.82767222  0.67630703  1
  In  In23  1  0.15491246  0.85705384  0.34871135  1
  In  In24  1  0.34922793  0.48980771  0.18251216  1
  In  In25  1  0.64636535  0.38468721  0.00944196  1
  In  In26  1  0.16988214  0.66065294  0.47383106  1
  In  In27  1  0.82193977  -0.01172774  0.50848782  1
  In  In28  1  0.16823568  0.30880764  0.82200260  1
  In  In29  1  0.50171917  -0.02102799  0.84421813  1
  In  In30  1  0.16167769  0.84267070  0.00653903  1
  In  In31  1  0.30819391  0.15607852  0.82394744  1
  In  In32  1  0.66958537  0.34125811  0.68082323  1
  In  In33  1  -0.00346837  -0.00177871  0.34771610  1
  In  In34  1  0.33899217  0.64896723  0.30274454  1
  In  In35  1  0.83790390  -0.00230985  0.80747861  1
  In  In36  1  0.35481125  0.51785117  0.83447752  1
  In  In37  1  -0.00593081  0.50835090  0.48383546  1
  In  In38  1  0.67055882  0.83783509  0.49344720  1
  In  In39  1  0.51391489  0.83355784  0.68014252  1
  In  In40  1  0.85351936  0.18345238  0.65640279  1
  In  In41  1  0.50085797  0.17741506  0.32426591  1
  In  In42  1  0.36516767  0.81302509  0.50216410  1
  In  In43  1  0.73641516  0.62128882  0.01582988  1
  In  In44  1  -0.03303684  0.67266335  -0.01560675  1
  In  In45  1  0.82104695  0.18726797  0.00297655  1
  In  In46  1  0.31096388  -0.01580063  -0.00393937  1
  In  In47  1  0.83338917  0.83044480  -0.01733614  1
  In  In48  1  0.15732483  0.48626503  0.00525376  1
  In  In49  1  0.66945869  0.00231334  0.33685709  1
  In  In50  1  -0.00287676  0.32217639  0.31601193  1
  In  In51  1  0.17355603  0.02563615  0.48748399  1
  In  In52  1  0.48129313  0.65531705  0.82834784  1
  In  In53  1  0.48842109  -0.00793654  0.18514284  1
  In  In54  1  -0.00732737  0.34422466  0.66478262  1
  In  In55  1  -0.02766576  0.84510274  0.51416286  1
  In  In56  1  0.29954588  0.83110214  0.85177159  1
  In  In57  1  0.49453191  0.77411578  0.05541612  1
  In  In58  1  0.34961387  0.16942224  0.50564857  1
  In  In59  1  0.82102361  0.50370469  0.67186476  1
  In  In60  1  0.35368969  0.33165658  0.34626955  1
  In  In61  1  0.00846385  0.01198103  0.67343441  1
  In  In62  1  0.48930594  0.19265638  0.00346106  1
  In  In63  1  -0.00409006  0.16856633  0.82566376  1
  In  In64  1  0.51905091  0.62687646  0.49349457  1
  In  In65  1  0.01684125  0.68693415  0.66532615  1
  In  In66  1  0.15637383  0.67145904  0.16116969  1
  In  In67  1  0.32555028  -0.03200298  0.65922281  1
  In  In68  1  -0.02391272  0.51854774  0.15019796  1
  In  In69  1  0.66288325  0.81943613  0.83817787  1
  In  In70  1  0.78889579  0.79472921  0.31063267  1
  In  In71  1  0.18220211  0.33504050  0.53396150  1
  Te  Te72  1  0.06550282  0.06657449  0.06825712  1
  Te  Te73  1  0.07344949  0.10216677  0.41527139  1
  Te  Te74  1  0.09573208  0.10954882  0.73794600  1
  Te  Te75  1  0.06940607  0.41009807  0.10028647  1
  Te  Te76  1  0.09363797  0.41100999  0.42400564  1
  Te  Te77  1  0.09104263  0.42668300  0.75095559  1
  Te  Te78  1  0.06205261  0.75220250  0.07764959  1
  Te  Te79  1  0.06263545  0.75149948  0.41622599  1
  Te  Te80  1  0.08092275  0.75984006  0.77578733  1
  Te  Te81  1  0.41760952  0.07588052  0.07201480  1
  Te  Te82  1  0.43310142  0.07966028  0.41603589  1
  Te  Te83  1  0.41361491  0.06173484  0.75241774  1
  Te  Te84  1  0.42572044  0.42274842  0.07037919  1
  Te  Te85  1  0.44779072  0.43182710  0.39307225  1
  Te  Te86  1  0.46138473  0.43622574  0.77802782  1
  Te  Te87  1  0.41792423  0.69939244  0.15583597  1
  Te  Te88  1  0.44055366  0.72474609  0.40557185  1
  Te  Te89  1  0.39699116  0.76758372  0.74664676  1
  Te  Te90  1  0.74449595  0.09338001  0.09344662  1
  Te  Te91  1  0.75720428  0.09430003  0.41945596  1
  Te  Te92  1  0.75372575  0.09030206  0.72189779  1
  Te  Te93  1  0.74978839  0.41917915  0.11462812  1
  Te  Te94  1  0.71367231  0.43955677  0.41284911  1
  Te  Te95  1  0.75976407  0.41581649  0.77375806  1
  Te  Te96  1  0.73016689  0.76290175  0.06346505  1
  Te  Te97  1  0.72318947  0.72107843  0.41913711  1
  Te  Te98  1  0.74804689  0.72581744  0.76544627  1
  Te  Te99  1  0.09326526  0.23241532  0.25456482  1
  Te  Te100  1  0.08054413  0.25134952  0.59544893  1
  Te  Te101  1  0.07020728  0.25713572  0.92576445  1
  Te  Te102  1  0.08991345  0.57261043  0.26219372  1
  Te  Te103  1  0.09859196  0.57424209  0.57604681  1
  Te  Te104  1  0.07574750  0.58381218  0.92403029  1
  Te  Te105  1  0.06531929  0.91450239  0.24256830  1
  Te  Te106  1  0.09580487  0.91632785  0.56573928  1
  Te  Te107  1  0.11895693  0.96815547  0.94307454  1
  Te  Te108  1  0.41370538  0.24794999  0.22299806  1
  Te  Te109  1  0.45500410  0.25781110  0.56573293  1
  Te  Te110  1  0.40551878  0.25350750  0.89570944  1
  Te  Te111  1  0.45509109  0.57473898  0.24688548  1
  Te  Te112  1  0.45446499  0.55179544  0.60315072  1
  Te  Te113  1  0.39064402  0.61677217  0.93753116  1
  Te  Te114  1  0.41986141  0.87922424  0.25680780  1
  Te  Te115  1  0.44236891  0.92044053  0.57617781  1
  Te  Te116  1  0.41728951  0.89329280  0.93300683  1
  Te  Te117  1  0.74981578  0.30256366  0.21630408  1
  Te  Te118  1  0.75537121  0.26933758  0.57822254  1
  Te  Te119  1  0.73006649  0.28094960  0.92816276  1
  Te  Te120  1  0.71480753  0.59375936  0.23084013  1
  Te  Te121  1  0.71784906  0.56941583  0.58824556  1
  Te  Te122  1  0.75519404  0.53194412  0.89914499  1
  Te  Te123  1  0.73243295  0.91301973  0.23322723  1
  Te  Te124  1  0.75921431  0.89194835  0.59720470  1
  Te  Te125  1  0.73605067  0.93912638  0.91251731  1
  Te  Te126  1  0.22805567  0.24518997  0.06591196  1
  Te  Te127  1  0.25429024  0.24954667  0.42251033  1
  Te  Te128  1  0.27685788  0.26797164  0.73428228  1
  Te  Te129  1  0.24466883  0.56681984  0.09861485  1
  Te  Te130  1  0.28241393  0.57242788  0.42847091  1
  Te  Te131  1  0.24910401  0.60595002  0.75676805  1
  Te  Te132  1  0.26545915  0.89853524  0.10993716  1
  Te  Te133  1  0.27300944  0.91629395  0.42698306  1
  Te  Te134  1  0.22610851  0.93260847  0.76581510  1
  Te  Te135  1  0.59221656  0.25751260  0.08777793  1
  Te  Te136  1  0.60683063  0.26829950  0.38002709  1
  Te  Te137  1  0.57526433  0.24699464  0.75526182  1
  Te  Te138  1  0.61646171  0.58913206  0.09934903  1
  Te  Te139  1  0.63653126  0.57064122  0.42061801  1
  Te  Te140  1  0.58566940  0.54938186  0.79852160  1
  Te  Te141  1  0.56727828  0.90686463  0.08815355  1
  Te  Te142  1  0.57352737  0.90234492  0.39670532  1
  Te  Te143  1  0.60620819  0.93112299  0.74691836  1
  Te  Te144  1  0.91144757  0.25771989  0.10136729  1
  Te  Te145  1  0.90564405  0.26698147  0.41492765  1
  Te  Te146  1  0.90467126  0.27397033  0.76709919  1
  Te  Te147  1  0.87829637  0.61211178  0.09018482  1
  Te  Te148  1  0.89512453  0.60556959  0.42623755  1
  Te  Te149  1  0.93278865  0.58004831  0.73948587  1
  Te  Te150  1  0.92034182  0.92486184  0.05356609  1
  Te  Te151  1  0.88761194  0.89811395  0.39786277  1
  Te  Te152  1  0.94364132  0.91217310  0.75644792  1
  Te  Te153  1  0.23901523  0.08113121  0.26195523  1
  Te  Te154  1  0.25850126  0.08891356  0.59561902  1
  Te  Te155  1  0.22685566  0.08618221  0.92739443  1
  Te  Te156  1  0.25370907  0.39174608  0.24454581  1
  Te  Te157  1  0.29368614  0.41399317  0.58633034  1
  Te  Te158  1  0.24681264  0.42094297  0.90190411  1
  Te  Te159  1  0.22955944  0.74865768  0.26999248  1
  Te  Te160  1  0.25101231  0.74701405  0.57664700  1
  Te  Te161  1  0.25038859  0.73769923  0.95227614  1
  Te  Te162  1  0.59061023  0.08947752  0.24014144  1
  Te  Te163  1  0.59519872  0.07442205  0.56588172  1
  Te  Te164  1  0.57862536  0.09960696  0.90931226  1
  Te  Te165  1  0.64035318  0.43976034  0.22165759  1
  Te  Te166  1  0.58979553  0.43697006  0.59972171  1
  Te  Te167  1  0.55137838  0.42855478  0.90430239  1
  Te  Te168  1  0.62773703  0.71589803  0.19353175  1
  Te  Te169  1  0.58042431  0.73834708  0.58613753  1
  Te  Te170  1  0.56660366  0.74236335  0.92274010  1
  Te  Te171  1  0.89852065  0.08630316  0.26237630  1
  Te  Te172  1  0.92495953  0.08208456  0.56893339  1
  Te  Te173  1  0.89713037  0.09327571  0.91071206  1
  Te  Te174  1  0.91459188  0.44029106  0.26254050  1
  Te  Te175  1  0.90543462  0.42336623  0.57015948  1
  Te  Te176  1  0.87947804  0.45413880  0.94895941  1
  Te  Te177  1  0.89915793  0.75215634  0.22583240  1
  Te  Te178  1  0.90349927  0.74405628  0.59210538  1
  Te  Te179  1  0.87728188  0.73156116  0.88210783  1
