# generated using pymatgen
data_In2Te3
_symmetry_space_group_name_H-M   'P 1'
_cell_length_a   18.88232097
_cell_length_b   18.89276404
_cell_length_c   18.90270498
_cell_angle_alpha   90.09018110
_cell_angle_beta   90.04710297
_cell_angle_gamma   89.95003291
_symmetry_Int_Tables_number   1
_chemical_formula_structural   In2Te3
_chemical_formula_sum   'In72 Te108'
_cell_volume   6743.32332055
_cell_formula_units_Z   36
loop_
 _symmetry_equiv_pos_site_id
 _symmetry_equiv_pos_as_xyz
  1  'x, y, z'
loop_
 _atom_site_type_symbol
 _atom_site_label
 _atom_site_symmetry_multiplicity
 _atom_site_fract_x
 _atom_site_fract_y
 _atom_site_fract_z
 _atom_site_occupancy
  In  In0  1  0.83948460  0.36319149  0.14824955  1
  In  In1  1  0.16054356  0.49862462  0.01418141  1
  In  In2  1  0.69974197  0.84781118  0.81118033  1
  In  In3  1  -0.00880692  -0.00099962  0.34331500  1
  In  In4  1  0.87941315  0.13624994  0.66962794  1
  In  In5  1  0.50609037  0.83740669  0.01725333  1
  In  In6  1  0.32763932  0.84210006  0.15833764  1
  In  In7  1  0.13325523  0.79489328  0.35167015  1
  In  In8  1  0.84371513  -0.01464936  0.14383113  1
  In  In9  1  0.17371412  0.14602846  0.37164417  1
  In  In10  1  0.86259611  0.81216263  0.33006847  1
  In  In11  1  0.88203835  0.83306725  0.63867866  1
  In  In12  1  0.50797533  -0.00784365  0.51395209  1
  In  In13  1  0.31583545  0.34407428  0.66567369  1
  In  In14  1  0.49914077  0.83644975  0.34962118  1
  In  In15  1  0.68159960  0.14537769  0.50454637  1
  In  In16  1  0.31767766  0.30880589  0.32438223  1
  In  In17  1  0.48168956  0.83641631  0.69161423  1
  In  In18  1  0.33885609  0.49314276  0.16991568  1
  In  In19  1  0.69877150  0.32981063  -0.01747257  1
  In  In20  1  0.67692741  0.34375631  0.34980943  1
  In  In21  1  0.33491194  0.17004234  0.52924271  1
  In  In22  1  0.67445438  0.65642583  -0.02752999  1
  In  In23  1  0.15620596  0.16088088  -0.01180974  1
  In  In24  1  0.11140913  0.54760653  0.34096857  1
  In  In25  1  0.64348713  0.31343773  0.68350725  1
  In  In26  1  0.11998741  0.11812289  0.67591661  1
  In  In27  1  0.32375138  -0.01711604  0.00593980  1
  In  In28  1  0.33916105  0.17139880  0.82816768  1
  In  In29  1  0.84341401  0.66430604  0.15034406  1
  In  In30  1  0.49213422  0.65995118  0.48146833  1
  In  In31  1  0.49890771  0.67689428  0.81323043  1
  In  In32  1  0.70762333  0.50758263  0.84650089  1
  In  In33  1  0.51947487  0.02410022  0.17446917  1
  In  In34  1  -0.03032697  0.46877940  0.84920868  1
  In  In35  1  0.30366760  0.66481616  -0.03147069  1
  In  In36  1  0.84803739  0.01907671  0.83562171  1
  In  In37  1  0.83147230  0.15712332  0.35706545  1
  In  In38  1  -0.00350561  0.31509221  0.68929326  1
  In  In39  1  0.52233587  0.49483525  0.00689834  1
  In  In40  1  0.15768229  0.35573583  0.17700365  1
  In  In41  1  0.32952011  0.64575937  0.32610513  1
  In  In42  1  0.49988161  0.50177218  0.65735595  1
  In  In43  1  0.70515573  0.17648408  0.14254652  1
  In  In44  1  0.84935975  0.51968083  0.67534918  1
  In  In45  1  0.29914121  0.50280325  0.51018781  1
  In  In46  1  0.68990909  0.48663070  0.50580780  1
  In  In47  1  0.16659642  0.01071051  0.17874259  1
  In  In48  1  0.67689416  0.85344906  0.51263268  1
  In  In49  1  0.51382772  0.48515521  0.33032029  1
  In  In50  1  0.31039068  -0.03906411  0.37076263  1
  In  In51  1  -0.01074205  0.33029702  0.31737212  1
  In  In52  1  0.50684156  0.13872736  0.31886419  1
  In  In53  1  0.52800257  0.33258679  0.14327704  1
  In  In54  1  0.52388228  0.00132039  0.86788806  1
  In  In55  1  0.30335910  0.50659365  0.84055605  1
  In  In56  1  0.00323900  0.67978924  0.00370504  1
  In  In57  1  0.14525694  0.66988088  0.80146120  1
  In  In58  1  0.68353625  0.70019209  0.66196604  1
  In  In59  1  0.67752614  0.84344557  0.16854201  1
  In  In60  1  0.83371281  0.33573018  0.49215159  1
  In  In61  1  0.32150969  -0.00027066  0.69321258  1
  In  In62  1  0.28913315  0.83905196  0.82224062  1
  In  In63  1  0.49552155  0.30316869  0.83582164  1
  In  In64  1  0.27611154  0.81137471  0.53839836  1
  In  In65  1  0.68559536  0.70296574  0.29871116  1
  In  In66  1  0.15287844  0.31985424  0.83607552  1
  In  In67  1  -0.00165356  0.19138200  0.15248160  1
  In  In68  1  0.46332294  0.31014516  0.49636731  1
  In  In69  1  -0.01865283  0.52562848  0.47920231  1
  In  In70  1  0.86601986  0.84552398  -0.01554530  1
  In  In71  1  0.33138360  0.15993336  0.14718029  1
  Te  Te72  1  0.06982669  0.07399334  0.08050130  1
  Te  Te73  1  0.06701906  0.07806341  0.44751977  1
  Te  Te74  1  0.03961531  0.10495091  0.80651743  1
  Te  Te75  1  0.05787466  0.42714428  0.09524644  1
  Te  Te76  1  0.07146506  0.42075298  0.41302800  1
  Te  Te77  1  0.08154973  0.42409323  0.75224827  1
  Te  Te78  1  0.10798475  0.71059678  0.10246211  1
  Te  Te79  1  0.03049268  0.73638731  0.44512129  1
  Te  Te80  1  0.09850663  0.78183360  0.71436996  1
  Te  Te81  1  0.42747144  0.07929836  0.06323126  1
  Te  Te82  1  0.41068007  0.08138471  0.42467846  1
  Te  Te83  1  0.43292211  0.07330437  0.76112066  1
  Te  Te84  1  0.41458796  0.40695527  0.07127477  1
  Te  Te85  1  0.40393240  0.42873798  0.41906736  1
  Te  Te86  1  0.41522358  0.42187934  0.75541923  1
  Te  Te87  1  0.39837214  0.74325612  0.06631716  1
  Te  Te88  1  0.38924163  0.75801239  0.42100320  1
  Te  Te89  1  0.37770712  0.73914889  0.74412782  1
  Te  Te90  1  0.78812057  0.09064614  0.05753844  1
  Te  Te91  1  0.78171515  0.05400036  0.44879852  1
  Te  Te92  1  0.76287735  0.05990447  0.71860635  1
  Te  Te93  1  0.73578896  0.43736187  0.07484748  1
  Te  Te94  1  0.78611510  0.44317506  0.39542757  1
  Te  Te95  1  0.74515657  0.41864970  0.72975378  1
  Te  Te96  1  0.75293152  0.76261365  0.06478789  1
  Te  Te97  1  0.75068136  0.75247304  0.42556096  1
  Te  Te98  1  0.78693003  0.73961649  0.75974497  1
  Te  Te99  1  0.10481312  0.23209227  0.26321300  1
  Te  Te100  1  0.07681185  0.23423636  0.59668884  1
  Te  Te101  1  0.05867580  0.25593660  0.93017772  1
  Te  Te102  1  0.06471107  0.62322132  0.22120680  1
  Te  Te103  1  0.04969312  0.60064669  0.58747763  1
  Te  Te104  1  0.08301573  0.57130158  0.90703831  1
  Te  Te105  1  0.08593828  0.91259546  0.26081460  1
  Te  Te106  1  0.00203330  0.93119820  0.63878020  1
  Te  Te107  1  0.11377772  0.98610255  0.86128380  1
  Te  Te108  1  0.43581560  0.25443515  0.23909113  1
  Te  Te109  1  0.42715574  0.24251804  0.62564862  1
  Te  Te110  1  0.40454670  0.24700127  0.93506659  1
  Te  Te111  1  0.43938660  0.58361780  0.24048938  1
  Te  Te112  1  0.40181302  0.59181048  0.58328720  1
  Te  Te113  1  0.42767799  0.58323394  0.91100939  1
  Te  Te114  1  0.42227599  0.92688436  0.24723936  1
  Te  Te115  1  0.39689723  0.91143065  0.58225411  1
  Te  Te116  1  0.40971720  0.89652377  0.90674284  1
  Te  Te117  1  0.77057893  0.26366558  0.25907046  1
  Te  Te118  1  0.75243494  0.25198835  0.58802666  1
  Te  Te119  1  0.78584316  0.25736625  0.88840227  1
  Te  Te120  1  0.75332581  0.58879190  0.24031997  1
  Te  Te121  1  0.76209348  0.59894759  0.57587328  1
  Te  Te122  1  0.80022317  0.60348533  0.91306622  1
  Te  Te123  1  0.77213408  0.91602095  0.26001537  1
  Te  Te124  1  0.75821668  0.91823265  0.61824941  1
  Te  Te125  1  0.75415303  0.93019776  0.92367777  1
  Te  Te126  1  0.23383524  0.25496491  0.08686644  1
  Te  Te127  1  0.24214643  0.26071048  0.44746223  1
  Te  Te128  1  0.23079593  0.22979684  0.73853479  1
  Te  Te129  1  0.25068923  0.59202401  0.09476215  1
  Te  Te130  1  0.22329001  0.60596254  0.42712867  1
  Te  Te131  1  0.24338225  0.58251046  0.73196613  1
  Te  Te132  1  0.21524803  0.90507505  0.07668254  1
  Te  Te133  1  0.19366920  0.90272059  0.44871338  1
  Te  Te134  1  0.19930264  0.91460946  0.72723934  1
  Te  Te135  1  0.59468373  0.23139493  0.05255108  1
  Te  Te136  1  0.57710256  0.24614539  0.41141267  1
  Te  Te137  1  0.60422656  0.21169090  0.78776736  1
  Te  Te138  1  0.59018687  0.60216127  0.07900890  1
  Te  Te139  1  0.60088913  0.57912692  0.41494388  1
  Te  Te140  1  0.59806948  0.58830090  0.73715448  1
  Te  Te141  1  0.60142864  0.93910859  0.07627276  1
  Te  Te142  1  0.60033936  0.93419533  0.40687695  1
  Te  Te143  1  0.58717314  0.92789881  0.74570837  1
  Te  Te144  1  0.91024903  0.26535943  0.05980828  1
  Te  Te145  1  0.93523420  0.24206254  0.42929460  1
  Te  Te146  1  0.89359856  0.24531749  0.77254984  1
  Te  Te147  1  0.90582785  0.57646002  0.04725833  1
  Te  Te148  1  0.94570340  0.62784700  0.37584108  1
  Te  Te149  1  0.93920137  0.58957797  0.76804977  1
  Te  Te150  1  0.94912695  0.89588963  0.09539417  1
  Te  Te151  1  0.91690703  0.90503650  0.43051096  1
  Te  Te152  1  0.92275288  0.90041174  0.77250775  1
  Te  Te153  1  0.27262285  0.08093452  0.26486602  1
  Te  Te154  1  0.23783051  0.06964397  0.58660123  1
  Te  Te155  1  0.24702786  0.06324890  0.89989920  1
  Te  Te156  1  0.24082946  0.43876197  0.27302510  1
  Te  Te157  1  0.21287895  0.42039772  0.59463565  1
  Te  Te158  1  0.24508351  0.40155120  0.92943548  1
  Te  Te159  1  0.24925222  0.75467525  0.25609184  1
  Te  Te160  1  0.17919315  0.71660158  0.60015699  1
  Te  Te161  1  0.20054651  0.76162012  0.91718942  1
  Te  Te162  1  0.63373722  0.09030883  0.25123130  1
  Te  Te163  1  0.57549361  0.09561591  0.59188850  1
  Te  Te164  1  0.61015871  0.11046354  0.91020933  1
  Te  Te165  1  0.61159976  0.42180839  0.23349954  1
  Te  Te166  1  0.57662253  0.40298135  0.56556565  1
  Te  Te167  1  0.58868398  0.41754731  0.89362496  1
  Te  Te168  1  0.56302230  0.76268338  0.23240030  1
  Te  Te169  1  0.56261496  0.75822354  0.57869026  1
  Te  Te170  1  0.58630209  0.76644766  0.90088890  1
  Te  Te171  1  0.91833296  0.09688257  0.24396728  1
  Te  Te172  1  0.95374888  0.05646013  0.56907373  1
  Te  Te173  1  0.95973833  0.05455055  0.92854821  1
  Te  Te174  1  0.94531187  0.43687723  0.22497306  1
  Te  Te175  1  0.92376540  0.41702257  0.58590203  1
  Te  Te176  1  0.87211772  0.38327322  0.92283832  1
  Te  Te177  1  0.94884427  0.73765867  0.23104452  1
  Te  Te178  1  0.93540232  0.70455838  0.57451776  1
  Te  Te179  1  0.97031812  0.78212094  0.90058090  1
