# generated using pymatgen
data_In2Te3
_symmetry_space_group_name_H-M   'P 1'
_cell_length_a   18.99278162
_cell_length_b   18.96178381
_cell_length_c   18.96688979
_cell_angle_alpha   89.89314891
_cell_angle_beta   90.17377746
_cell_angle_gamma   89.84730718
_symmetry_Int_Tables_number   1
_chemical_formula_structural   In2Te3
_chemical_formula_sum   'In72 Te108'
_cell_volume   6830.61149496
_cell_formula_units_Z   36
loop_
 _symmetry_equiv_pos_site_id
 _symmetry_equiv_pos_as_xyz
  1  'x, y, z'
loop_
 _atom_site_type_symbol
 _atom_site_label
 _atom_site_symmetry_multiplicity
 _atom_site_fract_x
 _atom_site_fract_y
 _atom_site_fract_z
 _atom_site_occupancy
  In  In0  1  0.33491252  -0.00835906  0.00327105  1
  In  In1  1  0.80541020  0.47613653  0.36495842  1
  In  In2  1  0.85195269  0.34955745  0.81137282  1
  In  In3  1  -0.00189191  0.83342571  0.50497300  1
  In  In4  1  0.02651052  0.64159962  -0.02554323  1
  In  In5  1  0.17985998  0.13707820  0.64858813  1
  In  In6  1  0.16690713  0.48204665  0.35028922  1
  In  In7  1  0.66586095  0.31513261  0.00266856  1
  In  In8  1  0.35324045  0.65889599  0.34316452  1
  In  In9  1  0.01021100  0.15736748  0.14300545  1
  In  In10  1  0.66600664  0.66468834  0.66974883  1
  In  In11  1  0.31640279  0.49410056  0.51390705  1
  In  In12  1  0.66174092  0.00390130  0.65421638  1
  In  In13  1  0.49063002  0.16899695  -0.00535330  1
  In  In14  1  -0.00012308  0.16380909  0.50388299  1
  In  In15  1  0.00919434  0.67406727  0.35259056  1
  In  In16  1  0.48759226  0.84242683  0.33759195  1
  In  In17  1  -0.00723390  -0.02577937  0.66534784  1
  In  In18  1  0.34712565  0.16124369  0.81168750  1
  In  In19  1  0.17310744  0.80959520  0.66490121  1
  In  In20  1  0.00082604  0.84641233  0.14850723  1
  In  In21  1  0.00592858  0.34995516  0.64734309  1
  In  In22  1  0.83276814  0.68368083  0.18843051  1
  In  In23  1  0.64706381  0.00114501  0.00586947  1
  In  In24  1  0.37313415  0.46473472  0.01199994  1
  In  In25  1  0.31991761  0.66758546  -0.03541256  1
  In  In26  1  0.83671138  0.50002488  0.00520005  1
  In  In27  1  0.51351160  0.30186743  0.49236497  1
  In  In28  1  0.68739066  0.84726932  0.18961314  1
  In  In29  1  0.00518494  0.47937864  0.17144062  1
  In  In30  1  0.48400629  0.65975438  0.18354427  1
  In  In31  1  0.66344847  0.50534516  0.83774255  1
  In  In32  1  0.16641263  0.52833514  0.66429434  1
  In  In33  1  0.34609230  0.17023604  0.17946074  1
  In  In34  1  -0.00465174  0.34007605  -0.01258834  1
  In  In35  1  0.63799881  0.48706430  0.16539359  1
  In  In36  1  0.51014296  0.50017640  0.33579889  1
  In  In37  1  0.80667864  0.00737149  0.50010869  1
  In  In38  1  0.83982271  0.01540378  0.81265376  1
  In  In39  1  0.67796973  0.82992430  0.50326548  1
  In  In40  1  0.81128538  0.16725762  0.32593351  1
  In  In41  1  0.67168260  0.66102546  0.04852114  1
  In  In42  1  0.00183090  -0.00356279  0.32075830  1
  In  In43  1  0.48181296  0.68581689  0.82511154  1
  In  In44  1  0.01024926  0.19984654  0.82446663  1
  In  In45  1  0.14648950  0.84097966  0.33932334  1
  In  In46  1  0.67190032  0.65612254  0.35694214  1
  In  In47  1  0.16897884  -0.01557149  0.83567265  1
  In  In48  1  0.32795637  0.33481923  0.32049978  1
  In  In49  1  0.00276032  0.34604486  0.35775075  1
  In  In50  1  0.02807730  -0.00176580  -0.00154168  1
  In  In51  1  0.16541039  0.31965613  0.14506541  1
  In  In52  1  0.49938066  0.16955946  0.65483166  1
  In  In53  1  0.84920338  0.67543180  0.51449735  1
  In  In54  1  0.18901219  0.65667650  0.15848230  1
  In  In55  1  0.77908312  0.30715727  0.53029355  1
  In  In56  1  0.19125707  0.17673183  0.32358523  1
  In  In57  1  0.51358452  0.02149693  0.82971862  1
  In  In58  1  0.87485029  0.64674246  0.82004084  1
  In  In59  1  0.64996712  0.17019423  0.18351820  1
  In  In60  1  0.20990612  0.00948827  0.48948228  1
  In  In61  1  0.17365823  0.34808911  0.83164878  1
  In  In62  1  0.83033193  0.16610578  0.01096025  1
  In  In63  1  0.69214432  0.82519753  0.84473292  1
  In  In64  1  0.66351679  0.01271163  0.32083038  1
  In  In65  1  0.50479557  0.35036508  0.80070697  1
  In  In66  1  0.82949594  0.51017893  0.66241401  1
  In  In67  1  0.31019948  0.82625158  0.82229906  1
  In  In68  1  0.49261389  0.88040469  0.63070947  1
  In  In69  1  0.33469432  0.85475093  0.17108345  1
  In  In70  1  0.47928763  0.48010339  0.63404805  1
  In  In71  1  0.51025210  0.84012972  0.01258107  1
  Te  Te72  1  0.11563384  0.09297497  0.06771095  1
  Te  Te73  1  0.08977973  0.08132655  0.41248100  1
  Te  Te74  1  0.07474436  0.08279842  0.74896596  1
  Te  Te75  1  0.09367184  0.43034746  0.06078253  1
  Te  Te76  1  0.07348290  0.43838173  0.45972468  1
  Te  Te77  1  0.07590356  0.43144528  0.75199676  1
  Te  Te78  1  0.08237016  0.73240207  0.08381326  1
  Te  Te79  1  0.10514024  0.74221892  0.44744456  1
  Te  Te80  1  0.11659224  0.72378171  0.77440529  1
  Te  Te81  1  0.42866466  0.07120049  0.08954831  1
  Te  Te82  1  0.42504483  0.04518534  0.48364043  1
  Te  Te83  1  0.41326304  0.05833906  0.72421058  1
  Te  Te84  1  0.40169344  0.35548220  0.10535218  1
  Te  Te85  1  0.41201783  0.41593733  0.42285741  1
  Te  Te86  1  0.38938103  0.41055524  0.72875428  1
  Te  Te87  1  0.41145977  0.74695268  0.08072419  1
  Te  Te88  1  0.43935677  0.73899505  0.42982666  1
  Te  Te89  1  0.42091096  0.78248379  0.72798641  1
  Te  Te90  1  0.73893606  0.08179157  0.09681298  1
  Te  Te91  1  0.71882805  0.11520978  0.43641753  1
  Te  Te92  1  0.74569564  0.09884329  0.73210546  1
  Te  Te93  1  0.74690257  0.41202881  0.08767856  1
  Te  Te94  1  0.70578271  0.39506950  0.43480477  1
  Te  Te95  1  0.73672656  0.41797918  0.73962290  1
  Te  Te96  1  0.76530172  0.77365220  0.08177684  1
  Te  Te97  1  0.77146177  0.75635790  0.40990707  1
  Te  Te98  1  0.76990287  0.73834271  0.74941874  1
  Te  Te99  1  0.07116318  0.25834228  0.25301609  1
  Te  Te100  1  0.09767780  0.24908234  0.58008712  1
  Te  Te101  1  0.10390873  0.25160867  0.93031443  1
  Te  Te102  1  0.08417638  0.58263749  0.25429720  1
  Te  Te103  1  0.08139611  0.55919668  0.54881067  1
  Te  Te104  1  0.12773799  0.60488019  0.87454849  1
  Te  Te105  1  0.10073018  0.93176518  0.22729942  1
  Te  Te106  1  0.10383679  0.92720601  0.57313285  1
  Te  Te107  1  0.06701725  0.89958396  0.89601080  1
  Te  Te108  1  0.41771768  0.21842381  0.30058079  1
  Te  Te109  1  0.40458071  0.25449992  0.57934760  1
  Te  Te110  1  0.42222607  0.26025082  0.89594734  1
  Te  Te111  1  0.39789368  0.55349393  0.24453617  1
  Te  Te112  1  0.39414780  0.59471741  0.59345773  1
  Te  Te113  1  0.41825165  0.57348948  0.90074411  1
  Te  Te114  1  0.41112156  0.94080027  0.26067458  1
  Te  Te115  1  0.38278195  0.91178620  0.53554811  1
  Te  Te116  1  0.42926824  0.91349166  0.90668030  1
  Te  Te117  1  0.74116968  0.26680289  0.24553635  1
  Te  Te118  1  0.70678656  0.22261341  0.62526812  1
  Te  Te119  1  0.77083589  0.26179990  0.90702225  1
  Te  Te120  1  0.74280060  0.57402420  0.24932185  1
  Te  Te121  1  0.73842858  0.58408252  0.56517254  1
  Te  Te122  1  0.74545900  0.59541228  0.92792186  1
  Te  Te123  1  0.77429966  0.93422438  0.26738093  1
  Te  Te124  1  0.76505877  0.90326120  0.60258565  1
  Te  Te125  1  0.75503526  0.93927787  0.91947066  1
  Te  Te126  1  0.28588211  0.26113358  0.07455135  1
  Te  Te127  1  0.22462646  0.28561495  0.41380216  1
  Te  Te128  1  0.23906243  0.24030217  0.74211864  1
  Te  Te129  1  0.27047323  0.56952437  0.07003288  1
  Te  Te130  1  0.24294708  0.59158949  0.42113362  1
  Te  Te131  1  0.24530866  0.62490842  0.76079688  1
  Te  Te132  1  0.23803312  0.90166064  0.06904688  1
  Te  Te133  1  0.26489420  0.89854624  0.40891319  1
  Te  Te134  1  0.25240417  0.92656669  0.72356336  1
  Te  Te135  1  0.55995850  0.25922788  0.09585365  1
  Te  Te136  1  0.59272998  0.20653864  0.41173703  1
  Te  Te137  1  0.59596972  0.25003791  0.73710970  1
  Te  Te138  1  0.55137365  0.57415485  0.07556010  1
  Te  Te139  1  0.56536316  0.59433857  0.43401924  1
  Te  Te140  1  0.56617565  0.57894556  0.74496223  1
  Te  Te141  1  0.57737008  0.92543608  0.11788754  1
  Te  Te142  1  0.59191426  0.91978651  0.41653786  1
  Te  Te143  1  0.59506928  0.90763367  0.75958076  1
  Te  Te144  1  0.91480138  0.26479114  0.08995310  1
  Te  Te145  1  0.90301863  0.25079560  0.42509179  1
  Te  Te146  1  0.91502427  0.24891994  0.71788322  1
  Te  Te147  1  0.91532634  0.58691402  0.10300064  1
  Te  Te148  1  0.90919000  0.57880460  0.41334123  1
  Te  Te149  1  0.94600339  0.58964032  0.70608132  1
  Te  Te150  1  0.91775631  0.94022675  0.07443738  1
  Te  Te151  1  0.91373615  0.92815967  0.42282129  1
  Te  Te152  1  0.92299299  0.90120280  0.77073584  1
  Te  Te153  1  0.25568938  0.07354011  0.24531647  1
  Te  Te154  1  0.28990736  0.12293489  0.54552516  1
  Te  Te155  1  0.25886588  0.08283860  0.90845195  1
  Te  Te156  1  0.23705303  0.42095909  0.23224680  1
  Te  Te157  1  0.25452938  0.41511977  0.62358654  1
  Te  Te158  1  0.27275613  0.42043543  0.91304481  1
  Te  Te159  1  0.25334159  0.75008912  0.25935431  1
  Te  Te160  1  0.25600886  0.68984033  0.62318483  1
  Te  Te161  1  0.23511697  0.78651669  0.94275139  1
  Te  Te162  1  0.55455745  0.11192577  0.28600274  1
  Te  Te163  1  0.55847748  0.06381769  0.56207478  1
  Te  Te164  1  0.60386089  0.11180325  0.90992538  1
  Te  Te165  1  0.57985746  0.39485619  0.26144526  1
  Te  Te166  1  0.58753738  0.40440946  0.57084351  1
  Te  Te167  1  0.58074757  0.41189804  0.92206786  1
  Te  Te168  1  0.59179354  0.74124705  0.25029915  1
  Te  Te169  1  0.57728791  0.75819908  0.58956778  1
  Te  Te170  1  0.58998679  0.74227790  0.92610951  1
  Te  Te171  1  0.91540540  0.09187205  0.24131857  1
  Te  Te172  1  0.90966122  0.07737443  0.58857590  1
  Te  Te173  1  0.92677569  0.10441209  0.91093350  1
  Te  Te174  1  0.90449194  0.41469507  0.26359970  1
  Te  Te175  1  0.88849687  0.40646889  0.56867492  1
  Te  Te176  1  0.92992180  0.44605324  0.89899124  1
  Te  Te177  1  0.93213829  0.76978922  0.26300670  1
  Te  Te178  1  0.94218070  0.74340723  0.60652200  1
  Te  Te179  1  0.91854780  0.73020556  0.93060808  1
