# generated using pymatgen
data_In2Te3
_symmetry_space_group_name_H-M   'P 1'
_cell_length_a   18.94550147
_cell_length_b   18.94357490
_cell_length_c   18.93700658
_cell_angle_alpha   89.80177640
_cell_angle_beta   90.06143247
_cell_angle_gamma   90.27401389
_symmetry_Int_Tables_number   1
_chemical_formula_structural   In2Te3
_chemical_formula_sum   'In72 Te108'
_cell_volume   6796.28475603
_cell_formula_units_Z   36
loop_
 _symmetry_equiv_pos_site_id
 _symmetry_equiv_pos_as_xyz
  1  'x, y, z'
loop_
 _atom_site_type_symbol
 _atom_site_label
 _atom_site_symmetry_multiplicity
 _atom_site_fract_x
 _atom_site_fract_y
 _atom_site_fract_z
 _atom_site_occupancy
  In  In0  1  0.02168141  0.15042828  0.82712147  1
  In  In1  1  0.49951085  0.48332776  -0.00586490  1
  In  In2  1  0.52568200  0.15955238  0.66477510  1
  In  In3  1  0.65763989  0.64151026  0.00870984  1
  In  In4  1  0.50627125  0.82963672  0.02088325  1
  In  In5  1  0.18636057  0.02438643  0.82750274  1
  In  In6  1  0.30997827  0.52110289  0.53969703  1
  In  In7  1  0.65826837  0.82466259  0.17130217  1
  In  In8  1  0.67183219  0.49471269  0.51431141  1
  In  In9  1  0.17345611  -0.01521238  0.17629269  1
  In  In10  1  0.48564030  0.84406733  0.66222511  1
  In  In11  1  0.15524599  0.78726110  0.59855470  1
  In  In12  1  0.00256174  0.66152514  0.65130972  1
  In  In13  1  0.13651202  0.68018278  0.17111403  1
  In  In14  1  0.67167757  0.16134427  0.84699271  1
  In  In15  1  0.30077071  0.53250866  0.79263984  1
  In  In16  1  0.42887921  0.71096769  0.50708470  1
  In  In17  1  0.33433147  0.14377108  0.16695752  1
  In  In18  1  0.81130668  0.02174975  0.46688167  1
  In  In19  1  0.85979887  0.66309365  0.17558971  1
  In  In20  1  0.66861094  0.49843994  0.13904955  1
  In  In21  1  0.51932845  0.00549457  0.85377125  1
  In  In22  1  0.67715666  0.31365780  0.66812630  1
  In  In23  1  0.65518663  0.50152976  0.84824563  1
  In  In24  1  -0.00189349  -0.02538437  0.02577879  1
  In  In25  1  0.83878197  0.31386828  0.47461448  1
  In  In26  1  0.86179450  0.18462784  0.03213675  1
  In  In27  1  0.14372632  0.18594947  0.32766986  1
  In  In28  1  0.16951921  0.19591618  0.64339505  1
  In  In29  1  0.01053163  0.34961968  0.65508155  1
  In  In30  1  0.83278672  0.34623445  0.82882743  1
  In  In31  1  0.81067561  0.00515888  0.85532125  1
  In  In32  1  0.17389078  0.82030870  0.33959549  1
  In  In33  1  0.64904993  0.68977373  0.65748496  1
  In  In34  1  0.54325558  0.28481625  0.15007954  1
  In  In35  1  0.00073538  0.48615342  0.17644888  1
  In  In36  1  0.17341798  0.82848558  0.01719396  1
  In  In37  1  0.35141086  0.36300714  0.67007038  1
  In  In38  1  0.84850841  0.67769540  0.81643131  1
  In  In39  1  0.67546656  0.30591671  0.32809499  1
  In  In40  1  0.17842917  0.34436279  0.83576642  1
  In  In41  1  0.65527611  -0.00749366  0.65102310  1
  In  In42  1  0.32587735  0.32797328  0.31075059  1
  In  In43  1  0.50236252  0.01134724  0.24500165  1
  In  In44  1  0.82870059  0.02725363  0.18682757  1
  In  In45  1  0.50360036  0.50115222  0.32683071  1
  In  In46  1  0.15525016  0.16623759  0.00342732  1
  In  In47  1  0.00157419  -0.04044535  0.63192615  1
  In  In48  1  0.49909857  0.32638222  0.49451606  1
  In  In49  1  0.82614528  0.82092667  0.65254551  1
  In  In50  1  0.49385239  0.66967652  0.84401694  1
  In  In51  1  0.67694839  0.67247620  0.32096006  1
  In  In52  1  0.01968828  0.53140520  0.85375783  1
  In  In53  1  -0.00891003  0.33550346  0.31932325  1
  In  In54  1  0.00863248  0.83770067  0.81878752  1
  In  In55  1  0.49650790  -0.03825464  0.45696721  1
  In  In56  1  0.84432296  0.48154903  0.01864661  1
  In  In57  1  0.84025469  0.17864189  0.64142072  1
  In  In58  1  0.82899723  0.84987879  -0.01893007  1
  In  In59  1  0.35829764  0.17772971  0.86441640  1
  In  In60  1  0.17548144  0.49891336  0.35352731  1
  In  In61  1  -0.00141589  0.00803682  0.31626735  1
  In  In62  1  0.82783254  0.82487536  0.32554758  1
  In  In63  1  0.35008917  0.15128856  0.47756504  1
  In  In64  1  0.31582639  0.53349853  0.15932219  1
  In  In65  1  0.33310288  0.84039727  0.82831347  1
  In  In66  1  0.32453001  0.34930628  0.01639484  1
  In  In67  1  0.30730792  0.67259748  0.03145557  1
  In  In68  1  0.84801260  0.64594996  0.49504321  1
  In  In69  1  -0.00680852  0.49151048  0.49872050  1
  In  In70  1  0.48934126  0.69512761  0.21574129  1
  In  In71  1  0.31310884  0.01845682  0.66571499  1
  Te  Te72  1  0.07481379  0.08070685  0.10000862  1
  Te  Te73  1  0.09291459  0.07363297  0.40864828  1
  Te  Te74  1  0.08123778  0.06572066  0.71768784  1
  Te  Te75  1  0.06331234  0.38473266  0.08750843  1
  Te  Te76  1  0.08522489  0.39844345  0.42263046  1
  Te  Te77  1  0.08884639  0.43290365  0.75308102  1
  Te  Te78  1  0.05782307  0.76710765  0.08213272  1
  Te  Te79  1  0.10188797  0.76096814  0.45770012  1
  Te  Te80  1  0.09362426  0.74415280  0.73975041  1
  Te  Te81  1  0.43600700  0.05176628  0.11582158  1
  Te  Te82  1  0.43345733  0.07644578  0.37939298  1
  Te  Te83  1  0.42245481  0.07745078  0.75429635  1
  Te  Te84  1  0.41665613  0.42938654  0.10873479  1
  Te  Te85  1  0.40921855  0.41299898  0.40779953  1
  Te  Te86  1  0.41580940  0.44249090  0.77340831  1
  Te  Te87  1  0.40322803  0.76396897  0.11104584  1
  Te  Te88  1  0.39490202  0.79736134  0.38771605  1
  Te  Te89  1  0.40661854  0.74038195  0.74193405  1
  Te  Te90  1  0.76017628  0.07857188  0.06432177  1
  Te  Te91  1  0.73163512  0.10851350  0.37335723  1
  Te  Te92  1  0.74611025  0.08819251  0.73059826  1
  Te  Te93  1  0.75162311  0.38938122  0.08703125  1
  Te  Te94  1  0.74688159  0.41644164  0.40904759  1
  Te  Te95  1  0.74148315  0.42928956  0.74400478  1
  Te  Te96  1  0.74939183  0.73664498  0.08772670  1
  Te  Te97  1  0.75145840  0.74465645  0.43092431  1
  Te  Te98  1  0.73730570  0.76335254  0.76148124  1
  Te  Te99  1  0.08952976  0.27684603  0.22146648  1
  Te  Te100  1  0.05538756  0.24311311  0.56674016  1
  Te  Te101  1  0.07711931  0.26131817  0.91473230  1
  Te  Te102  1  0.07669596  0.57990429  0.26889063  1
  Te  Te103  1  0.09010370  0.56348391  0.58541058  1
  Te  Te104  1  0.12155522  0.59879274  0.93107242  1
  Te  Te105  1  0.07346071  0.89644828  0.24738051  1
  Te  Te106  1  0.10243235  0.91313615  0.53526305  1
  Te  Te107  1  0.09155609  0.93283550  0.90741976  1
  Te  Te108  1  0.42638937  0.24172616  0.24025046  1
  Te  Te109  1  0.41092486  0.23631981  0.59748897  1
  Te  Te110  1  0.42996948  0.26702209  0.95404459  1
  Te  Te111  1  0.39409735  0.59374774  0.27776050  1
  Te  Te112  1  0.44303761  0.57865390  0.56743154  1
  Te  Te113  1  0.41010703  0.59497594  0.94528140  1
  Te  Te114  1  0.38776504  0.91868518  0.28811691  1
  Te  Te115  1  0.39978070  0.93342645  0.57618866  1
  Te  Te116  1  0.42005211  0.91498452  0.92624235  1
  Te  Te117  1  0.77372645  0.21177196  0.26509556  1
  Te  Te118  1  0.73061402  0.23244243  0.55315486  1
  Te  Te119  1  0.76878513  0.24855222  0.92518305  1
  Te  Te120  1  0.75513137  0.57198877  0.24034631  1
  Te  Te121  1  0.75081391  0.59248809  0.60024224  1
  Te  Te122  1  0.76950764  0.58403114  0.91697515  1
  Te  Te123  1  0.73629057  0.92702641  0.25799678  1
  Te  Te124  1  0.74801610  0.91423641  0.56262138  1
  Te  Te125  1  0.71453616  0.92694403  0.93316392  1
  Te  Te126  1  0.24552325  0.24694163  0.09516828  1
  Te  Te127  1  0.25263819  0.25182357  0.41870631  1
  Te  Te128  1  0.25219918  0.23246477  0.76598162  1
  Te  Te129  1  0.19390167  0.57074493  0.06734651  1
  Te  Te130  1  0.24689550  0.60141201  0.43111361  1
  Te  Te131  1  0.24797271  0.58699375  0.66594378  1
  Te  Te132  1  0.26489254  0.92202765  0.08132279  1
  Te  Te133  1  0.28287293  0.90303426  0.40459807  1
  Te  Te134  1  0.23348472  0.91005873  0.73722372  1
  Te  Te135  1  0.63421285  0.17299496  0.11899773  1
  Te  Te136  1  0.56745013  0.23708314  0.40235477  1
  Te  Te137  1  0.57802745  0.25659083  0.76856835  1
  Te  Te138  1  0.55448486  0.59907537  0.11254080  1
  Te  Te139  1  0.59456217  0.58329538  0.41568468  1
  Te  Te140  1  0.57864341  0.58805393  0.74953186  1
  Te  Te141  1  0.56872870  0.93077574  0.11388722  1
  Te  Te142  1  0.61360850  0.92460241  0.37651476  1
  Te  Te143  1  0.58536909  0.90940819  0.75663595  1
  Te  Te144  1  0.94755806  0.28898355  0.10385149  1
  Te  Te145  1  0.92660120  0.22468875  0.39774543  1
  Te  Te146  1  0.92259454  0.24275439  0.75350304  1
  Te  Te147  1  0.93972879  0.58547030  0.07398798  1
  Te  Te148  1  0.91558832  0.56354337  0.39615366  1
  Te  Te149  1  0.92018622  0.57062760  0.74202157  1
  Te  Te150  1  0.89097697  0.90724788  0.10663899  1
  Te  Te151  1  0.91007359  0.92338906  0.40863825  1
  Te  Te152  1  0.90027395  0.92191191  0.74948230  1
  Te  Te153  1  0.24175175  0.08223706  0.26963241  1
  Te  Te154  1  0.23429063  0.08865156  0.55767438  1
  Te  Te155  1  0.26760175  0.08289484  0.94183416  1
  Te  Te156  1  0.23790658  0.42544167  0.23611549  1
  Te  Te157  1  0.24268111  0.39486398  0.58103935  1
  Te  Te158  1  0.26182089  0.44201304  0.91402953  1
  Te  Te159  1  0.24971897  0.74148343  0.24085513  1
  Te  Te160  1  0.28427141  0.72422879  0.56318681  1
  Te  Te161  1  0.24569085  0.74682092  0.91025392  1
  Te  Te162  1  0.62282163  0.11135381  0.25648530  1
  Te  Te163  1  0.56849868  0.06722965  0.55431864  1
  Te  Te164  1  0.57220058  0.10923145  0.94235779  1
  Te  Te165  1  0.58690869  0.40704647  0.24226802  1
  Te  Te166  1  0.57779613  0.40685975  0.59587391  1
  Te  Te167  1  0.61013245  0.40131632  0.94675849  1
  Te  Te168  1  0.57446528  0.79034666  0.30220395  1
  Te  Te169  1  0.56793181  0.76992368  0.55970267  1
  Te  Te170  1  0.59309824  0.75113119  0.92436377  1
  Te  Te171  1  0.92196587  0.12230303  0.25419669  1
  Te  Te172  1  0.91622503  0.07184296  0.56834579  1
  Te  Te173  1  0.92793348  0.07606768  0.92432020  1
  Te  Te174  1  0.89096090  0.39638052  0.22631700  1
  Te  Te175  1  0.89274343  0.40880745  0.58197651  1
  Te  Te176  1  0.93425355  0.41762108  0.91481335  1
  Te  Te177  1  0.93068485  0.72841660  0.28588414  1
  Te  Te178  1  0.92794457  0.75880949  0.56167519  1
  Te  Te179  1  0.92983582  0.75430238  0.91919670  1
