# generated using pymatgen
data_In2Te3
_symmetry_space_group_name_H-M   'P 1'
_cell_length_a   18.95640411
_cell_length_b   18.92615866
_cell_length_c   18.94917388
_cell_angle_alpha   90.00222965
_cell_angle_beta   89.97727739
_cell_angle_gamma   89.94786056
_symmetry_Int_Tables_number   1
_chemical_formula_structural   In2Te3
_chemical_formula_sum   'In72 Te108'
_cell_volume   6798.42798964
_cell_formula_units_Z   36
loop_
 _symmetry_equiv_pos_site_id
 _symmetry_equiv_pos_as_xyz
  1  'x, y, z'
loop_
 _atom_site_type_symbol
 _atom_site_label
 _atom_site_symmetry_multiplicity
 _atom_site_fract_x
 _atom_site_fract_y
 _atom_site_fract_z
 _atom_site_occupancy
  In  In0  1  0.00053827  0.69144229  0.68744498  1
  In  In1  1  0.65788871  0.68037090  0.65632692  1
  In  In2  1  0.63258256  0.68503070  0.35259397  1
  In  In3  1  0.68520800  0.16548286  0.48134968  1
  In  In4  1  0.16182221  0.33482374  0.82962605  1
  In  In5  1  0.86676240  0.32520351  0.14899228  1
  In  In6  1  0.48177046  0.80788204  0.36892876  1
  In  In7  1  0.85283946  0.52775427  0.68205950  1
  In  In8  1  0.30366306  0.15715293  0.16013623  1
  In  In9  1  0.16204627  0.84897614  -0.02513599  1
  In  In10  1  0.48712563  0.49149051  0.35024408  1
  In  In11  1  0.50098200  0.00709262  0.16466705  1
  In  In12  1  0.15788951  0.32575261  0.50868332  1
  In  In13  1  0.32946243  0.83338357  0.16662156  1
  In  In14  1  0.83792938  0.84842303  0.34315300  1
  In  In15  1  0.87210245  -0.00080103  0.83656134  1
  In  In16  1  0.31912715  0.35838185  0.34614092  1
  In  In17  1  0.34273555  0.55105619  0.49968063  1
  In  In18  1  0.32186592  0.19280589  0.51089140  1
  In  In19  1  0.03709082  0.65617509  0.35972468  1
  In  In20  1  0.33117345  0.16007314  0.82698409  1
  In  In21  1  0.49168789  0.48909928  -0.02764404  1
  In  In22  1  0.14930800  0.30442653  0.16164502  1
  In  In23  1  0.65249115  0.00465354  0.68183798  1
  In  In24  1  0.85898873  0.82814793  0.71416774  1
  In  In25  1  0.13125545  0.13278873  0.68117971  1
  In  In26  1  0.84973859  0.50523519  0.31277114  1
  In  In27  1  0.02450321  0.02027786  0.01379236  1
  In  In28  1  -0.00693070  -0.00075115  0.35013503  1
  In  In29  1  0.34066143  0.34275259  0.67739664  1
  In  In30  1  0.84288618  0.67572494  0.15945527  1
  In  In31  1  0.30564625  0.02469237  0.31932720  1
  In  In32  1  0.46521786  0.68896677  0.79485533  1
  In  In33  1  0.49397407  0.33056668  0.80849998  1
  In  In34  1  0.65737586  0.84850019  0.83266816  1
  In  In35  1  0.30376742  0.00318594  -0.00821455  1
  In  In36  1  0.71713834  0.48732768  0.16094810  1
  In  In37  1  0.50864918  0.65383886  0.17857156  1
  In  In38  1  0.65025125  0.67364663  0.01385530  1
  In  In39  1  0.15516345  -0.03390520  0.51519864  1
  In  In40  1  0.31890776  0.52086055  0.83077089  1
  In  In41  1  0.83747832  0.00991741  0.52284928  1
  In  In42  1  0.65835695  0.83587641  0.50161224  1
  In  In43  1  0.16297047  0.68037660  0.15329424  1
  In  In44  1  0.33891438  0.49569073  0.16445264  1
  In  In45  1  0.49597065  0.85144766  0.01070142  1
  In  In46  1  0.67121986  0.33417869  0.33545147  1
  In  In47  1  0.17113765  0.50398239  -0.01390994  1
  In  In48  1  0.83873252  0.31517451  0.82294826  1
  In  In49  1  0.49109557  0.00343266  0.82598633  1
  In  In50  1  0.83972865  0.33185680  0.49069455  1
  In  In51  1  0.83184212  0.48065310  0.00857807  1
  In  In52  1  0.66533215  0.16505438  0.14906933  1
  In  In53  1  0.01584418  0.31305525  -0.02099483  1
  In  In54  1  0.67091534  0.50811062  0.83084500  1
  In  In55  1  0.01274945  0.48548246  0.50587838  1
  In  In56  1  0.83948732  0.01147916  0.17745763  1
  In  In57  1  0.86267573  0.81016865  -0.03658858  1
  In  In58  1  -0.02646652  0.49539215  0.16872795  1
  In  In59  1  -0.00103693  0.82144633  0.15789870  1
  In  In60  1  0.51319010  0.32166276  0.16021568  1
  In  In61  1  0.30454222  -0.01406152  0.69326087  1
  In  In62  1  0.20381818  0.68312499  0.51918297  1
  In  In63  1  0.15276959  0.49527452  0.68981784  1
  In  In64  1  0.50003592  0.18009520  0.32805255  1
  In  In65  1  0.16009345  0.82877675  0.34797197  1
  In  In66  1  0.65586338  0.16983758  0.83709139  1
  In  In67  1  0.85409070  0.16094276  0.33574374  1
  In  In68  1  0.16896934  0.68573870  0.82765582  1
  In  In69  1  0.48837405  -0.00731529  0.51176688  1
  In  In70  1  0.64141735  0.47955512  0.55158229  1
  In  In71  1  0.86307279  0.16786410  0.66828465  1
  Te  Te72  1  0.13221832  0.08511473  0.09022631  1
  Te  Te73  1  0.09688300  0.06817113  0.42689130  1
  Te  Te74  1  0.08470566  0.02183595  0.76971247  1
  Te  Te75  1  0.07525893  0.42309968  0.07562350  1
  Te  Te76  1  0.09888135  0.41786622  0.40914491  1
  Te  Te77  1  0.05653197  0.40806083  0.75775738  1
  Te  Te78  1  0.07219614  0.74480588  0.05041732  1
  Te  Te79  1  0.08495668  0.75898142  0.45981379  1
  Te  Te80  1  0.11889777  0.79118889  0.72273873  1
  Te  Te81  1  0.40424766  0.08257586  0.07419367  1
  Te  Te82  1  0.40965348  0.09312356  0.41631629  1
  Te  Te83  1  0.41641567  0.08741589  0.72475423  1
  Te  Te84  1  0.41629996  0.40358760  0.07320483  1
  Te  Te85  1  0.40959109  0.41492773  0.45315889  1
  Te  Te86  1  0.42218326  0.45219542  0.74342695  1
  Te  Te87  1  0.42253127  0.74276230  0.08844096  1
  Te  Te88  1  0.40251076  0.70386667  0.44025824  1
  Te  Te89  1  0.35710658  0.76438509  0.72492258  1
  Te  Te90  1  0.77096224  0.09319732  0.07784145  1
  Te  Te91  1  0.75993574  0.06064642  0.40126578  1
  Te  Te92  1  0.76526725  0.07804176  0.75099593  1
  Te  Te93  1  0.74220114  0.37347540  0.06714245  1
  Te  Te94  1  0.75458112  0.43388840  0.41290296  1
  Te  Te95  1  0.76113816  0.42282317  0.74448184  1
  Te  Te96  1  0.75737364  0.76347066  0.07076445  1
  Te  Te97  1  0.75246321  0.74730790  0.42180848  1
  Te  Te98  1  0.73996744  0.74177102  0.76681360  1
  Te  Te99  1  0.05092717  0.22882736  0.23607725  1
  Te  Te100  1  0.07606847  0.24448327  0.60104679  1
  Te  Te101  1  0.12073522  0.22412335  0.92061863  1
  Te  Te102  1  0.08217863  0.58145001  0.23640346  1
  Te  Te103  1  0.07791752  0.58929108  0.59636864  1
  Te  Te104  1  0.09060424  0.57418366  0.88493168  1
  Te  Te105  1  0.07384746  0.91053140  0.25343186  1
  Te  Te106  1  0.07445555  0.91175113  0.62853103  1
  Te  Te107  1  0.06097441  0.92778211  0.89843187  1
  Te  Te108  1  0.39891883  0.26102975  0.24940653  1
  Te  Te109  1  0.42531927  0.25689612  0.59118069  1
  Te  Te110  1  0.41853787  0.24821774  0.90338819  1
  Te  Te111  1  0.40460033  0.58725154  0.26662561  1
  Te  Te112  1  0.44460503  0.63022363  0.56851491  1
  Te  Te113  1  0.41358872  0.60444445  0.91463770  1
  Te  Te114  1  0.40907321  0.92572871  0.25665286  1
  Te  Te115  1  0.39074038  0.91116738  0.58724555  1
  Te  Te116  1  0.40119530  0.91589292  0.91237110  1
  Te  Te117  1  0.76338776  0.25226011  0.24909715  1
  Te  Te118  1  0.75777125  0.24662468  0.58537185  1
  Te  Te119  1  0.75556662  0.24006087  0.91730443  1
  Te  Te120  1  0.74052219  0.60797690  0.25157261  1
  Te  Te121  1  0.74806159  0.58181187  0.58313667  1
  Te  Te122  1  0.74802128  0.58679630  0.93511849  1
  Te  Te123  1  0.75637437  0.90816150  0.23905463  1
  Te  Te124  1  0.74431448  0.91195494  0.60084096  1
  Te  Te125  1  0.76616903  0.91719429  0.91242433  1
  Te  Te126  1  0.24199129  0.24790814  0.06252535  1
  Te  Te127  1  0.23458396  0.24389541  0.39856406  1
  Te  Te128  1  0.23729742  0.24173408  0.72860914  1
  Te  Te129  1  0.25871744  0.58992900  0.07623751  1
  Te  Te130  1  0.22218655  0.57406359  0.42073827  1
  Te  Te131  1  0.25399634  0.60379744  0.72346782  1
  Te  Te132  1  0.22843693  0.91945031  0.09490629  1
  Te  Te133  1  0.26386012  0.91548467  0.41438727  1
  Te  Te134  1  0.25028445  0.87123533  0.77183909  1
  Te  Te135  1  0.56220154  0.22464713  0.06373206  1
  Te  Te136  1  0.57653287  0.26398704  0.42879182  1
  Te  Te137  1  0.59593761  0.25397820  0.72803022  1
  Te  Te138  1  0.58222423  0.55687117  0.08510092  1
  Te  Te139  1  0.58544003  0.56878070  0.43534172  1
  Te  Te140  1  0.57433011  0.59081830  0.74720204  1
  Te  Te141  1  0.59453291  0.93368426  0.07843504  1
  Te  Te142  1  0.57596735  0.92316159  0.40906917  1
  Te  Te143  1  0.55574114  0.89966320  0.73250856  1
  Te  Te144  1  0.92787571  0.22571664  0.05985595  1
  Te  Te145  1  0.93688422  0.23577612  0.43370992  1
  Te  Te146  1  0.94957989  0.23558570  0.76518413  1
  Te  Te147  1  0.92378090  0.59285257  0.06271365  1
  Te  Te148  1  0.92174755  0.58087056  0.42250292  1
  Te  Te149  1  0.92230943  0.60780818  0.78534554  1
  Te  Te150  1  0.91692681  0.91377542  0.07098345  1
  Te  Te151  1  0.92603062  0.90689143  0.45096753  1
  Te  Te152  1  0.94653341  0.95918953  0.70813971  1
  Te  Te153  1  0.19647492  0.08186685  0.23280284  1
  Te  Te154  1  0.24408495  0.08079537  0.58183025  1
  Te  Te155  1  0.22429808  0.08187985  0.89460309  1
  Te  Te156  1  0.23292154  0.41566625  0.23603586  1
  Te  Te157  1  0.24339528  0.42250756  0.59071102  1
  Te  Te158  1  0.26493417  0.40770935  0.91502539  1
  Te  Te159  1  0.25069426  0.74260702  0.26060698  1
  Te  Te160  1  0.28400807  0.78823025  0.58657478  1
  Te  Te161  1  0.25377199  0.74237533  0.93368887  1
  Te  Te162  1  0.59393856  0.08618087  0.25816734  1
  Te  Te163  1  0.58729931  0.08897389  0.57390428  1
  Te  Te164  1  0.59113515  0.06248254  0.91425683  1
  Te  Te165  1  0.58519245  0.42675926  0.25039251  1
  Te  Te166  1  0.57990410  0.38053899  0.63655266  1
  Te  Te167  1  0.59368196  0.40142435  0.90589123  1
  Te  Te168  1  0.57286352  0.77311825  0.24563148  1
  Te  Te169  1  0.55658439  0.75281722  0.57311618  1
  Te  Te170  1  0.56837983  0.74640657  0.90739672  1
  Te  Te171  1  0.95632576  0.10502351  0.23420836  1
  Te  Te172  1  0.94072859  0.11229339  0.55305341  1
  Te  Te173  1  0.93127564  0.09909231  0.92778813  1
  Te  Te174  1  0.93568664  0.38862327  0.27005766  1
  Te  Te175  1  0.91423629  0.41429203  0.59441527  1
  Te  Te176  1  0.92308927  0.41410878  0.91075891  1
  Te  Te177  1  0.93210795  0.73789383  0.26842262  1
  Te  Te178  1  0.89512487  0.74309818  0.60070523  1
  Te  Te179  1  0.93269058  0.77138159  0.83723743  1
