# generated using pymatgen
data_In2Te3
_symmetry_space_group_name_H-M   'P 1'
_cell_length_a   18.88969719
_cell_length_b   18.87277603
_cell_length_c   18.89670168
_cell_angle_alpha   89.93630604
_cell_angle_beta   89.97762411
_cell_angle_gamma   90.07707216
_symmetry_Int_Tables_number   1
_chemical_formula_structural   In2Te3
_chemical_formula_sum   'In72 Te108'
_cell_volume   6736.68272839
_cell_formula_units_Z   36
loop_
 _symmetry_equiv_pos_site_id
 _symmetry_equiv_pos_as_xyz
  1  'x, y, z'
loop_
 _atom_site_type_symbol
 _atom_site_label
 _atom_site_symmetry_multiplicity
 _atom_site_fract_x
 _atom_site_fract_y
 _atom_site_fract_z
 _atom_site_occupancy
  In  In0  1  0.67202223  0.49694796  0.18043022  1
  In  In1  1  0.01915710  0.16074622  0.82568517  1
  In  In2  1  0.35323392  0.33790828  0.34595542  1
  In  In3  1  0.66956405  0.32208260  0.67217561  1
  In  In4  1  0.83578714  0.17716788  0.02168618  1
  In  In5  1  0.67476954  0.50393005  0.85454090  1
  In  In6  1  0.84279266  0.17677856  0.64859158  1
  In  In7  1  0.31095974  0.49652515  0.16736328  1
  In  In8  1  0.18275755  0.85252674  0.66797163  1
  In  In9  1  0.81715439  0.68534141  0.16581385  1
  In  In10  1  0.81388007  0.18444516  0.31960252  1
  In  In11  1  0.15834152  0.34310862  0.17030907  1
  In  In12  1  -0.00197132  0.52177432  0.49089401  1
  In  In13  1  0.34966579  0.12284408  0.84087273  1
  In  In14  1  0.34274472  0.32229393  0.01677790  1
  In  In15  1  0.83954247  -0.00008075  0.48533478  1
  In  In16  1  0.85436529  0.33058211  0.85908031  1
  In  In17  1  0.17833423  0.14022489  0.65113462  1
  In  In18  1  0.68777376  -0.01419385  0.64492002  1
  In  In19  1  0.69329405  0.69481438  0.34464448  1
  In  In20  1  0.00786007  0.83209922  0.52549697  1
  In  In21  1  0.33688600  0.48828851  0.85433465  1
  In  In22  1  0.49098219  0.00790151  0.82969683  1
  In  In23  1  0.34662304  0.15205542  0.51248483  1
  In  In24  1  0.48848850  0.84032783  0.64236971  1
  In  In25  1  0.52592671  0.34666992  0.83615518  1
  In  In26  1  -0.00215723  -0.01160984  -0.00494603  1
  In  In27  1  0.52692952  0.18238087  0.34116813  1
  In  In28  1  0.16529486  0.00922443  0.17250490  1
  In  In29  1  0.00613810  0.16325416  0.51770000  1
  In  In30  1  0.68455544  0.49406099  0.48762729  1
  In  In31  1  0.17337229  0.34069178  0.82275159  1
  In  In32  1  0.14612119  0.50000678  0.65990737  1
  In  In33  1  0.00105040  -0.01543507  0.34759833  1
  In  In34  1  0.16004839  0.67736980  0.82676770  1
  In  In35  1  0.47155766  0.49653566  0.65449248  1
  In  In36  1  -0.02890021  0.47461195  0.19451244  1
  In  In37  1  -0.02022349  0.66715934  0.32031651  1
  In  In38  1  0.31554225  0.67855295  0.65344931  1
  In  In39  1  0.52004915  0.66639097  0.16646460  1
  In  In40  1  0.15194254  0.81955555  -0.01418519  1
  In  In41  1  0.84641276  0.67240991  0.82778807  1
  In  In42  1  0.49889165  0.67633913  0.81050333  1
  In  In43  1  0.16594758  0.85949704  0.36549968  1
  In  In44  1  0.83151255  -0.02722237  0.83820767  1
  In  In45  1  0.18440096  0.16879527  -0.00866883  1
  In  In46  1  0.16597908  0.67192800  0.17838752  1
  In  In47  1  0.50064239  0.51787225  0.32328898  1
  In  In48  1  -0.00362905  0.66664754  -0.01673233  1
  In  In49  1  0.34260083  0.83784424  0.18301408  1
  In  In50  1  0.50606357  0.15451188  0.01360392  1
  In  In51  1  0.15215241  0.34649458  0.49886948  1
  In  In52  1  0.32208067  0.54103788  0.48613608  1
  In  In53  1  0.84377668  0.82895054  0.66128761  1
  In  In54  1  0.49091673  -0.00779752  0.18922981  1
  In  In55  1  0.32623975  0.29283564  0.64082821  1
  In  In56  1  0.65385911  0.84389909  0.16724928  1
  In  In57  1  0.66714459  0.83687541  0.85415787  1
  In  In58  1  0.17450644  0.16252659  0.31770977  1
  In  In59  1  0.33526254  0.66639679  0.00479004  1
  In  In60  1  0.83631436  0.34134683  0.50122965  1
  In  In61  1  0.34567976  -0.01535671  -0.00685111  1
  In  In62  1  0.82589193  0.49829529  0.00439044  1
  In  In63  1  0.83501892  -0.00218241  0.15948663  1
  In  In64  1  0.65069081  -0.01016808  0.33797905  1
  In  In65  1  -0.01487562  0.19735122  0.16818971  1
  In  In66  1  0.83706170  0.51806519  0.66628543  1
  In  In67  1  0.48145851  -0.01432220  0.50660676  1
  In  In68  1  0.50741994  0.33118030  0.16630546  1
  In  In69  1  0.64523784  0.67443389  0.63942273  1
  In  In70  1  0.67179034  0.16789272  0.84301757  1
  In  In71  1  0.46812396  0.13954556  0.65125052  1
  Te  Te72  1  0.07544872  0.09759341  0.08397900  1
  Te  Te73  1  0.09001168  0.08361942  0.41898873  1
  Te  Te74  1  0.09811286  0.06404511  0.74835698  1
  Te  Te75  1  0.05729843  0.41285900  0.08938397  1
  Te  Te76  1  0.07301067  0.42546545  0.40621569  1
  Te  Te77  1  0.07060648  0.42196865  0.75784931  1
  Te  Te78  1  0.06931749  0.75028140  0.09195963  1
  Te  Te79  1  0.07319392  0.74989196  0.41538653  1
  Te  Te80  1  0.08739801  0.75171817  0.72449227  1
  Te  Te81  1  0.40043033  0.08210289  0.09330957  1
  Te  Te82  1  0.42726358  0.08390443  0.40324770  1
  Te  Te83  1  0.37718747  0.02918839  0.71592299  1
  Te  Te84  1  0.42162994  0.43116213  0.08682329  1
  Te  Te85  1  0.42588673  0.43892627  0.43100633  1
  Te  Te86  1  0.40797234  0.39560322  0.75004526  1
  Te  Te87  1  0.42591849  0.75775317  0.08532520  1
  Te  Te88  1  0.37301887  0.67744077  0.43248042  1
  Te  Te89  1  0.39999571  0.76976562  0.74395765  1
  Te  Te90  1  0.74225624  0.09207570  0.09551694  1
  Te  Te91  1  0.74028880  0.08962162  0.41500867  1
  Te  Te92  1  0.75522206  0.08858751  0.74319941  1
  Te  Te93  1  0.75793694  0.40402164  0.09920699  1
  Te  Te94  1  0.75922399  0.40683956  0.39167300  1
  Te  Te95  1  0.75726397  0.41412013  0.75649824  1
  Te  Te96  1  0.72222424  0.75047011  0.07481348  1
  Te  Te97  1  0.77465635  0.77855539  0.43336116  1
  Te  Te98  1  0.73300405  0.74818477  0.74074134  1
  Te  Te99  1  0.07264393  0.26550764  0.27165928  1
  Te  Te100  1  0.08936529  0.25667909  0.60426475  1
  Te  Te101  1  0.08568551  0.25924411  0.92128142  1
  Te  Te102  1  0.07919970  0.57216604  0.25162045  1
  Te  Te103  1  0.10116638  0.59899211  0.56392887  1
  Te  Te104  1  0.09262085  0.58044699  0.91385078  1
  Te  Te105  1  0.08031356  0.90661851  0.24493308  1
  Te  Te106  1  0.09778315  0.93684897  0.57592461  1
  Te  Te107  1  0.06360566  0.89887481  0.89796936  1
  Te  Te108  1  0.41507176  0.24249136  0.24799367  1
  Te  Te109  1  0.45379328  0.26491972  0.55313291  1
  Te  Te110  1  0.42112002  0.24420570  0.91212742  1
  Te  Te111  1  0.40296237  0.59590219  0.23745221  1
  Te  Te112  1  0.43561123  0.61952215  0.57815265  1
  Te  Te113  1  0.43188581  0.58435065  0.91903372  1
  Te  Te114  1  0.42394610  0.90233386  0.28621649  1
  Te  Te115  1  0.37639236  0.87888357  0.54364258  1
  Te  Te116  1  0.43586505  0.90096859  0.91424350  1
  Te  Te117  1  0.78037056  0.28317390  0.21332304  1
  Te  Te118  1  0.73576795  0.24098926  0.56267755  1
  Te  Te119  1  0.73863507  0.26704460  0.93284715  1
  Te  Te120  1  0.76296940  0.58451997  0.26662234  1
  Te  Te121  1  0.75815185  0.60181126  0.56735996  1
  Te  Te122  1  0.75141982  0.61045820  0.92940214  1
  Te  Te123  1  0.75477790  0.91338009  0.25879109  1
  Te  Te124  1  0.74710602  0.88482217  0.54740051  1
  Te  Te125  1  0.74845609  0.91914994  0.94496147  1
  Te  Te126  1  0.25230352  0.23964047  0.10731388  1
  Te  Te127  1  0.25207385  0.24751939  0.42837929  1
  Te  Te128  1  0.25799101  0.22665470  0.76260065  1
  Te  Te129  1  0.22855925  0.58110096  0.07158375  1
  Te  Te130  1  0.24778644  0.61468805  0.38302408  1
  Te  Te131  1  0.26153879  0.56857372  0.75018483  1
  Te  Te132  1  0.23977575  0.90576485  0.08446666  1
  Te  Te133  1  0.26983032  0.94004065  0.43629887  1
  Te  Te134  1  0.26180390  0.93747469  0.76039260  1
  Te  Te135  1  0.59427101  0.24998256  0.08060052  1
  Te  Te136  1  0.56954132  0.26470965  0.45235118  1
  Te  Te137  1  0.56697755  0.22455232  0.74436818  1
  Te  Te138  1  0.59805986  0.57700786  0.08149306  1
  Te  Te139  1  0.59524659  0.59320602  0.41500384  1
  Te  Te140  1  0.58564439  0.56650594  0.74403799  1
  Te  Te141  1  0.56179094  0.92214983  0.08235930  1
  Te  Te142  1  0.57409364  0.89874637  0.42756988  1
  Te  Te143  1  0.58643545  0.91996084  0.73831978  1
  Te  Te144  1  0.93249476  0.28397038  0.06111690  1
  Te  Te145  1  0.91792061  0.23921457  0.42151902  1
  Te  Te146  1  0.92599264  0.25580571  0.74679750  1
  Te  Te147  1  0.91735276  0.58429182  0.09526309  1
  Te  Te148  1  0.89323032  0.58623566  0.40914461  1
  Te  Te149  1  0.93743135  0.60303057  0.73412969  1
  Te  Te150  1  0.91442908  0.90285494  0.07976346  1
  Te  Te151  1  0.90624319  0.88434956  0.41080807  1
  Te  Te152  1  0.92836843  0.91204076  0.74825137  1
  Te  Te153  1  0.26618234  0.06143484  0.26498107  1
  Te  Te154  1  0.24255383  0.04767209  0.54924570  1
  Te  Te155  1  0.23242276  0.04997760  0.91107080  1
  Te  Te156  1  0.24359017  0.41747744  0.27674725  1
  Te  Te157  1  0.26262229  0.41853739  0.57964763  1
  Te  Te158  1  0.24187299  0.40930424  0.94242183  1
  Te  Te159  1  0.24572991  0.76077980  0.27336713  1
  Te  Te160  1  0.24764463  0.76941010  0.55810615  1
  Te  Te161  1  0.26473647  0.75709827  0.90536747  1
  Te  Te162  1  0.59603671  0.09320732  0.24009316  1
  Te  Te163  1  0.58598619  0.07495000  0.57571005  1
  Te  Te164  1  0.59465896  0.06695730  0.92546542  1
  Te  Te165  1  0.58797393  0.40419732  0.27177667  1
  Te  Te166  1  0.59293568  0.42779328  0.59238229  1
  Te  Te167  1  0.58727087  0.42419390  0.94301151  1
  Te  Te168  1  0.57714397  0.75981690  0.27100035  1
  Te  Te169  1  0.57665213  0.76790154  0.54627468  1
  Te  Te170  1  0.57001438  0.74711197  0.91772762  1
  Te  Te171  1  0.92381907  0.08549253  0.26151477  1
  Te  Te172  1  0.92438730  0.05993628  0.59615933  1
  Te  Te173  1  0.90867028  0.09356909  0.91038077  1
  Te  Te174  1  0.87727984  0.38721131  0.27229793  1
  Te  Te175  1  0.92628845  0.42059714  0.59114131  1
  Te  Te176  1  0.92281620  0.45189414  0.90294037  1
  Te  Te177  1  0.91282422  0.77071181  0.23878165  1
  Te  Te178  1  0.93276209  0.72691725  0.60076055  1
  Te  Te179  1  0.92197598  0.77058768  0.90867339  1
