# generated using pymatgen
data_In2Te3
_symmetry_space_group_name_H-M   'P 1'
_cell_length_a   18.83438410
_cell_length_b   18.82553211
_cell_length_c   18.82917973
_cell_angle_alpha   89.88443697
_cell_angle_beta   89.92305298
_cell_angle_gamma   89.88228689
_symmetry_Int_Tables_number   1
_chemical_formula_structural   In2Te3
_chemical_formula_sum   'In72 Te108'
_cell_volume   6676.17781455
_cell_formula_units_Z   36
loop_
 _symmetry_equiv_pos_site_id
 _symmetry_equiv_pos_as_xyz
  1  'x, y, z'
loop_
 _atom_site_type_symbol
 _atom_site_label
 _atom_site_symmetry_multiplicity
 _atom_site_fract_x
 _atom_site_fract_y
 _atom_site_fract_z
 _atom_site_occupancy
  In  In0  1  0.32239524  -0.00062301  0.00101318  1
  In  In1  1  -0.01652614  0.53500363  0.81813280  1
  In  In2  1  0.18666157  0.65553355  0.82847676  1
  In  In3  1  0.81959091  0.30574390  0.84433490  1
  In  In4  1  0.81843900  0.33628274  0.16550463  1
  In  In5  1  -0.00964520  0.30789127  0.29898247  1
  In  In6  1  0.66897320  0.83408905  0.16529410  1
  In  In7  1  0.80453668  0.66226061  0.49503258  1
  In  In8  1  0.17939421  0.85283658  0.65243078  1
  In  In9  1  0.86216295  0.00622625  0.50648315  1
  In  In10  1  0.34654616  0.50814614  0.52666162  1
  In  In11  1  0.35570157  0.34785125  0.66581042  1
  In  In12  1  0.32113458  0.69164840  0.30568875  1
  In  In13  1  0.82305929  0.00470951  0.83806327  1
  In  In14  1  0.16980455  0.31391140  0.15551485  1
  In  In15  1  -0.01098708  0.14380986  0.49608652  1
  In  In16  1  0.67348001  -0.01176255  0.32737657  1
  In  In17  1  0.15260255  0.84864088  0.01096284  1
  In  In18  1  0.00255028  0.33266966  0.01791996  1
  In  In19  1  0.66703552  -0.01457172  0.00212114  1
  In  In20  1  0.67154327  0.18308313  0.49730280  1
  In  In21  1  0.33963533  0.14782452  0.85204933  1
  In  In22  1  0.52145595  0.47384383  -0.02544634  1
  In  In23  1  0.15499132  0.50312472  0.33391704  1
  In  In24  1  0.48960305  0.68716793  0.17558306  1
  In  In25  1  0.20253217  0.31884287  0.48270534  1
  In  In26  1  0.32371600  -0.01600969  0.67360387  1
  In  In27  1  0.53179311  0.02708473  0.82553761  1
  In  In28  1  0.33750759  0.83431587  0.49071581  1
  In  In29  1  0.00211953  0.50089299  0.17241669  1
  In  In30  1  0.34670077  0.66546177  0.02406787  1
  In  In31  1  0.49748706  0.00978997  0.50986312  1
  In  In32  1  0.84616236  0.48391896  0.01384817  1
  In  In33  1  0.00035913  -0.04403621  0.29744224  1
  In  In34  1  0.50018393  0.15662708  -0.01717423  1
  In  In35  1  0.47938485  0.16031970  0.33990406  1
  In  In36  1  0.50428489  0.67291434  0.85132904  1
  In  In37  1  0.67952876  0.52595030  0.17483800  1
  In  In38  1  0.67308789  0.14578087  0.16164623  1
  In  In39  1  0.01733265  0.85090899  0.85004169  1
  In  In40  1  -0.00042368  0.85334326  0.48982342  1
  In  In41  1  0.50115990  0.32510084  0.18621271  1
  In  In42  1  0.51555203  0.50919925  0.66556671  1
  In  In43  1  0.15318700  0.15652631  0.68608795  1
  In  In44  1  0.17382230  0.51725200  0.71019384  1
  In  In45  1  -0.02208012  0.32732100  0.64232990  1
  In  In46  1  0.34215586  0.19164109  0.49207724  1
  In  In47  1  0.54043425  0.52580809  0.36368885  1
  In  In48  1  0.33959873  0.83555429  0.82835367  1
  In  In49  1  0.01212428  0.14558580  0.12116268  1
  In  In50  1  0.67067510  0.66635711  0.00704203  1
  In  In51  1  0.48256482  0.84447055  0.31317367  1
  In  In52  1  -0.00085860  0.50257017  0.49337069  1
  In  In53  1  0.52624020  0.35974720  0.49601208  1
  In  In54  1  0.17613823  -0.00332938  0.48093486  1
  In  In55  1  -0.01729348  0.66084074  0.69171845  1
  In  In56  1  0.34414832  0.30137532  0.34047576  1
  In  In57  1  0.67247360  0.00330338  0.69470274  1
  In  In58  1  0.16849022  0.33727107  0.83989085  1
  In  In59  1  -0.01142115  0.69767245  0.32324317  1
  In  In60  1  0.85724730  0.16872139  0.31544738  1
  In  In61  1  0.49388179  0.82180589  0.00057517  1
  In  In62  1  0.17298959  0.68075524  0.50754592  1
  In  In63  1  0.67567937  0.80135928  0.50192925  1
  In  In64  1  0.31336774  0.32431627  0.00036442  1
  In  In65  1  0.78601761  0.36447427  0.47713749  1
  In  In66  1  0.32065668  0.50571030  0.15728289  1
  In  In67  1  0.83126739  0.83323712  0.66278778  1
  In  In68  1  -0.01382183  0.67498504  -0.00129617  1
  In  In69  1  -0.00296819  0.14401808  0.86408030  1
  In  In70  1  0.67551630  0.47436914  0.83274245  1
  In  In71  1  0.82826746  0.68559816  0.81911448  1
  Te  Te72  1  0.10877702  0.04622164  0.06804542  1
  Te  Te73  1  0.06656196  0.06093977  0.39586169  1
  Te  Te74  1  0.07343621  0.06253336  0.76505010  1
  Te  Te75  1  0.10108444  0.42926952  0.08138730  1
  Te  Te76  1  0.07417002  0.39745137  0.40936266  1
  Te  Te77  1  0.06658413  0.41418849  0.74048933  1
  Te  Te78  1  0.05588211  0.76762392  0.09343341  1
  Te  Te79  1  0.09563190  0.76692192  0.40960092  1
  Te  Te80  1  0.09179980  0.75384441  0.74809948  1
  Te  Te81  1  0.42582589  0.07222741  0.07822322  1
  Te  Te82  1  0.38734972  0.05600463  0.41295855  1
  Te  Te83  1  0.41106183  0.09509263  0.73144559  1
  Te  Te84  1  0.42323492  0.41437854  0.08594797  1
  Te  Te85  1  0.40955226  0.42141111  0.41704956  1
  Te  Te86  1  0.44543546  0.41603730  0.75832156  1
  Te  Te87  1  0.39199523  0.78352112  0.10824928  1
  Te  Te88  1  0.42366518  0.73962907  0.40756630  1
  Te  Te89  1  0.43851156  0.75979515  0.75073458  1
  Te  Te90  1  0.76750053  0.06392459  0.08073129  1
  Te  Te91  1  0.75914233  0.08665752  0.41052218  1
  Te  Te92  1  0.77154106  0.10365130  0.73795083  1
  Te  Te93  1  0.72515493  0.41791903  0.07700597  1
  Te  Te94  1  0.72729249  0.46405641  0.38394193  1
  Te  Te95  1  0.74520810  0.38162485  0.73998579  1
  Te  Te96  1  0.76525278  0.74435523  0.09224601  1
  Te  Te97  1  0.76948455  0.76626103  0.39253535  1
  Te  Te98  1  0.73276948  0.74252820  0.72274604  1
  Te  Te99  1  0.08957223  0.21202100  0.23729716  1
  Te  Te100  1  0.09049035  0.24367567  0.57286206  1
  Te  Te101  1  0.09312665  0.24403833  0.93377585  1
  Te  Te102  1  0.08719565  0.60424481  0.24509317  1
  Te  Te103  1  0.08528480  0.58551065  0.59048824  1
  Te  Te104  1  0.08411959  0.58550168  0.92042493  1
  Te  Te105  1  0.11494030  0.89570964  0.22460849  1
  Te  Te106  1  0.07542905  0.94232378  0.58640592  1
  Te  Te107  1  0.04480245  0.94638986  0.96395279  1
  Te  Te108  1  0.39726298  0.22018392  0.22273177  1
  Te  Te109  1  0.44680396  0.25860337  0.58211038  1
  Te  Te110  1  0.41902128  0.26373824  0.90770522  1
  Te  Te111  1  0.41707035  0.57550498  0.25504624  1
  Te  Te112  1  0.44228956  0.60801731  0.57774253  1
  Te  Te113  1  0.41456027  0.57283546  0.92376134  1
  Te  Te114  1  0.39959246  0.94525675  0.24388337  1
  Te  Te115  1  0.42636808  0.90351723  0.59388887  1
  Te  Te116  1  0.43094491  0.93151682  0.90737499  1
  Te  Te117  1  0.73885420  0.24703695  0.25922904  1
  Te  Te118  1  0.75372598  0.26792503  0.58556467  1
  Te  Te119  1  0.72806732  0.25254651  0.94614540  1
  Te  Te120  1  0.74025404  0.58822803  0.29264097  1
  Te  Te121  1  0.71562703  0.55995438  0.56087374  1
  Te  Te122  1  0.76308018  0.57898169  0.92129437  1
  Te  Te123  1  0.76657728  0.93855442  0.21887075  1
  Te  Te124  1  0.74629747  0.92686231  0.57145348  1
  Te  Te125  1  0.73770453  0.90122279  0.90335927  1
  Te  Te126  1  0.25548542  0.21804843  0.08423785  1
  Te  Te127  1  0.22926089  0.20850674  0.38411731  1
  Te  Te128  1  0.25686558  0.25450664  0.74527647  1
  Te  Te129  1  0.23281841  0.60521553  0.09504535  1
  Te  Te130  1  0.25414379  0.58601364  0.41631790  1
  Te  Te131  1  0.29390268  0.59007930  0.74977163  1
  Te  Te132  1  0.22793881  0.94134553  0.10651781  1
  Te  Te133  1  0.24340279  0.89610083  0.39191159  1
  Te  Te134  1  0.22704426  0.92698604  0.77734406  1
  Te  Te135  1  0.58003849  0.24197131  0.08787849  1
  Te  Te136  1  0.58303069  0.25765491  0.39738998  1
  Te  Te137  1  0.56826965  0.16657399  0.78603819  1
  Te  Te138  1  0.56007463  0.58895514  0.07910116  1
  Te  Te139  1  0.60665332  0.61801281  0.46787665  1
  Te  Te140  1  0.60057167  0.58877361  0.76579973  1
  Te  Te141  1  0.56432225  0.91922703  0.09453209  1
  Te  Te142  1  0.57766391  0.91144000  0.42157978  1
  Te  Te143  1  0.56989209  0.90922659  0.74435699  1
  Te  Te144  1  0.89730278  0.24189982  0.07671431  1
  Te  Te145  1  0.90870327  0.26080167  0.42660437  1
  Te  Te146  1  0.93430809  0.24553565  0.76244648  1
  Te  Te147  1  0.90327035  0.59332277  0.10187661  1
  Te  Te148  1  0.91473820  0.59158284  0.40435261  1
  Te  Te149  1  0.86696413  0.56793161  0.72498987  1
  Te  Te150  1  0.86896962  0.87893653  0.11314909  1
  Te  Te151  1  0.89265385  0.90457831  0.39457290  1
  Te  Te152  1  0.92074232  0.91612219  0.74945884  1
  Te  Te153  1  0.29367484  0.04028432  0.29022720  1
  Te  Te154  1  0.25502361  0.08967157  0.58103644  1
  Te  Te155  1  0.22797781  0.08058469  0.91861287  1
  Te  Te156  1  0.24832348  0.40468901  0.25952391  1
  Te  Te157  1  0.23377024  0.42330145  0.59088353  1
  Te  Te158  1  0.25000006  0.43011349  0.91890867  1
  Te  Te159  1  0.22167106  0.78197992  0.24938400  1
  Te  Te160  1  0.27234217  0.74429136  0.60215170  1
  Te  Te161  1  0.25086242  0.75826345  0.92926912  1
  Te  Te162  1  0.57176422  0.07313655  0.25231195  1
  Te  Te163  1  0.59260516  0.09297498  0.59038116  1
  Te  Te164  1  0.64375664  0.12333098  0.91599517  1
  Te  Te165  1  0.58951875  0.42568168  0.25593512  1
  Te  Te166  1  0.62076867  0.43319416  0.58589070  1
  Te  Te167  1  0.60198779  0.36690670  0.90761530  1
  Te  Te168  1  0.59567590  0.74431479  0.26532712  1
  Te  Te169  1  0.57723489  0.72208061  0.57749543  1
  Te  Te170  1  0.60834885  0.76910773  0.91358315  1
  Te  Te171  1  0.92631944  0.06976924  0.22349711  1
  Te  Te172  1  0.90265416  0.10285167  0.61048263  1
  Te  Te173  1  0.89589184  0.07387320  0.94846547  1
  Te  Te174  1  0.90097293  0.42536714  0.25737122  1
  Te  Te175  1  0.89188080  0.43242326  0.57419809  1
  Te  Te176  1  0.92932085  0.41358800  0.90791274  1
  Te  Te177  1  0.93163207  0.78360718  0.21174273  1
  Te  Te178  1  0.92650150  0.74520262  0.57079889  1
  Te  Te179  1  0.90307728  0.77369156  0.91714113  1
