# generated using pymatgen
data_In2Te3
_symmetry_space_group_name_H-M   'P 1'
_cell_length_a   18.74714802
_cell_length_b   18.74164922
_cell_length_c   18.74526211
_cell_angle_alpha   89.99036196
_cell_angle_beta   89.98213792
_cell_angle_gamma   90.06866815
_symmetry_Int_Tables_number   1
_chemical_formula_structural   In2Te3
_chemical_formula_sum   'In72 Te108'
_cell_volume   6586.18903690
_cell_formula_units_Z   36
loop_
 _symmetry_equiv_pos_site_id
 _symmetry_equiv_pos_as_xyz
  1  'x, y, z'
loop_
 _atom_site_type_symbol
 _atom_site_label
 _atom_site_symmetry_multiplicity
 _atom_site_fract_x
 _atom_site_fract_y
 _atom_site_fract_z
 _atom_site_occupancy
  In  In0  1  0.51630096  0.17546673  0.66606876  1
  In  In1  1  0.31006523  0.14188452  0.86565791  1
  In  In2  1  0.31932243  0.14857346  0.48934637  1
  In  In3  1  0.00935085  -0.02073512  0.31310935  1
  In  In4  1  0.50542460  0.68591078  0.47985671  1
  In  In5  1  0.66470144  0.83502943  0.48758779  1
  In  In6  1  0.49701279  0.00078826  0.49209158  1
  In  In7  1  -0.00537373  0.67433643  0.01947216  1
  In  In8  1  -0.01269741  0.33964478  0.32162571  1
  In  In9  1  -0.00896305  0.17653316  0.48450963  1
  In  In10  1  0.48112586  0.35919460  0.47998824  1
  In  In11  1  0.33709345  0.47753379  0.48842872  1
  In  In12  1  0.49602726  0.16201460  0.34750011  1
  In  In13  1  -0.00927003  0.82192105  0.84356300  1
  In  In14  1  0.34661758  -0.00787466  0.65686739  1
  In  In15  1  0.52056543  0.33555682  0.17097724  1
  In  In16  1  0.67167286  0.49134935  0.49504721  1
  In  In17  1  0.65817037  0.14979621  0.48301809  1
  In  In18  1  0.84748079  0.80207503  0.29869615  1
  In  In19  1  0.83918632  0.32794449  0.86270825  1
  In  In20  1  -0.02138093  0.55141906  0.45873448  1
  In  In21  1  0.00218683  0.49270619  0.14250090  1
  In  In22  1  0.49712248  -0.01529789  0.84562100  1
  In  In23  1  0.16762001  0.67571537  0.84098235  1
  In  In24  1  0.16243880  0.83764274  0.66427974  1
  In  In25  1  0.49168020  0.00168188  0.18444135  1
  In  In26  1  0.82602845  0.34100924  0.48079529  1
  In  In27  1  0.29994818  0.86360323  0.15418003  1
  In  In28  1  0.31402140  0.51345064  0.16096842  1
  In  In29  1  -0.00734701  0.17394622  0.14868900  1
  In  In30  1  0.32364059  0.32204982  0.00226470  1
  In  In31  1  0.15514690  0.00104984  0.84862698  1
  In  In32  1  0.51884528  0.18032938  0.02972845  1
  In  In33  1  -0.01804347  0.50091130  0.85231374  1
  In  In34  1  0.01100289  0.33521802  0.68597439  1
  In  In35  1  0.17652276  0.33127801  0.49555221  1
  In  In36  1  0.68644945  0.01088751  0.00349050  1
  In  In37  1  0.69760088  0.64370122  0.00898939  1
  In  In38  1  0.84122580  -0.01297269  0.16339201  1
  In  In39  1  0.67831079  0.65689572  0.32303079  1
  In  In40  1  0.67509170  0.81034536  0.16379317  1
  In  In41  1  0.19529675  0.14404497  0.67352538  1
  In  In42  1  0.82034153  0.00157433  0.48844867  1
  In  In43  1  0.33140011  0.69772041  0.66913657  1
  In  In44  1  0.00598660  -0.01421450  0.01907121  1
  In  In45  1  0.15458329  0.49925373  0.31228128  1
  In  In46  1  0.84375391  0.16950268  0.00634066  1
  In  In47  1  0.85633840  0.51526017  0.66939691  1
  In  In48  1  0.50504025  0.53969178  0.67517875  1
  In  In49  1  0.51880138  0.67151022  0.16517670  1
  In  In50  1  0.52215947  0.51024151  -0.00184248  1
  In  In51  1  0.48330558  0.84285857  -0.00573337  1
  In  In52  1  0.84134167  0.81610164  0.65886953  1
  In  In53  1  0.14803739  0.33715561  0.86511267  1
  In  In54  1  0.82383524  0.13403805  0.67779222  1
  In  In55  1  0.68292211  0.33492915  0.67452336  1
  In  In56  1  0.32708166  0.48817895  0.83610865  1
  In  In57  1  0.50624353  0.67897127  0.81263437  1
  In  In58  1  0.00673210  0.82204490  0.50695635  1
  In  In59  1  0.15600032  0.66762791  0.50531423  1
  In  In60  1  0.03680654  0.17902705  0.85339440  1
  In  In61  1  0.18288640  0.84649758  0.33552804  1
  In  In62  1  0.16739697  0.16087388  0.32079487  1
  In  In63  1  0.32738942  0.14650419  0.16549810  1
  In  In64  1  0.66735406  0.66217532  0.68017420  1
  In  In65  1  0.34099820  0.68708670  0.32868739  1
  In  In66  1  0.69913931  0.33561215  0.29858931  1
  In  In67  1  0.82813090  -0.01500525  0.82865957  1
  In  In68  1  0.52611943  0.35822791  0.86144788  1
  In  In69  1  0.31573286  0.34445230  0.65182707  1
  In  In70  1  0.66484560  0.83920918  0.84285992  1
  In  In71  1  0.30524311  0.65761200  0.00919215  1
  Te  Te72  1  0.09214464  0.07048070  0.10573645  1
  Te  Te73  1  0.07979336  0.07474666  0.41288075  1
  Te  Te74  1  0.07597910  0.07845656  0.74248527  1
  Te  Te75  1  0.07304925  0.39717023  0.05314687  1
  Te  Te76  1  0.06811686  0.41908275  0.42632781  1
  Te  Te77  1  0.09288994  0.43682987  0.76169367  1
  Te  Te78  1  0.04900879  0.77822916  0.11646804  1
  Te  Te79  1  0.08184586  0.74681959  0.39763453  1
  Te  Te80  1  0.07302399  0.74051235  0.74051752  1
  Te  Te81  1  0.41943263  0.07118171  0.06838208  1
  Te  Te82  1  0.39080846  0.05477154  0.39016004  1
  Te  Te83  1  0.41074689  0.09912368  0.74911726  1
  Te  Te84  1  0.42256937  0.42156530  0.07613005  1
  Te  Te85  1  0.40226071  0.41840741  0.36962411  1
  Te  Te86  1  0.42506137  0.41158444  0.74513022  1
  Te  Te87  1  0.40895426  0.74784677  0.09067670  1
  Te  Te88  1  0.41295818  0.78293878  0.41666269  1
  Te  Te89  1  0.41681629  0.78129864  0.75610231  1
  Te  Te90  1  0.74082482  0.09883674  0.11513703  1
  Te  Te91  1  0.74986640  0.08481159  0.38841004  1
  Te  Te92  1  0.72519303  0.07026809  0.76577007  1
  Te  Te93  1  0.78265482  0.47634764  0.13383035  1
  Te  Te94  1  0.76941261  0.44497465  0.38727343  1
  Te  Te95  1  0.77206493  0.42219890  0.75985412  1
  Te  Te96  1  0.78034994  0.73581005  0.09124598  1
  Te  Te97  1  0.76424823  0.74086195  0.42006266  1
  Te  Te98  1  0.76053955  0.74391465  0.76925459  1
  Te  Te99  1  0.08656449  0.26118061  0.23714452  1
  Te  Te100  1  0.09520051  0.23831601  0.58911105  1
  Te  Te101  1  0.07807111  0.25797158  0.97496761  1
  Te  Te102  1  0.05000286  0.58776644  0.25105876  1
  Te  Te103  1  0.05463182  0.58779701  0.58070575  1
  Te  Te104  1  0.08483623  0.58567764  0.93157980  1
  Te  Te105  1  0.09681171  0.90033475  0.22131584  1
  Te  Te106  1  0.07436313  0.92722866  0.58513802  1
  Te  Te107  1  0.09277882  0.88904755  0.93447230  1
  Te  Te108  1  0.42037491  0.24424528  0.24255315  1
  Te  Te109  1  0.41258865  0.24443052  0.57282241  1
  Te  Te110  1  0.42549419  0.24906443  0.91290090  1
  Te  Te111  1  0.42006781  0.58535382  0.24644670  1
  Te  Te112  1  0.40700164  0.59294493  0.57019448  1
  Te  Te113  1  0.41627703  0.58931709  0.91123887  1
  Te  Te114  1  0.41216634  0.89344722  0.24592945  1
  Te  Te115  1  0.42369058  0.89851034  0.57267538  1
  Te  Te116  1  0.38336645  0.92927834  0.92474604  1
  Te  Te117  1  0.74927275  0.23339865  0.20423263  1
  Te  Te118  1  0.75804821  0.24128294  0.57870093  1
  Te  Te119  1  0.74018699  0.23576666  0.92288861  1
  Te  Te120  1  0.78426670  0.59644759  0.23409648  1
  Te  Te121  1  0.75514251  0.58829460  0.57858702  1
  Te  Te122  1  0.73443982  0.54322151  0.90775416  1
  Te  Te123  1  0.74646373  0.91031683  0.25695649  1
  Te  Te124  1  0.74624806  0.91519833  0.59171808  1
  Te  Te125  1  0.76771336  0.89964586  0.94030341  1
  Te  Te126  1  0.24004007  0.24693271  0.09751116  1
  Te  Te127  1  0.26396063  0.25736502  0.39699950  1
  Te  Te128  1  0.24553002  0.25959418  0.76381707  1
  Te  Te129  1  0.20675558  0.59740171  0.10137718  1
  Te  Te130  1  0.24730463  0.58432223  0.40818981  1
  Te  Te131  1  0.25450678  0.58940277  0.74594506  1
  Te  Te132  1  0.24529626  0.94938009  0.04796857  1
  Te  Te133  1  0.25105595  0.95497768  0.40892758  1
  Te  Te134  1  0.24995044  0.92300491  0.75649262  1
  Te  Te135  1  0.62245235  0.27794204  0.07706765  1
  Te  Te136  1  0.59339326  0.27193371  0.41582319  1
  Te  Te137  1  0.59756512  0.25253151  0.77023367  1
  Te  Te138  1  0.61086455  0.56444056  0.11133743  1
  Te  Te139  1  0.57612383  0.57270737  0.40669712  1
  Te  Te140  1  0.61029568  0.56460606  0.78563032  1
  Te  Te141  1  0.59002621  0.91549218  0.08155143  1
  Te  Te142  1  0.59384374  0.93246581  0.40233798  1
  Te  Te143  1  0.57502660  0.90716502  0.74747600  1
  Te  Te144  1  0.88536121  0.27256494  0.10868368  1
  Te  Te145  1  0.89100960  0.23855702  0.38734228  1
  Te  Te146  1  0.91536788  0.23790765  0.75679205  1
  Te  Te147  1  0.89335949  0.56452713  0.06096122  1
  Te  Te148  1  0.87421596  0.60687003  0.37097088  1
  Te  Te149  1  0.91631000  0.60585272  0.77022603  1
  Te  Te150  1  0.91786733  0.88379475  0.08710538  1
  Te  Te151  1  0.91010501  0.90353675  0.40554955  1
  Te  Te152  1  0.92866197  0.91533016  0.73828796  1
  Te  Te153  1  0.24779735  0.05436964  0.25402176  1
  Te  Te154  1  0.23351119  0.04446018  0.56117155  1
  Te  Te155  1  0.21370547  0.08166378  0.96645151  1
  Te  Te156  1  0.23982971  0.40801227  0.23466461  1
  Te  Te157  1  0.22209368  0.44530801  0.58782105  1
  Te  Te158  1  0.23613413  0.43621419  0.94556351  1
  Te  Te159  1  0.23804580  0.74349621  0.23213833  1
  Te  Te160  1  0.25410079  0.77183728  0.55980724  1
  Te  Te161  1  0.25894383  0.76308435  0.91747421  1
  Te  Te162  1  0.58395715  0.09915336  0.24657477  1
  Te  Te163  1  0.59434870  0.06694397  0.59407041  1
  Te  Te164  1  0.58190332  0.08603033  0.92272711  1
  Te  Te165  1  0.58982824  0.42878003  0.26339177  1
  Te  Te166  1  0.57759945  0.41448244  0.59487115  1
  Te  Te167  1  0.63563831  0.42234092  0.94464529  1
  Te  Te168  1  0.57789885  0.76202031  0.27271646  1
  Te  Te169  1  0.58195990  0.75426872  0.59310539  1
  Te  Te170  1  0.58596426  0.73925781  0.93792810  1
  Te  Te171  1  0.91836862  0.08520394  0.25148984  1
  Te  Te172  1  0.92288681  0.07436602  0.57819498  1
  Te  Te173  1  0.92670826  0.07563020  0.91479168  1
  Te  Te174  1  0.89796103  0.41645401  0.22793836  1
  Te  Te175  1  0.92231102  0.40632150  0.58091744  1
  Te  Te176  1  0.93027434  0.40289041  0.95498255  1
  Te  Te177  1  0.95493035  0.72311561  0.22981350  1
  Te  Te178  1  0.92352716  0.72095085  0.57846054  1
  Te  Te179  1  0.90033404  0.73023645  0.91693058  1
