# generated using pymatgen
data_In2Te3
_symmetry_space_group_name_H-M   'P 1'
_cell_length_a   18.97498318
_cell_length_b   18.97194149
_cell_length_c   18.98313331
_cell_angle_alpha   89.98095429
_cell_angle_beta   90.13082617
_cell_angle_gamma   89.96053134
_symmetry_Int_Tables_number   1
_chemical_formula_structural   In2Te3
_chemical_formula_sum   'In72 Te108'
_cell_volume   6833.76144647
_cell_formula_units_Z   36
loop_
 _symmetry_equiv_pos_site_id
 _symmetry_equiv_pos_as_xyz
  1  'x, y, z'
loop_
 _atom_site_type_symbol
 _atom_site_label
 _atom_site_symmetry_multiplicity
 _atom_site_fract_x
 _atom_site_fract_y
 _atom_site_fract_z
 _atom_site_occupancy
  In  In0  1  0.33631948  0.32191502  0.66810550  1
  In  In1  1  0.82808318  0.50067825  0.00510536  1
  In  In2  1  0.83168376  0.51673489  0.64224068  1
  In  In3  1  0.51564393  0.32120330  0.83694054  1
  In  In4  1  0.29914685  0.83529506  0.01333102  1
  In  In5  1  0.48197059  0.14842678  0.01981409  1
  In  In6  1  0.14034202  0.51108560  0.65275315  1
  In  In7  1  0.33416173  0.66967703  0.67296836  1
  In  In8  1  0.82577733  0.68076803  0.79281704  1
  In  In9  1  0.85459092  0.33797918  0.84221671  1
  In  In10  1  0.16790882  0.32674284  0.81885257  1
  In  In11  1  0.48842998  0.81993241  0.00203784  1
  In  In12  1  -0.04255485  0.30153672  0.03435922  1
  In  In13  1  -0.00908789  0.67396769  0.66246494  1
  In  In14  1  0.65821461  0.67449699  0.32737664  1
  In  In15  1  0.18058251  0.49980040  0.33425450  1
  In  In16  1  0.83100062  0.84094647  0.30796511  1
  In  In17  1  0.14692806  0.35489875  0.50911966  1
  In  In18  1  0.81979213  0.15620243  0.32786008  1
  In  In19  1  0.50835278  0.31825051  0.18483244  1
  In  In20  1  0.00151932  0.81071240  0.18021277  1
  In  In21  1  0.81349561  0.16156418  0.65077600  1
  In  In22  1  0.34914586  0.33327036  0.31958747  1
  In  In23  1  0.49594853  0.83125389  0.67563663  1
  In  In24  1  0.19874877  0.14603673  0.32205381  1
  In  In25  1  -0.00364129  0.32011682  0.30942741  1
  In  In26  1  0.16870446  0.51715253  0.01969357  1
  In  In27  1  0.33590567  0.00406482  0.67560058  1
  In  In28  1  0.33233359  0.16798380  0.48317874  1
  In  In29  1  0.00379742  0.16303062  0.85000643  1
  In  In30  1  0.49428446  0.50352469  0.33159307  1
  In  In31  1  0.67430083  0.49913552  0.16897963  1
  In  In32  1  0.48819127  0.65512607  0.49039821  1
  In  In33  1  0.17967549  0.33387027  0.17995297  1
  In  In34  1  0.66722511  0.16337318  0.16757046  1
  In  In35  1  0.66480205  0.33905397  0.65352623  1
  In  In36  1  0.66017264  0.68536676  0.00278581  1
  In  In37  1  -0.00231871  0.84241918  0.82855897  1
  In  In38  1  0.49709522  0.68552327  0.83426203  1
  In  In39  1  -0.01346113  0.00239600  0.67513863  1
  In  In40  1  0.34138461  0.33508111  0.02067781  1
  In  In41  1  -0.01725382  0.01109444  0.00123398  1
  In  In42  1  0.51544499  0.34584242  0.49732869  1
  In  In43  1  0.33483331  0.49013147  0.81430409  1
  In  In44  1  0.50958536  0.49519521  -0.01767042  1
  In  In45  1  0.53591113  -0.02259726  0.47311519  1
  In  In46  1  0.15933479  0.01216364  0.86184426  1
  In  In47  1  0.35309018  -0.02312745  0.32529129  1
  In  In48  1  0.67142601  0.66746555  0.65184674  1
  In  In49  1  0.33267418  0.80392369  0.51515136  1
  In  In50  1  0.69124371  0.17855636  0.83223525  1
  In  In51  1  0.81269253  0.83635377  -0.01141457  1
  In  In52  1  0.15373427  0.00335542  0.50856154  1
  In  In53  1  0.16672250  0.83662038  0.66009732  1
  In  In54  1  -0.03551539  0.80583139  0.47571273  1
  In  In55  1  0.13724689  0.84721569  0.34694766  1
  In  In56  1  0.18980576  0.68201746  0.16560268  1
  In  In57  1  0.80567138  -0.02681400  0.50436390  1
  In  In58  1  0.66960140  0.82948517  0.18367385  1
  In  In59  1  0.68246097  0.01289987  0.01014589  1
  In  In60  1  -0.00638120  0.34698960  0.64898006  1
  In  In61  1  0.63006728  0.16512451  0.50440246  1
  In  In62  1  0.48917862  -0.00367012  0.83249101  1
  In  In63  1  0.01827851  0.18593103  0.49497416  1
  In  In64  1  0.81005488  0.00004011  0.17072632  1
  In  In65  1  -0.00270720  0.49885244  0.17839940  1
  In  In66  1  0.31846970  0.66837186  0.33553092  1
  In  In67  1  0.01298594  0.65922437  0.00325175  1
  In  In68  1  0.49422144  0.00407326  0.17076833  1
  In  In69  1  0.17342050  0.15603710  0.01025153  1
  In  In70  1  0.84774506  0.51425814  0.36168034  1
  In  In71  1  0.65588435  0.51741904  0.81113133  1
  Te  Te72  1  0.07215890  0.08652002  0.08937543  1
  Te  Te73  1  0.08353239  0.08480761  0.40213435  1
  Te  Te74  1  0.08756704  0.08766609  0.74931384  1
  Te  Te75  1  0.08031241  0.40576205  0.09110690  1
  Te  Te76  1  0.06753126  0.42107414  0.40007223  1
  Te  Te77  1  0.06976028  0.42357708  0.75595570  1
  Te  Te78  1  0.09914638  0.76130998  0.07368852  1
  Te  Te79  1  0.07641598  0.73298133  0.41694575  1
  Te  Te80  1  0.08854169  0.74667095  0.75514306  1
  Te  Te81  1  0.38397884  0.05017419  0.07960179  1
  Te  Te82  1  0.42816154  0.07441013  0.41398400  1
  Te  Te83  1  0.41995537  0.09655782  0.75048768  1
  Te  Te84  1  0.43807529  0.42282386  0.09441733  1
  Te  Te85  1  0.40478915  0.42360111  0.42513544  1
  Te  Te86  1  0.43909560  0.40969082  0.74047292  1
  Te  Te87  1  0.39300207  0.74503625  0.08510696  1
  Te  Te88  1  0.42518357  0.76228483  0.40530947  1
  Te  Te89  1  0.38380386  0.77853310  0.77457568  1
  Te  Te90  1  0.78249094  0.11237506  0.06713411  1
  Te  Te91  1  0.73413307  0.08117058  0.42748151  1
  Te  Te92  1  0.74013493  0.07433461  0.74081578  1
  Te  Te93  1  0.75295579  0.40670253  0.08666035  1
  Te  Te94  1  0.77536601  0.42827878  0.45508051  1
  Te  Te95  1  0.76291046  0.41964664  0.74939517  1
  Te  Te96  1  0.76137141  0.74401596  0.09857002  1
  Te  Te97  1  0.74178738  0.77158052  0.40816252  1
  Te  Te98  1  0.71128352  0.76359642  0.75783150  1
  Te  Te99  1  0.09417813  0.22640722  0.24214610  1
  Te  Te100  1  0.10124372  0.24766149  0.60570870  1
  Te  Te101  1  0.08116768  0.26251921  0.93227879  1
  Te  Te102  1  0.09632984  0.58991424  0.24543454  1
  Te  Te103  1  0.03694409  0.57209798  0.55996529  1
  Te  Te104  1  0.10495455  0.59188117  0.91227403  1
  Te  Te105  1  0.05942008  0.92508325  0.25109464  1
  Te  Te106  1  0.05788392  0.90387030  0.57575055  1
  Te  Te107  1  0.07943780  0.90953565  0.93691697  1
  Te  Te108  1  0.40935896  0.22579975  0.24219566  1
  Te  Te109  1  0.42526567  0.24370205  0.57449237  1
  Te  Te110  1  0.41581963  0.24743728  0.92248367  1
  Te  Te111  1  0.41374614  0.59507431  0.25144662  1
  Te  Te112  1  0.40498296  0.57895159  0.58361058  1
  Te  Te113  1  0.41157173  0.58277438  0.90778827  1
  Te  Te114  1  0.45829523  0.89530670  0.26337697  1
  Te  Te115  1  0.41398533  0.91903414  0.57425033  1
  Te  Te116  1  0.40244797  0.91975115  0.92628000  1
  Te  Te117  1  0.73898593  0.25544618  0.25662407  1
  Te  Te118  1  0.74524330  0.25636914  0.55684771  1
  Te  Te119  1  0.76929782  0.25685760  0.92809395  1
  Te  Te120  1  0.75963364  0.58842406  0.25601918  1
  Te  Te121  1  0.77387701  0.62025580  0.55521662  1
  Te  Te122  1  0.74537920  0.59527574  0.90787847  1
  Te  Te123  1  0.70723039  0.94790686  0.27150767  1
  Te  Te124  1  0.77981624  0.87379077  0.60814909  1
  Te  Te125  1  0.75918764  0.94395693  0.90478593  1
  Te  Te126  1  0.26601014  0.23476118  0.10466099  1
  Te  Te127  1  0.23445150  0.26974226  0.41420546  1
  Te  Te128  1  0.26736455  0.23516230  0.76505248  1
  Te  Te129  1  0.27450989  0.59221604  0.08495946  1
  Te  Te130  1  0.25223977  0.58089712  0.43239900  1
  Te  Te131  1  0.23451784  0.58305286  0.75034218  1
  Te  Te132  1  0.26414444  0.94917060  0.10086812  1
  Te  Te133  1  0.25506775  0.91686377  0.43747332  1
  Te  Te134  1  0.23532747  0.92618348  0.75836360  1
  Te  Te135  1  0.58274826  0.24906546  0.07253882  1
  Te  Te136  1  0.56948185  0.24982002  0.40193175  1
  Te  Te137  1  0.58821844  0.23691340  0.73468731  1
  Te  Te138  1  0.58038277  0.58578545  0.08180653  1
  Te  Te139  1  0.59583559  0.57354651  0.42114418  1
  Te  Te140  1  0.55669833  0.59452376  0.72952607  1
  Te  Te141  1  0.58916743  0.91450448  0.07670558  1
  Te  Te142  1  0.63921287  0.88948284  0.41586579  1
  Te  Te143  1  0.58069679  0.93700078  0.73293723  1
  Te  Te144  1  0.90501835  0.19995184  0.12505591  1
  Te  Te145  1  0.91118421  0.25075865  0.41283681  1
  Te  Te146  1  0.91957398  0.24433973  0.73722307  1
  Te  Te147  1  0.91299009  0.59132952  0.09318438  1
  Te  Te148  1  0.93644447  0.59852481  0.44398569  1
  Te  Te149  1  0.92080410  0.57203758  0.75486840  1
  Te  Te150  1  0.90403832  0.90434399  0.09010079  1
  Te  Te151  1  0.90996034  0.92821682  0.40397678  1
  Te  Te152  1  0.89668603  0.90745805  0.74292562  1
  Te  Te153  1  0.24476838  0.03229673  0.23622594  1
  Te  Te154  1  0.24748419  0.09382164  0.58438000  1
  Te  Te155  1  0.26307941  0.10493243  0.90655531  1
  Te  Te156  1  0.27531617  0.43605336  0.23450841  1
  Te  Te157  1  0.25081488  0.42509384  0.59294606  1
  Te  Te158  1  0.25416155  0.41102820  0.92148788  1
  Te  Te159  1  0.24688447  0.78238959  0.26221660  1
  Te  Te160  1  0.22170898  0.72358034  0.57698927  1
  Te  Te161  1  0.29332959  0.74815792  0.89535205  1
  Te  Te162  1  0.58625772  0.07983569  0.25689448  1
  Te  Te163  1  0.59451757  0.04826282  0.58843421  1
  Te  Te164  1  0.58542826  0.09239862  0.92132047  1
  Te  Te165  1  0.59618788  0.41148795  0.26609741  1
  Te  Te166  1  0.59662031  0.44103144  0.57504648  1
  Te  Te167  1  0.61272551  0.41077485  0.91157663  1
  Te  Te168  1  0.56597453  0.73740069  0.23077701  1
  Te  Te169  1  0.57299226  0.75347736  0.57277863  1
  Te  Te170  1  0.59798183  0.77751177  0.89987305  1
  Te  Te171  1  0.91509555  0.08493027  0.23618095  1
  Te  Te172  1  0.91978712  0.08541127  0.56593196  1
  Te  Te173  1  0.90160170  0.06782892  0.89257773  1
  Te  Te174  1  0.89555044  0.41274980  0.24669851  1
  Te  Te175  1  0.88888765  0.40522439  0.55725967  1
  Te  Te176  1  0.93751997  0.42036691  0.93811138  1
  Te  Te177  1  0.92075944  0.73121171  0.27224348  1
  Te  Te178  1  0.88337017  0.75981630  0.59428340  1
  Te  Te179  1  0.91143150  0.74147883  0.91439399  1
