# generated using pymatgen
data_In2Te3
_symmetry_space_group_name_H-M   'P 1'
_cell_length_a   18.85300272
_cell_length_b   18.84905457
_cell_length_c   18.85077564
_cell_angle_alpha   89.94473091
_cell_angle_beta   89.98540158
_cell_angle_gamma   89.91847639
_symmetry_Int_Tables_number   1
_chemical_formula_structural   In2Te3
_chemical_formula_sum   'In72 Te108'
_cell_volume   6698.82559628
_cell_formula_units_Z   36
loop_
 _symmetry_equiv_pos_site_id
 _symmetry_equiv_pos_as_xyz
  1  'x, y, z'
loop_
 _atom_site_type_symbol
 _atom_site_label
 _atom_site_symmetry_multiplicity
 _atom_site_fract_x
 _atom_site_fract_y
 _atom_site_fract_z
 _atom_site_occupancy
  In  In0  1  -0.02482850  0.17785945  0.48559153  1
  In  In1  1  -0.00360518  0.17643014  0.83001034  1
  In  In2  1  0.53931961  0.19489394  0.67784332  1
  In  In3  1  0.81139835  0.50061181  0.68667272  1
  In  In4  1  0.15605282  0.47617269  0.66847846  1
  In  In5  1  0.68869531  0.33144639  0.31975414  1
  In  In6  1  0.67788450  0.33115788  -0.01663896  1
  In  In7  1  0.32766329  0.51725962  0.51692327  1
  In  In8  1  0.16194202  0.01829373  0.85089738  1
  In  In9  1  -0.01132791  0.80901455  0.17366687  1
  In  In10  1  0.15294760  0.32095702  0.15917942  1
  In  In11  1  0.17740580  0.49752064  0.00650686  1
  In  In12  1  0.34220408  0.83551173  0.81644705  1
  In  In13  1  -0.03525327  0.63448566  0.65089688  1
  In  In14  1  0.52834824  0.64849585  0.15962062  1
  In  In15  1  0.49476984  -0.00582747  0.49487490  1
  In  In16  1  0.82363923  0.13267177  0.02285429  1
  In  In17  1  0.00392201  0.49575154  0.48831970  1
  In  In18  1  0.15789119  0.16822291  0.33555701  1
  In  In19  1  -0.00024963  0.67477713  0.00513945  1
  In  In20  1  0.35821184  0.66916438  0.67374447  1
  In  In21  1  0.51726712  0.16624139  -0.00350139  1
  In  In22  1  0.82717582  0.32914698  0.82387140  1
  In  In23  1  0.16245359  0.00750093  0.15807309  1
  In  In24  1  0.51125788  0.82234988  0.33308423  1
  In  In25  1  0.33197048  0.16061662  0.82463470  1
  In  In26  1  0.68002934  0.00770528  0.34167082  1
  In  In27  1  0.81183435  0.02154571  0.81428459  1
  In  In28  1  0.15551916  0.84507664  0.69333725  1
  In  In29  1  0.53296498  0.50331405  0.69587431  1
  In  In30  1  -0.02522004  0.84785029  0.83272264  1
  In  In31  1  0.52107459  0.00794877  0.84036443  1
  In  In32  1  0.53983011  0.51470402  -0.03090827  1
  In  In33  1  0.68271203  -0.00885677  0.63168499  1
  In  In34  1  0.80385840  0.66921528  0.49944717  1
  In  In35  1  0.69012332  0.81145846  0.82900084  1
  In  In36  1  0.31822550  0.67988017  0.34699625  1
  In  In37  1  0.79552705  0.51338400  -0.02596647  1
  In  In38  1  0.35423298  0.83961061  0.49592572  1
  In  In39  1  0.54284863  0.81295153  0.63775412  1
  In  In40  1  -0.05767226  -0.00469280  0.33677836  1
  In  In41  1  0.16192549  0.34803031  0.49853380  1
  In  In42  1  0.36365343  0.48359689  0.82878240  1
  In  In43  1  0.31121208  0.32993500  0.33905309  1
  In  In44  1  0.82979583  0.48560556  0.33798022  1
  In  In45  1  0.33968062  0.85877025  0.17038159  1
  In  In46  1  0.51590579  0.83680681  -0.01358194  1
  In  In47  1  -0.03559461  0.13781019  0.17538010  1
  In  In48  1  0.79778788  0.31219158  0.51113600  1
  In  In49  1  0.84186281  0.83951386  0.00968695  1
  In  In50  1  0.52052915  0.49997263  0.34706151  1
  In  In51  1  -0.00354265  0.53395868  0.20429161  1
  In  In52  1  -0.01001809  0.34335608  0.66690319  1
  In  In53  1  0.14868534  0.84550914  0.34340763  1
  In  In54  1  0.16331710  0.01154529  0.51857254  1
  In  In55  1  0.00310576  -0.02467890  0.01933885  1
  In  In56  1  -0.02558682  0.82994306  0.47593990  1
  In  In57  1  0.33466551  0.65630013  0.01100494  1
  In  In58  1  0.17520589  0.69389298  0.48935529  1
  In  In59  1  -0.00442259  0.31281517  -0.00922053  1
  In  In60  1  0.66398197  0.66831031  0.33081230  1
  In  In61  1  0.33011001  0.50323860  0.16998027  1
  In  In62  1  0.51386221  0.34146340  0.52038534  1
  In  In63  1  0.52500315  -0.01000483  0.17018224  1
  In  In64  1  -0.04273637  0.01186360  0.63264153  1
  In  In65  1  0.16897354  0.66848447  0.83131674  1
  In  In66  1  0.49993240  0.15763226  0.35478794  1
  In  In67  1  0.51671394  0.33717777  0.14012977  1
  In  In68  1  0.35806707  0.16179153  0.17374787  1
  In  In69  1  0.34624437  0.32379360  -0.00362911  1
  In  In70  1  0.82818165  0.68030986  0.16580122  1
  In  In71  1  0.17095924  0.15539926  0.67827978  1
  Te  Te72  1  0.07331091  0.09870687  0.07329859  1
  Te  Te73  1  0.06447054  0.06735371  0.41368683  1
  Te  Te74  1  0.05910449  0.06000644  0.73743826  1
  Te  Te75  1  0.06763283  0.42007291  0.08050738  1
  Te  Te76  1  0.07396757  0.40519082  0.39635152  1
  Te  Te77  1  0.06876320  0.41504165  0.76884294  1
  Te  Te78  1  0.08994176  0.76540921  0.07757729  1
  Te  Te79  1  0.05892462  0.72724849  0.39107092  1
  Te  Te80  1  0.05938046  0.74054604  0.74994999  1
  Te  Te81  1  0.42976534  0.07074350  0.07801223  1
  Te  Te82  1  0.39734825  0.07946672  0.42258739  1
  Te  Te83  1  0.44091357  0.09210236  0.74340750  1
  Te  Te84  1  0.42441089  0.44071561  0.06794058  1
  Te  Te85  1  0.40660806  0.42239126  0.41800677  1
  Te  Te86  1  0.42618569  0.40223277  0.72526824  1
  Te  Te87  1  0.42376542  0.74841195  0.09378741  1
  Te  Te88  1  0.43590516  0.73057065  0.43076947  1
  Te  Te89  1  0.45354659  0.75355505  0.75397349  1
  Te  Te90  1  0.75632151  0.03804146  0.11643496  1
  Te  Te91  1  0.76152903  0.09892228  0.42609601  1
  Te  Te92  1  0.73076535  0.10683453  0.72092542  1
  Te  Te93  1  0.74689386  0.42153741  0.07703591  1
  Te  Te94  1  0.72911413  0.42655605  0.43481296  1
  Te  Te95  1  0.72165599  0.38559896  0.72889963  1
  Te  Te96  1  0.74391874  0.74151956  0.06075006  1
  Te  Te97  1  0.76412653  0.76324217  0.38918051  1
  Te  Te98  1  0.75555689  0.69914198  0.75387314  1
  Te  Te99  1  0.05852846  0.23978793  0.24718358  1
  Te  Te100  1  0.07586302  0.24194025  0.58234176  1
  Te  Te101  1  0.09818999  0.24821795  0.90663744  1
  Te  Te102  1  0.08470469  0.62211531  0.27415105  1
  Te  Te103  1  0.09555883  0.59208188  0.58303853  1
  Te  Te104  1  0.08320940  0.57839438  0.91776405  1
  Te  Te105  1  0.06311128  0.93272342  0.25116755  1
  Te  Te106  1  0.07271183  0.89912125  0.57659900  1
  Te  Te107  1  0.08980911  0.90020251  0.91804548  1
  Te  Te108  1  0.42547458  0.27646971  0.25141455  1
  Te  Te109  1  0.43003822  0.24367981  0.59018704  1
  Te  Te110  1  0.43585641  0.25129276  0.90056563  1
  Te  Te111  1  0.41917577  0.59040676  0.25927751  1
  Te  Te112  1  0.44444360  0.58189053  0.58649411  1
  Te  Te113  1  0.42807796  0.59771811  0.90544503  1
  Te  Te114  1  0.42460692  0.93195895  0.27245489  1
  Te  Te115  1  0.42858519  0.91111779  0.60620764  1
  Te  Te116  1  0.41493216  0.92562871  0.91505084  1
  Te  Te117  1  0.77912754  0.24533276  0.24478626  1
  Te  Te118  1  0.73921473  0.21233476  0.60221635  1
  Te  Te119  1  0.76222725  0.22422728  0.91351271  1
  Te  Te120  1  0.74849775  0.57584878  0.24536514  1
  Te  Te121  1  0.72505361  0.60893534  0.61728734  1
  Te  Te122  1  0.72940359  0.57344692  0.85066057  1
  Te  Te123  1  0.75269868  0.93599490  0.23391925  1
  Te  Te124  1  0.76539406  0.88980535  0.56441716  1
  Te  Te125  1  0.75332063  0.92286851  0.91384274  1
  Te  Te126  1  0.25708490  0.23742980  0.08488966  1
  Te  Te127  1  0.24829953  0.23484437  0.43861466  1
  Te  Te128  1  0.23980331  0.25624356  0.75879436  1
  Te  Te129  1  0.23005094  0.59972803  0.10645544  1
  Te  Te130  1  0.23092397  0.57252858  0.41299484  1
  Te  Te131  1  0.25642665  0.57737828  0.74413309  1
  Te  Te132  1  0.25103553  0.92538557  0.07432698  1
  Te  Te133  1  0.25080565  0.92464402  0.42396921  1
  Te  Te134  1  0.25527995  0.94156942  0.74951423  1
  Te  Te135  1  0.61483558  0.23534058  0.09246195  1
  Te  Te136  1  0.59200729  0.25882604  0.41782943  1
  Te  Te137  1  0.60551774  0.28829135  0.77319563  1
  Te  Te138  1  0.62345775  0.57398600  0.07499904  1
  Te  Te139  1  0.59330901  0.59101127  0.43672971  1
  Te  Te140  1  0.60000814  0.61188770  0.77391463  1
  Te  Te141  1  0.60653669  0.91739007  0.07126900  1
  Te  Te142  1  0.59759931  0.90611069  0.42567853  1
  Te  Te143  1  0.60146199  0.91351552  0.74655393  1
  Te  Te144  1  0.89771656  0.24861361  0.09002335  1
  Te  Te145  1  0.90549065  0.28534589  0.41276897  1
  Te  Te146  1  0.90248305  0.23390867  0.72667124  1
  Te  Te147  1  0.90645783  0.57787952  0.07703860  1
  Te  Te148  1  0.90780056  0.58915100  0.41730900  1
  Te  Te149  1  0.92958451  0.54739568  0.76359154  1
  Te  Te150  1  0.89307952  0.93319449  0.11982476  1
  Te  Te151  1  0.86116456  0.92642234  0.44789423  1
  Te  Te152  1  0.88511220  0.91647905  0.73095519  1
  Te  Te153  1  0.25501433  0.08219861  0.25493498  1
  Te  Te154  1  0.26697508  0.08056725  0.59494324  1
  Te  Te155  1  0.26337635  0.08500949  0.93167954  1
  Te  Te156  1  0.22890014  0.42000824  0.24780290  1
  Te  Te157  1  0.26642731  0.40129210  0.59581698  1
  Te  Te158  1  0.25528509  0.41043321  0.90895233  1
  Te  Te159  1  0.24276544  0.76861901  0.25007004  1
  Te  Te160  1  0.25774003  0.76223293  0.60130353  1
  Te  Te161  1  0.26043683  0.75330822  0.91742199  1
  Te  Te162  1  0.59176239  0.10195390  0.24953635  1
  Te  Te163  1  0.58331028  0.08942631  0.57077783  1
  Te  Te164  1  0.61582391  0.08579441  0.92129080  1
  Te  Te165  1  0.59425693  0.42604844  0.23727222  1
  Te  Te166  1  0.61330188  0.42108028  0.59605063  1
  Te  Te167  1  0.58156819  0.39722164  0.88713033  1
  Te  Te168  1  0.60129571  0.76364013  0.22603140  1
  Te  Te169  1  0.63118656  0.72362419  0.56096042  1
  Te  Te170  1  0.60222005  0.73455214  0.92186859  1
  Te  Te171  1  0.86086057  0.11943960  0.29102945  1
  Te  Te172  1  0.86109709  0.09918877  0.54921952  1
  Te  Te173  1  0.92410371  0.06756592  0.91728153  1
  Te  Te174  1  0.92099228  0.41531067  0.24488788  1
  Te  Te175  1  0.89810857  0.42834232  0.57802668  1
  Te  Te176  1  0.90532742  0.41430876  0.92103626  1
  Te  Te177  1  0.88364303  0.76998955  0.27208598  1
  Te  Te178  1  0.90053076  0.75546977  0.58952102  1
  Te  Te179  1  0.90154198  0.73801302  0.90690292  1
