# generated using pymatgen
data_In2Te3
_symmetry_space_group_name_H-M   'P 1'
_cell_length_a   18.94172372
_cell_length_b   18.91726056
_cell_length_c   18.91439266
_cell_angle_alpha   90.06164759
_cell_angle_beta   89.87384670
_cell_angle_gamma   90.12566601
_symmetry_Int_Tables_number   1
_chemical_formula_structural   In2Te3
_chemical_formula_sum   'In72 Te108'
_cell_volume   6777.47302578
_cell_formula_units_Z   36
loop_
 _symmetry_equiv_pos_site_id
 _symmetry_equiv_pos_as_xyz
  1  'x, y, z'
loop_
 _atom_site_type_symbol
 _atom_site_label
 _atom_site_symmetry_multiplicity
 _atom_site_fract_x
 _atom_site_fract_y
 _atom_site_fract_z
 _atom_site_occupancy
  In  In0  1  0.67040163  0.68658784  0.01293772  1
  In  In1  1  0.48073228  0.47980477  -0.00470033  1
  In  In2  1  0.83553447  0.32315373  0.48218369  1
  In  In3  1  -0.01265980  0.67311969  0.03140311  1
  In  In4  1  0.64247965  -0.01533633  0.33788487  1
  In  In5  1  0.50538964  0.16607927  0.31505901  1
  In  In6  1  0.85093320  0.15018435  0.65392031  1
  In  In7  1  0.64732546  0.16808066  0.52147532  1
  In  In8  1  0.81793543  0.30202608  0.82241518  1
  In  In9  1  0.18701396  0.83422397  0.33275319  1
  In  In10  1  0.33982697  0.47648826  0.14731182  1
  In  In11  1  0.83775472  0.34825294  0.16113520  1
  In  In12  1  0.02169650  0.83046020  0.20330572  1
  In  In13  1  0.64595718  0.72071478  0.64947014  1
  In  In14  1  0.00056493  0.65350707  0.33496596  1
  In  In15  1  0.51917945  0.17848823  0.00914958  1
  In  In16  1  0.18731937  0.33653106  0.83262775  1
  In  In17  1  0.19380921  0.49939786  0.65681911  1
  In  In18  1  0.65620987  0.18378755  0.82774621  1
  In  In19  1  0.65558934  0.52789496  0.84153294  1
  In  In20  1  0.82101433  0.13559266  0.32324623  1
  In  In21  1  -0.00860584  0.48406120  0.46775534  1
  In  In22  1  0.32846154  0.66576887  -0.00695494  1
  In  In23  1  0.35841504  0.69125245  0.69167141  1
  In  In24  1  0.14318038  0.69710758  0.86606293  1
  In  In25  1  0.82695355  -0.00754105  0.16764338  1
  In  In26  1  0.66970340  -0.02688433  0.67783657  1
  In  In27  1  0.82995096  0.49770562  0.01150943  1
  In  In28  1  0.20409022  0.88080343  0.64216427  1
  In  In29  1  0.00351398  -0.00262154  0.64391134  1
  In  In30  1  0.83850204  0.83751834  0.67117000  1
  In  In31  1  0.32348749  0.67664440  0.34280669  1
  In  In32  1  0.66309205  0.02045489  0.00173811  1
  In  In33  1  0.42417513  0.08331583  0.63426772  1
  In  In34  1  0.35502033  0.47874564  0.47729326  1
  In  In35  1  0.47392137  0.31057380  0.83490156  1
  In  In36  1  -0.00193665  0.34053102  -0.00428381  1
  In  In37  1  0.00792528  0.19028111  0.16819097  1
  In  In38  1  0.49074525  0.68688133  0.49652767  1
  In  In39  1  0.64530398  0.50896533  0.52813999  1
  In  In40  1  -0.00718291  0.01937415  -0.00406141  1
  In  In41  1  0.30197339  0.50980279  0.84549817  1
  In  In42  1  0.35212741  0.29871219  0.65199495  1
  In  In43  1  -0.02397138  0.84424616  0.46680676  1
  In  In44  1  0.17802555  0.18960915  0.60896632  1
  In  In45  1  0.33860695  0.00957423  0.33447999  1
  In  In46  1  0.01507788  0.30159304  0.35152517  1
  In  In47  1  -0.00772524  0.83404592  0.82239769  1
  In  In48  1  0.49302233  -0.00563503  0.17878233  1
  In  In49  1  0.64963406  0.83879299  0.83867653  1
  In  In50  1  0.50219233  0.49095020  0.67043721  1
  In  In51  1  0.68052104  0.84275921  0.19245819  1
  In  In52  1  0.82474656  0.84182629  0.00524492  1
  In  In53  1  0.32702743  0.02409388  0.01712530  1
  In  In54  1  0.47852419  0.83955048  0.00085230  1
  In  In55  1  0.48546935  0.46545456  0.34059489  1
  In  In56  1  0.01993693  0.67641850  0.67560183  1
  In  In57  1  0.18122121  0.30675191  0.15463061  1
  In  In58  1  0.18170659  0.67851141  0.53221224  1
  In  In59  1  0.18347431  0.86300203  -0.00019365  1
  In  In60  1  0.00840228  0.48642663  0.80284677  1
  In  In61  1  0.64054270  0.35513851  0.66683707  1
  In  In62  1  0.68279560  0.68341560  0.35644234  1
  In  In63  1  0.66499941  0.35311966  0.31805047  1
  In  In64  1  0.83192729  0.51207945  0.32021108  1
  In  In65  1  0.18003822  0.01736046  0.17972884  1
  In  In66  1  0.14829347  0.49297319  0.32850085  1
  In  In67  1  0.22867561  0.02025906  0.80841757  1
  In  In68  1  0.15467384  0.46880714  0.00324895  1
  In  In69  1  0.83319002  0.51190479  0.65186473  1
  In  In70  1  0.50422225  0.65186464  0.16568425  1
  In  In71  1  0.00582422  0.15545460  0.82812296  1
  Te  Te72  1  0.09283059  0.09645451  0.08173419  1
  Te  Te73  1  0.11674439  0.12631775  0.47962561  1
  Te  Te74  1  0.09473425  0.06779623  0.74210692  1
  Te  Te75  1  0.07071314  0.40464686  0.11197191  1
  Te  Te76  1  0.10618740  0.38970073  0.43541397  1
  Te  Te77  1  0.10049828  0.39739668  0.72245682  1
  Te  Te78  1  0.09516207  0.76394069  0.08128826  1
  Te  Te79  1  0.09267912  0.74098400  0.42764828  1
  Te  Te80  1  0.10757733  0.78903547  0.73103371  1
  Te  Te81  1  0.42333059  0.10448816  0.10465050  1
  Te  Te82  1  0.46238658  0.05619332  0.40896897  1
  Te  Te83  1  0.37050143  0.06459010  0.77431600  1
  Te  Te84  1  0.44770721  0.38408011  0.10404951  1
  Te  Te85  1  0.38764855  0.35897501  0.38589208  1
  Te  Te86  1  0.39338760  0.42089235  0.75249156  1
  Te  Te87  1  0.40617319  0.74532919  0.09676252  1
  Te  Te88  1  0.42079782  0.77298504  0.39698076  1
  Te  Te89  1  0.45799404  0.78889930  0.74020619  1
  Te  Te90  1  0.76311019  0.09160913  0.08171389  1
  Te  Te91  1  0.72563933  0.07789787  0.42665737  1
  Te  Te92  1  0.74451588  0.09072932  0.74528095  1
  Te  Te93  1  0.73102290  0.41147757  0.07996097  1
  Te  Te94  1  0.74071910  0.43213670  0.43250408  1
  Te  Te95  1  0.74440929  0.43172108  0.74960946  1
  Te  Te96  1  0.76875560  0.74774826  0.11085694  1
  Te  Te97  1  0.72144158  0.78679128  0.45471432  1
  Te  Te98  1  0.74742245  0.75270886  0.75947550  1
  Te  Te99  1  0.11572346  0.22372851  0.27142058  1
  Te  Te100  1  0.04261740  0.22642017  0.55955968  1
  Te  Te101  1  0.08952579  0.25243718  0.91409798  1
  Te  Te102  1  0.08499958  0.58583788  0.23575265  1
  Te  Te103  1  0.07556133  0.57006244  0.57981762  1
  Te  Te104  1  0.07489380  0.56669825  0.91568340  1
  Te  Te105  1  0.09297110  0.94202898  0.27931777  1
  Te  Te106  1  0.08835060  0.91442343  0.54900348  1
  Te  Te107  1  0.07782307  0.92485008  0.91050954  1
  Te  Te108  1  0.39412715  0.25205393  0.27431576  1
  Te  Te109  1  0.41909211  0.21183241  0.55247214  1
  Te  Te110  1  0.39958097  0.23161113  0.93525676  1
  Te  Te111  1  0.40630457  0.57223921  0.25516224  1
  Te  Te112  1  0.40662622  0.58338823  0.58608068  1
  Te  Te113  1  0.41944642  0.58752539  0.90015836  1
  Te  Te114  1  0.42204431  0.90296333  0.26831062  1
  Te  Te115  1  0.38842115  0.97538164  0.53121958  1
  Te  Te116  1  0.41687577  0.94837671  0.92629790  1
  Te  Te117  1  0.75726246  0.25285368  0.25078492  1
  Te  Te118  1  0.74811664  0.26408243  0.59517470  1
  Te  Te119  1  0.72800764  0.26135934  0.93559270  1
  Te  Te120  1  0.72662124  0.58715857  0.25399885  1
  Te  Te121  1  0.73946327  0.61176638  0.58662119  1
  Te  Te122  1  0.75998611  0.60026882  0.92322458  1
  Te  Te123  1  0.78052900  0.90760927  0.28960255  1
  Te  Te124  1  0.75815648  0.91381467  0.57254949  1
  Te  Te125  1  0.74813888  0.93009387  0.91050177  1
  Te  Te126  1  0.27215926  0.27024467  0.04593008  1
  Te  Te127  1  0.27187049  0.17758768  0.48415783  1
  Te  Te128  1  0.25187528  0.23336158  0.74335990  1
  Te  Te129  1  0.24340861  0.57178776  0.07547966  1
  Te  Te130  1  0.24161196  0.57298293  0.43117743  1
  Te  Te131  1  0.23443029  0.61141757  0.75296674  1
  Te  Te132  1  0.26917413  0.91546091  0.11188448  1
  Te  Te133  1  0.25759512  0.92357912  0.42774095  1
  Te  Te134  1  0.30959975  0.90954035  0.74354796  1
  Te  Te135  1  0.62843127  0.26422416  0.05568369  1
  Te  Te136  1  0.59222529  0.25360929  0.40815685  1
  Te  Te137  1  0.55779989  0.24257024  0.72762736  1
  Te  Te138  1  0.58395075  0.57266605  0.06556001  1
  Te  Te139  1  0.56753734  0.57847557  0.41652977  1
  Te  Te140  1  0.58270208  0.60298639  0.73295418  1
  Te  Te141  1  0.59487617  0.90480297  0.08307920  1
  Te  Te142  1  0.60461478  0.87510615  0.42972053  1
  Te  Te143  1  0.55212108  0.91781923  0.75786320  1
  Te  Te144  1  0.90621694  0.24595448  0.07016447  1
  Te  Te145  1  0.91555975  0.20950307  0.42119192  1
  Te  Te146  1  0.93147322  0.25185313  0.73528049  1
  Te  Te147  1  0.91777087  0.56909715  0.10565857  1
  Te  Te148  1  0.89524246  0.59415947  0.43139829  1
  Te  Te149  1  0.91549332  0.59523322  0.75149569  1
  Te  Te150  1  0.93498288  0.90632055  0.09206696  1
  Te  Te151  1  0.90733095  0.93395260  0.37654536  1
  Te  Te152  1  0.90978526  0.94000789  0.75666810  1
  Te  Te153  1  0.27333320  0.11146923  0.24820481  1
  Te  Te154  1  0.26866556  0.06014173  0.58542044  1
  Te  Te155  1  0.22008616  0.08848482  0.93874069  1
  Te  Te156  1  0.24704136  0.40905426  0.24829041  1
  Te  Te157  1  0.26624662  0.39719858  0.57152468  1
  Te  Te158  1  0.27848967  0.39330248  0.94863791  1
  Te  Te159  1  0.23339325  0.73034144  0.24081261  1
  Te  Te160  1  0.29093089  0.77003489  0.57864311  1
  Te  Te161  1  0.26774896  0.77496414  0.90687632  1
  Te  Te162  1  0.60554012  0.08236683  0.22837973  1
  Te  Te163  1  0.57540435  0.05741776  0.59376592  1
  Te  Te164  1  0.56969659  0.08213032  0.90006432  1
  Te  Te165  1  0.56693282  0.41570298  0.22702829  1
  Te  Te166  1  0.54404632  0.39746615  0.55738991  1
  Te  Te167  1  0.57382769  0.41213952  0.89506223  1
  Te  Te168  1  0.58170082  0.74671653  0.25573917  1
  Te  Te169  1  0.53352864  0.79877374  0.58885466  1
  Te  Te170  1  0.56467603  0.74242453  0.92028473  1
  Te  Te171  1  0.93453332  0.07873304  0.23968542  1
  Te  Te172  1  0.89701368  0.05039402  0.55665059  1
  Te  Te173  1  0.90117822  0.09815984  0.91450976  1
  Te  Te174  1  0.92423982  0.40111727  0.27594747  1
  Te  Te175  1  0.91862141  0.40949696  0.57897556  1
  Te  Te176  1  0.90896042  0.41253732  0.89453416  1
  Te  Te177  1  0.91516594  0.75277435  0.26763389  1
  Te  Te178  1  0.92810270  0.75257633  0.58259117  1
  Te  Te179  1  0.91446634  0.74921064  0.92202269  1
