# generated using pymatgen
data_In2Te3
_symmetry_space_group_name_H-M   'P 1'
_cell_length_a   18.78438462
_cell_length_b   18.78690407
_cell_length_c   18.78587380
_cell_angle_alpha   89.98915606
_cell_angle_beta   89.95006278
_cell_angle_gamma   90.04221790
_symmetry_Int_Tables_number   1
_chemical_formula_structural   In2Te3
_chemical_formula_sum   'In72 Te108'
_cell_volume   6629.53854033
_cell_formula_units_Z   36
loop_
 _symmetry_equiv_pos_site_id
 _symmetry_equiv_pos_as_xyz
  1  'x, y, z'
loop_
 _atom_site_type_symbol
 _atom_site_label
 _atom_site_symmetry_multiplicity
 _atom_site_fract_x
 _atom_site_fract_y
 _atom_site_fract_z
 _atom_site_occupancy
  In  In0  1  0.49796982  0.33436963  0.82781390  1
  In  In1  1  0.33205635  -0.00360244  0.31172439  1
  In  In2  1  0.66327936  0.50452255  0.82501653  1
  In  In3  1  0.02624609  0.33917540  0.34796619  1
  In  In4  1  0.81114748  0.34693066  0.16104451  1
  In  In5  1  0.83084469  0.33710645  0.51657541  1
  In  In6  1  0.49655391  -0.00140467  0.52696899  1
  In  In7  1  0.17147598  0.32792051  0.49264121  1
  In  In8  1  0.15703167  0.33017236  0.15844253  1
  In  In9  1  0.65756690  0.31849596  0.32917183  1
  In  In10  1  0.50290744  0.48711162  0.67955141  1
  In  In11  1  0.01252902  0.17369918  0.83361193  1
  In  In12  1  0.83640567  -0.02036234  0.50508130  1
  In  In13  1  0.35547073  0.82664968  0.84063687  1
  In  In14  1  0.48662992  0.84996108  0.31747133  1
  In  In15  1  0.50171074  0.16937794  0.33267853  1
  In  In16  1  0.00906567  0.14614061  0.15028559  1
  In  In17  1  -0.00164860  0.34556956  0.66009951  1
  In  In18  1  0.16809123  0.67536365  0.84737553  1
  In  In19  1  0.83114989  0.83210643  0.68245618  1
  In  In20  1  0.18169629  0.32998479  0.84328978  1
  In  In21  1  0.67423484  0.81946539  0.50858093  1
  In  In22  1  0.85789351  0.17477238  0.29102410  1
  In  In23  1  0.32481535  0.68379971  0.68010830  1
  In  In24  1  0.49772319  0.48570932  0.31907169  1
  In  In25  1  0.68622633  0.52560637  0.54084100  1
  In  In26  1  0.33582492  0.18010170  0.51957537  1
  In  In27  1  -0.01440279  0.67305727  0.33802495  1
  In  In28  1  -0.00066135  0.34208850  -0.02113712  1
  In  In29  1  0.82619253  0.51990781  0.33400005  1
  In  In30  1  0.64456198  0.83983463  0.85164658  1
  In  In31  1  0.01155270  0.66536027  0.00384414  1
  In  In32  1  0.50606973  0.34236568  0.14908491  1
  In  In33  1  0.00640701  -0.00007216  -0.00127220  1
  In  In34  1  0.34463195  0.14703205  0.16147167  1
  In  In35  1  0.00010289  0.81170409  0.51867547  1
  In  In36  1  0.31655487  0.49402933  0.50496739  1
  In  In37  1  0.50356451  0.66621122  0.15030441  1
  In  In38  1  0.30959219  0.34535039  0.34239756  1
  In  In39  1  0.20013017  0.84453980  0.02240516  1
  In  In40  1  0.14944525  0.46339182  0.33049717  1
  In  In41  1  0.18089327  0.64883252  0.13744680  1
  In  In42  1  0.82141378  0.16968408  -0.00650053  1
  In  In43  1  0.35142094  0.34435331  -0.00431161  1
  In  In44  1  0.15694286  0.86685982  0.30924153  1
  In  In45  1  0.83155355  0.01528263  0.14023765  1
  In  In46  1  0.83414891  0.36973657  0.83471706  1
  In  In47  1  0.15276283  0.82418996  0.67067066  1
  In  In48  1  0.16437561  -0.00991445  0.49734933  1
  In  In49  1  0.33991024  0.68343117  0.32641924  1
  In  In50  1  0.50127075  0.18114699  0.67635231  1
  In  In51  1  0.83931029  0.83414404  0.32654999  1
  In  In52  1  0.67948661  0.00513690  0.32822033  1
  In  In53  1  0.51967562  0.66692471  0.50423645  1
  In  In54  1  -0.00533044  0.83707320  0.81296824  1
  In  In55  1  0.32370847  0.17472824  0.85319592  1
  In  In56  1  0.34150921  -0.01146785  0.66007428  1
  In  In57  1  0.51867729  -0.00291454  0.85448215  1
  In  In58  1  0.80509570  0.84141374  -0.00119550  1
  In  In59  1  0.80383632  0.14301442  0.70123227  1
  In  In60  1  0.00868384  0.15200758  0.50242414  1
  In  In61  1  0.66956153  0.15929923  0.50640058  1
  In  In62  1  0.66358299  0.67229556  0.00166088  1
  In  In63  1  0.84291060  0.65483931  0.81754959  1
  In  In64  1  0.49624706  0.83139141  0.00781931  1
  In  In65  1  0.50717498  -0.01155604  0.14715037  1
  In  In66  1  0.17083851  0.65402284  0.51489794  1
  In  In67  1  0.65501193  0.34352067  -0.00413690  1
  In  In68  1  -0.00563195  0.50008450  0.15246000  1
  In  In69  1  0.15234454  0.49601420  0.67392522  1
  In  In70  1  0.67199330  0.67253240  0.31459553  1
  In  In71  1  0.16490296  0.02307067  0.84003923  1
  Te  Te72  1  0.11257928  0.07063145  0.07516031  1
  Te  Te73  1  0.08895566  0.07777135  0.40465673  1
  Te  Te74  1  0.07910797  0.08268794  0.73761555  1
  Te  Te75  1  0.09558405  0.43040959  0.06209845  1
  Te  Te76  1  0.06828782  0.43710811  0.45881433  1
  Te  Te77  1  0.07097215  0.41421619  0.77529805  1
  Te  Te78  1  0.08950353  0.76372613  0.09318129  1
  Te  Te79  1  0.09950333  0.75461224  0.41512627  1
  Te  Te80  1  0.06328381  0.72229703  0.73901546  1
  Te  Te81  1  0.44016439  0.09115526  0.06423781  1
  Te  Te82  1  0.41525335  0.07563333  0.42071345  1
  Te  Te83  1  0.41264177  0.08159487  0.75775653  1
  Te  Te84  1  0.42789891  0.44615312  0.07544910  1
  Te  Te85  1  0.41897541  0.41029161  0.42677550  1
  Te  Te86  1  0.39805200  0.41773884  0.75641821  1
  Te  Te87  1  0.39902799  0.74590383  0.08178737  1
  Te  Te88  1  0.42487625  0.76125633  0.42490785  1
  Te  Te89  1  0.43848504  0.73242189  0.76132207  1
  Te  Te90  1  0.72375539  0.07426314  0.05515398  1
  Te  Te91  1  0.77153467  0.09446752  0.41053572  1
  Te  Te92  1  0.71395212  0.06013454  0.79322014  1
  Te  Te93  1  0.75875880  0.43295074  0.05584689  1
  Te  Te94  1  0.74192189  0.41299437  0.41752754  1
  Te  Te95  1  0.74310243  0.42150769  0.73010161  1
  Te  Te96  1  0.74621236  0.74961479  0.09784577  1
  Te  Te97  1  0.76445699  0.73598262  0.41847751  1
  Te  Te98  1  0.73456855  0.74700807  0.76445459  1
  Te  Te99  1  0.08543590  0.23479586  0.25336107  1
  Te  Te100  1  0.09057803  0.24356939  0.59278078  1
  Te  Te101  1  0.10223468  0.23753498  0.93836590  1
  Te  Te102  1  0.08764181  0.58025860  0.24786081  1
  Te  Te103  1  0.06721323  0.59097227  0.59743425  1
  Te  Te104  1  0.07825890  0.57485558  0.90874699  1
  Te  Te105  1  0.05906524  0.94671067  0.23711394  1
  Te  Te106  1  0.06597167  0.92545398  0.59679115  1
  Te  Te107  1  0.09528996  0.89557603  0.91455888  1
  Te  Te108  1  0.41115937  0.26257352  0.25329760  1
  Te  Te109  1  0.42047040  0.27413191  0.59248667  1
  Te  Te110  1  0.43951101  0.23654572  0.93063536  1
  Te  Te111  1  0.40799292  0.57936730  0.23949790  1
  Te  Te112  1  0.40617982  0.59044030  0.58017599  1
  Te  Te113  1  0.35974599  0.56882991  0.93689426  1
  Te  Te114  1  0.38828831  0.89619861  0.20699169  1
  Te  Te115  1  0.43119736  0.88806057  0.59903855  1
  Te  Te116  1  0.40451387  0.93356731  0.93574503  1
  Te  Te117  1  0.73342717  0.23194165  0.22593914  1
  Te  Te118  1  0.74310149  0.24935617  0.60543134  1
  Te  Te119  1  0.74493167  0.26221399  0.90060801  1
  Te  Te120  1  0.75225218  0.58493846  0.22569299  1
  Te  Te121  1  0.78328290  0.60830946  0.61550928  1
  Te  Te122  1  0.75725828  0.58097035  0.91960124  1
  Te  Te123  1  0.75057796  0.91495124  0.23190658  1
  Te  Te124  1  0.73435687  0.92507387  0.60192286  1
  Te  Te125  1  0.76204747  0.92991755  0.88547797  1
  Te  Te126  1  0.26223658  0.25190562  0.08125489  1
  Te  Te127  1  0.24302952  0.22387097  0.40505088  1
  Te  Te128  1  0.24974089  0.24313878  0.74600870  1
  Te  Te129  1  0.27065981  0.55532989  0.05082361  1
  Te  Te130  1  0.24706832  0.57839209  0.39811562  1
  Te  Te131  1  0.25035343  0.57854574  0.75872760  1
  Te  Te132  1  0.25972954  0.93698269  0.12294849  1
  Te  Te133  1  0.26368853  0.90751626  0.41482070  1
  Te  Te134  1  0.24674086  0.90539289  0.76051259  1
  Te  Te135  1  0.58643236  0.24117882  0.07951550  1
  Te  Te136  1  0.57018279  0.25408093  0.43897510  1
  Te  Te137  1  0.60110406  0.25644548  0.75509697  1
  Te  Te138  1  0.57690748  0.56881825  0.06667362  1
  Te  Te139  1  0.59202879  0.57428515  0.40624679  1
  Te  Te140  1  0.57765487  0.59715596  0.74476362  1
  Te  Te141  1  0.60563696  0.91244308  0.06735822  1
  Te  Te142  1  0.58752014  0.92126481  0.41692461  1
  Te  Te143  1  0.56043082  0.90477921  0.74720044  1
  Te  Te144  1  0.92107447  0.25544960  0.08518974  1
  Te  Te145  1  0.91343396  0.25356312  0.41747759  1
  Te  Te146  1  0.90936470  0.25242913  0.74875566  1
  Te  Te147  1  0.90872144  0.60176923  0.09030161  1
  Te  Te148  1  0.92678673  0.57182146  0.42745482  1
  Te  Te149  1  0.89342486  0.55729062  0.71677229  1
  Te  Te150  1  0.91973393  0.90552032  0.08091129  1
  Te  Te151  1  0.93749076  0.90939827  0.41710265  1
  Te  Te152  1  0.91722282  0.93868543  0.74040372  1
  Te  Te153  1  0.23260955  0.06845933  0.22556975  1
  Te  Te154  1  0.24304675  0.08315714  0.59269846  1
  Te  Te155  1  0.25408520  0.07775303  0.94270790  1
  Te  Te156  1  0.25601436  0.42687401  0.22636178  1
  Te  Te157  1  0.24973556  0.40020881  0.60313200  1
  Te  Te158  1  0.26616155  0.43878389  0.91033135  1
  Te  Te159  1  0.23369270  0.74969903  0.24151134  1
  Te  Te160  1  0.25537747  0.76724798  0.57295773  1
  Te  Te161  1  0.27525273  0.73718081  0.93821248  1
  Te  Te162  1  0.58591414  0.08594559  0.23939752  1
  Te  Te163  1  0.59520781  0.07657339  0.61092994  1
  Te  Te164  1  0.61899823  0.09174672  0.90802366  1
  Te  Te165  1  0.60713267  0.42550408  0.23203857  1
  Te  Te166  1  0.59164830  0.42140587  0.58026808  1
  Te  Te167  1  0.56206096  0.43905183  0.91971415  1
  Te  Te168  1  0.58374206  0.76852733  0.23460721  1
  Te  Te169  1  0.59812509  0.73843607  0.60579850  1
  Te  Te170  1  0.55443534  0.72768095  0.91126128  1
  Te  Te171  1  0.93808237  0.04741430  0.25466717  1
  Te  Te172  1  0.89952130  0.09042295  0.59001752  1
  Te  Te173  1  0.91472231  0.08183201  0.90913043  1
  Te  Te174  1  0.92064867  0.40601004  0.25580841  1
  Te  Te175  1  0.89297314  0.44061822  0.60721720  1
  Te  Te176  1  0.91693847  0.45225818  0.92586947  1
  Te  Te177  1  0.91665099  0.74832259  0.23315619  1
  Te  Te178  1  0.89072310  0.73426733  0.58415042  1
  Te  Te179  1  0.91111059  0.75612822  0.91485577  1
