# generated using pymatgen
data_In2Te3
_symmetry_space_group_name_H-M   'P 1'
_cell_length_a   18.86615342
_cell_length_b   18.86831611
_cell_length_c   18.87051375
_cell_angle_alpha   89.97393623
_cell_angle_beta   90.17405593
_cell_angle_gamma   90.07578474
_symmetry_Int_Tables_number   1
_chemical_formula_structural   In2Te3
_chemical_formula_sum   'In72 Te108'
_cell_volume   6717.34727858
_cell_formula_units_Z   36
loop_
 _symmetry_equiv_pos_site_id
 _symmetry_equiv_pos_as_xyz
  1  'x, y, z'
loop_
 _atom_site_type_symbol
 _atom_site_label
 _atom_site_symmetry_multiplicity
 _atom_site_fract_x
 _atom_site_fract_y
 _atom_site_fract_z
 _atom_site_occupancy
  In  In0  1  0.63897554  0.33668405  0.33440498  1
  In  In1  1  -0.01784901  0.66128896  0.33628901  1
  In  In2  1  0.17814916  -0.01521641  0.17617879  1
  In  In3  1  0.64981049  0.19190205  0.84173586  1
  In  In4  1  -0.01662872  0.83819577  0.46986671  1
  In  In5  1  0.50290954  0.83988198  0.00541330  1
  In  In6  1  0.37189780  0.14511316  0.14131681  1
  In  In7  1  0.66645827  0.67680422  0.65657130  1
  In  In8  1  0.15701700  0.85197456  -0.00287893  1
  In  In9  1  0.17702537  0.30900842  0.15718278  1
  In  In10  1  0.03088749  0.66589095  -0.00991659  1
  In  In11  1  0.67342883  -0.01486415  0.64613148  1
  In  In12  1  0.81256080  0.81084316  0.34607463  1
  In  In13  1  0.15430965  0.16568004  0.65967868  1
  In  In14  1  0.18041490  0.67322966  0.15934811  1
  In  In15  1  0.65308729  0.34210469  0.01792417  1
  In  In16  1  0.33585498  0.00045834  0.34822837  1
  In  In17  1  -0.00255434  0.00010762  0.00960155  1
  In  In18  1  0.66605609  0.47754694  0.81453600  1
  In  In19  1  0.17463835  0.85335554  0.65790488  1
  In  In20  1  0.34443362  0.49783721  0.49842942  1
  In  In21  1  0.80796335  0.50332218  0.32617383  1
  In  In22  1  0.34158920  0.50765807  0.85313758  1
  In  In23  1  0.56420935  0.67177846  0.46638366  1
  In  In24  1  0.20908604  0.15358281  -0.00262717  1
  In  In25  1  0.51182407  0.84426289  0.33500841  1
  In  In26  1  0.50346753  0.01320555  0.51181024  1
  In  In27  1  0.14026530  0.01424357  0.49572458  1
  In  In28  1  -0.00790527  0.14887956  0.19050024  1
  In  In29  1  0.35785937  0.69650588  0.68164790  1
  In  In30  1  0.66316417  0.85446763  0.83159702  1
  In  In31  1  0.18202496  0.63621744  0.50513542  1
  In  In32  1  0.81096798  0.65157477  0.48794664  1
  In  In33  1  0.48342234  0.31913936  0.83808290  1
  In  In34  1  0.33611734  0.31814512  0.30128258  1
  In  In35  1  0.63546881  0.17939003  0.16818290  1
  In  In36  1  0.15781837  0.48121141  0.67391540  1
  In  In37  1  0.35820956  0.85869567  0.49903543  1
  In  In38  1  0.84619918  -0.00020403  0.83048634  1
  In  In39  1  -0.00499880  0.65897592  0.66059269  1
  In  In40  1  0.16808929  0.49224528  -0.02293536  1
  In  In41  1  0.81263286  0.32453450  0.81194549  1
  In  In42  1  0.82686259  -0.00008592  0.15734701  1
  In  In43  1  -0.01401769  0.50094712  0.17246891  1
  In  In44  1  0.17866685  0.66134288  0.84563807  1
  In  In45  1  0.02278611  0.15099903  0.83900532  1
  In  In46  1  0.64145182  0.64427944  0.02838827  1
  In  In47  1  -0.03337613  -0.00868060  0.36533273  1
  In  In48  1  0.83446490  0.31404870  0.50725787  1
  In  In49  1  -0.00403775  0.85180071  0.82050805  1
  In  In50  1  -0.00440599  0.33874425  0.66189072  1
  In  In51  1  0.35247709  0.03802626  0.70200854  1
  In  In52  1  0.81235934  0.16269566  0.65262335  1
  In  In53  1  0.50570872  0.32665606  0.50297014  1
  In  In54  1  0.35804574  0.65637948  0.00927939  1
  In  In55  1  0.83575883  0.66119822  0.82510676  1
  In  In56  1  0.36005171  0.84758945  0.83493921  1
  In  In57  1  0.32796050  0.31284482  0.66590393  1
  In  In58  1  0.15004935  0.16012165  0.34722451  1
  In  In59  1  0.82475573  0.47474449  -0.00504805  1
  In  In60  1  0.15391879  0.82719444  0.30098306  1
  In  In61  1  0.66930873  0.82393834  0.16727036  1
  In  In62  1  0.43795330  0.47950320  0.17999044  1
  In  In63  1  0.67539864  0.04206385  0.36048408  1
  In  In64  1  0.15041623  0.45007731  0.36381249  1
  In  In65  1  0.32356130  0.84277830  0.14938277  1
  In  In66  1  0.81986908  0.65334524  0.18034891  1
  In  In67  1  0.51359307  0.50470318  0.65313144  1
  In  In68  1  -0.01148854  0.31908377  -0.00215391  1
  In  In69  1  0.81522148  0.33075487  0.17756924  1
  In  In70  1  0.66517424  0.01536640  -0.01650639  1
  In  In71  1  0.34378856  0.17633504  0.50332309  1
  Te  Te72  1  0.09707874  0.09493147  0.09227945  1
  Te  Te73  1  0.03798670  0.11027997  0.43885585  1
  Te  Te74  1  0.06690085  0.06817017  0.72577490  1
  Te  Te75  1  0.07848780  0.41513401  0.08521318  1
  Te  Te76  1  0.05599579  0.37066890  0.44646226  1
  Te  Te77  1  0.09020413  0.38877664  0.76428338  1
  Te  Te78  1  0.07856854  0.76700653  0.09525886  1
  Te  Te79  1  0.09339504  0.73873564  0.41802995  1
  Te  Te80  1  0.09648988  0.75115209  0.74559035  1
  Te  Te81  1  0.41186959  0.04112420  0.04643184  1
  Te  Te82  1  0.43286637  0.10087891  0.40547246  1
  Te  Te83  1  0.44814349  0.12560395  0.77127963  1
  Te  Te84  1  0.44674922  0.39712502  0.05521176  1
  Te  Te85  1  0.41329875  0.40071713  0.40581473  1
  Te  Te86  1  0.41087118  0.42383715  0.73618340  1
  Te  Te87  1  0.43358902  0.74582936  0.10501900  1
  Te  Te88  1  0.42760634  0.75190996  0.42275024  1
  Te  Te89  1  0.45800601  0.76750770  0.76113627  1
  Te  Te90  1  0.74099964  0.10237972  0.08551639  1
  Te  Te91  1  0.76500370  0.10812373  0.46816035  1
  Te  Te92  1  0.73816760  0.08590581  0.76476997  1
  Te  Te93  1  0.73255427  0.43792719  0.10912747  1
  Te  Te94  1  0.74107501  0.40949040  0.42169083  1
  Te  Te95  1  0.76312502  0.42619429  0.71426187  1
  Te  Te96  1  0.75465966  0.73980012  0.07342311  1
  Te  Te97  1  0.70580838  0.73798899  0.42321092  1
  Te  Te98  1  0.75428792  0.76287068  0.74781200  1
  Te  Te99  1  0.07472005  0.25868635  0.25714297  1
  Te  Te100  1  0.09084210  0.26666326  0.56998566  1
  Te  Te101  1  0.10073737  0.24492127  0.93036068  1
  Te  Te102  1  0.08428024  0.58882046  0.24819053  1
  Te  Te103  1  0.07184467  0.55911134  0.57303997  1
  Te  Te104  1  0.06970595  0.56258666  0.88458910  1
  Te  Te105  1  0.05659099  0.93315145  0.25272488  1
  Te  Te106  1  0.06004923  0.91638231  0.58034304  1
  Te  Te107  1  0.08847618  0.94508946  0.89915642  1
  Te  Te108  1  0.44216582  0.23814808  0.23460981  1
  Te  Te109  1  0.44073946  0.23122964  0.60659263  1
  Te  Te110  1  0.40414700  0.20466108  0.89648285  1
  Te  Te111  1  0.45776486  0.57942210  0.28998424  1
  Te  Te112  1  0.42164578  0.60219879  0.57751834  1
  Te  Te113  1  0.44034691  0.60366590  0.90107089  1
  Te  Te114  1  0.41377787  0.92321644  0.24476983  1
  Te  Te115  1  0.42451591  0.93024214  0.61309235  1
  Te  Te116  1  0.43340350  0.94643847  0.92227831  1
  Te  Te117  1  0.73788750  0.23824793  0.26684925  1
  Te  Te118  1  0.71666430  0.24004242  0.56735716  1
  Te  Te119  1  0.75242369  0.26087458  0.93670184  1
  Te  Te120  1  0.71517055  0.60467729  0.27000606  1
  Te  Te121  1  0.74002688  0.56865298  0.58714000  1
  Te  Te122  1  0.73944270  0.57544527  0.91919595  1
  Te  Te123  1  0.74362504  0.92102120  0.26366523  1
  Te  Te124  1  0.78609825  0.90651631  0.59431657  1
  Te  Te125  1  0.76583692  0.91404535  0.92802840  1
  Te  Te126  1  0.29001476  0.25955610  0.07216035  1
  Te  Te127  1  0.24994191  0.25429943  0.41321469  1
  Te  Te128  1  0.24299208  0.23381710  0.76002047  1
  Te  Te129  1  0.25517347  0.56854284  0.07844057  1
  Te  Te130  1  0.25343238  0.56491386  0.39440808  1
  Te  Te131  1  0.25620671  0.59205612  0.73407076  1
  Te  Te132  1  0.26357710  0.94854287  0.05325150  1
  Te  Te133  1  0.22674537  0.91418766  0.41141681  1
  Te  Te134  1  0.25531363  0.93062888  0.76033106  1
  Te  Te135  1  0.53548998  0.27380934  0.08657549  1
  Te  Te136  1  0.57154491  0.23086832  0.41221953  1
  Te  Te137  1  0.59881655  0.29478339  0.74910258  1
  Te  Te138  1  0.55084637  0.55223950  0.10032294  1
  Te  Te139  1  0.56696345  0.54591546  0.38608265  1
  Te  Te140  1  0.58445284  0.59120769  0.75594606  1
  Te  Te141  1  0.59266695  0.92978030  0.08935422  1
  Te  Te142  1  0.59941092  0.92833403  0.42944463  1
  Te  Te143  1  0.58246077  0.95243580  0.75818670  1
  Te  Te144  1  0.90813284  0.23959680  0.09823630  1
  Te  Te145  1  0.93844670  0.27508305  0.41141292  1
  Te  Te146  1  0.91636413  0.22889104  0.75093847  1
  Te  Te147  1  0.91685495  0.58352603  0.06469695  1
  Te  Te148  1  0.91578247  0.55946951  0.42245253  1
  Te  Te149  1  0.91965257  0.56877464  0.74804911  1
  Te  Te150  1  0.91092688  0.90645968  0.08095218  1
  Te  Te151  1  0.85170571  0.92221565  0.45332827  1
  Te  Te152  1  0.90097518  0.91202709  0.72266458  1
  Te  Te153  1  0.25742466  0.09497894  0.24947563  1
  Te  Te154  1  0.26074276  0.06795788  0.57407449  1
  Te  Te155  1  0.27513160  0.11542691  0.87046296  1
  Te  Te156  1  0.23857730  0.42014442  0.24181889  1
  Te  Te157  1  0.24894781  0.40714517  0.57571306  1
  Te  Te158  1  0.26135599  0.40107476  0.91148442  1
  Te  Te159  1  0.27309976  0.74336755  0.25809970  1
  Te  Te160  1  0.25479317  0.75548479  0.57175423  1
  Te  Te161  1  0.26007366  0.75840866  0.93102338  1
  Te  Te162  1  0.58381052  0.06572505  0.24685518  1
  Te  Te163  1  0.60041562  0.09949323  0.58421536  1
  Te  Te164  1  0.56701707  0.11872677  0.94106016  1
  Te  Te165  1  0.57299062  0.43773986  0.24588669  1
  Te  Te166  1  0.59585392  0.43248487  0.55621770  1
  Te  Te167  1  0.56937513  0.42128083  0.91754432  1
  Te  Te168  1  0.57451841  0.74317524  0.24648683  1
  Te  Te169  1  0.57747307  0.76545042  0.57855356  1
  Te  Te170  1  0.59708187  0.75080621  0.92751206  1
  Te  Te171  1  0.88512265  0.08417792  0.27482420  1
  Te  Te172  1  0.88678511  0.08072522  0.55526751  1
  Te  Te173  1  0.91169421  0.09687808  0.92982844  1
  Te  Te174  1  0.91405503  0.40752848  0.26561976  1
  Te  Te175  1  0.88989126  0.42079700  0.59772890  1
  Te  Te176  1  0.91588439  0.40570228  0.89715634  1
  Te  Te177  1  0.91257061  0.75868062  0.24334698  1
  Te  Te178  1  0.91055267  0.73991109  0.56460832  1
  Te  Te179  1  0.92918317  0.74941615  0.91102544  1
