# generated using pymatgen
data_In2Te3
_symmetry_space_group_name_H-M   'P 1'
_cell_length_a   18.93277470
_cell_length_b   18.92688582
_cell_length_c   18.97339825
_cell_angle_alpha   89.98826568
_cell_angle_beta   90.26223239
_cell_angle_gamma   89.99314008
_symmetry_Int_Tables_number   1
_chemical_formula_structural   In2Te3
_chemical_formula_sum   'In72 Te108'
_cell_volume   6798.82700609
_cell_formula_units_Z   36
loop_
 _symmetry_equiv_pos_site_id
 _symmetry_equiv_pos_as_xyz
  1  'x, y, z'
loop_
 _atom_site_type_symbol
 _atom_site_label
 _atom_site_symmetry_multiplicity
 _atom_site_fract_x
 _atom_site_fract_y
 _atom_site_fract_z
 _atom_site_occupancy
  In  In0  1  0.15684330  0.66335988  0.83566545  1
  In  In1  1  0.52076699  0.50191077  0.65815142  1
  In  In2  1  0.16151368  0.46826026  0.34539752  1
  In  In3  1  -0.00278001  0.31999891  0.33219862  1
  In  In4  1  0.61966092  -0.01174989  0.31913506  1
  In  In5  1  0.84063179  0.64457016  0.14714676  1
  In  In6  1  0.65402207  0.02077020  0.65858157  1
  In  In7  1  0.33993582  0.16009990  0.48761426  1
  In  In8  1  -0.00721338  0.66435520  0.67143527  1
  In  In9  1  0.66522628  0.32519715  -0.00796157  1
  In  In10  1  0.15445540  0.53525342  0.66672291  1
  In  In11  1  0.16499540  0.31160636  0.50609976  1
  In  In12  1  0.81985905  0.81885942  -0.00830263  1
  In  In13  1  0.50068641  0.15411022  0.00385840  1
  In  In14  1  0.31911551  0.50477854  0.84969387  1
  In  In15  1  0.49456759  0.36786871  0.50225257  1
  In  In16  1  0.00951703  0.16796999  0.50373722  1
  In  In17  1  -0.00121629  0.46530822  0.84679221  1
  In  In18  1  0.16316382  0.83109508  -0.00026666  1
  In  In19  1  0.63867652  0.34311860  0.34651233  1
  In  In20  1  0.82311776  0.67427564  0.83754811  1
  In  In21  1  0.84222280  0.86588545  0.70660913  1
  In  In22  1  0.13092559  0.15117315  0.69341416  1
  In  In23  1  0.20192067  0.14681489  0.31631682  1
  In  In24  1  -0.01200912  0.65903097  0.35579244  1
  In  In25  1  0.33023689  0.16040445  0.82984499  1
  In  In26  1  0.52663431  0.33111392  0.81501677  1
  In  In27  1  0.48496788  0.01174404  0.83558180  1
  In  In28  1  0.63085659  0.15738619  0.50226918  1
  In  In29  1  0.66231218  0.86168042  0.83879376  1
  In  In30  1  0.85044338  0.17138234  0.67846327  1
  In  In31  1  0.00281383  0.65848624  -0.01039966  1
  In  In32  1  -0.00526358  0.82240544  0.51674508  1
  In  In33  1  0.36747388  0.32970821  0.29216878  1
  In  In34  1  0.65491261  0.15872460  0.16515976  1
  In  In35  1  0.32943009  0.51223969  0.49583801  1
  In  In36  1  0.63413281  0.70210285  0.36732596  1
  In  In37  1  0.16813365  0.00351393  0.14344886  1
  In  In38  1  0.22098900  0.86119663  0.34903132  1
  In  In39  1  0.17042981  0.86648339  0.66068446  1
  In  In40  1  0.51001208  0.89465179  0.04852942  1
  In  In41  1  0.33153895  0.01299404  0.65879468  1
  In  In42  1  0.32021334  0.32333299  0.68284438  1
  In  In43  1  0.81591737  0.13827155  0.30407258  1
  In  In44  1  0.48888676  0.67824501  0.83673684  1
  In  In45  1  -0.01970581  0.15135946  0.14748404  1
  In  In46  1  0.17344576  0.69472577  0.50341852  1
  In  In47  1  0.37183857  0.68488151  0.03580289  1
  In  In48  1  0.32786806  0.82726598  0.80486275  1
  In  In49  1  0.02628145  0.47456876  0.15055490  1
  In  In50  1  0.83900494  0.33243683  0.51626818  1
  In  In51  1  -0.08732192  0.51809903  0.54792054  1
  In  In52  1  -0.00008165  0.83484405  0.17527809  1
  In  In53  1  0.37059779  0.65404448  0.29599153  1
  In  In54  1  0.00191286  0.00279787  0.00336391  1
  In  In55  1  0.65072708  0.49273770  0.16303093  1
  In  In56  1  0.66144890  0.65532385  -0.00844289  1
  In  In57  1  0.50680790  0.66019881  0.49127568  1
  In  In58  1  0.33038601  0.00451830  -0.00380519  1
  In  In59  1  0.69416834  0.47930134  0.82129706  1
  In  In60  1  0.65495167  0.16320861  0.81703302  1
  In  In61  1  0.82897360  0.29920541  0.13509771  1
  In  In62  1  0.47614632  0.84621884  0.34748872  1
  In  In63  1  0.19752643  0.30176711  0.16477019  1
  In  In64  1  0.86071319  0.20585414  -0.02603246  1
  In  In65  1  0.01154583  -0.01385870  0.37086540  1
  In  In66  1  0.35946623  0.35052100  0.02296852  1
  In  In67  1  0.77363081  -0.00584117  0.14984597  1
  In  In68  1  0.66848680  0.65413048  0.63213666  1
  In  In69  1  0.82964036  -0.00657371  0.49860995  1
  In  In70  1  0.19388618  0.64339920  0.17937475  1
  In  In71  1  0.84484636  0.50547523  0.34286498  1
  Te  Te72  1  0.09856751  0.10988220  0.06177099  1
  Te  Te73  1  0.11102153  0.08672985  0.42418222  1
  Te  Te74  1  0.03659214  0.06953682  0.77263297  1
  Te  Te75  1  0.12986876  0.40156569  0.07829401  1
  Te  Te76  1  0.05947769  0.40651311  0.43960681  1
  Te  Te77  1  0.10215759  0.42504225  0.74617666  1
  Te  Te78  1  0.08446664  0.73216241  0.09893242  1
  Te  Te79  1  0.08963366  0.76645699  0.39874032  1
  Te  Te80  1  0.09024978  0.75763017  0.73869090  1
  Te  Te81  1  0.45086469  0.03546307  0.08230803  1
  Te  Te82  1  0.39334254  0.04949149  0.40423310  1
  Te  Te83  1  0.42973968  0.10605001  0.73019414  1
  Te  Te84  1  0.43891070  0.43112237  0.11729273  1
  Te  Te85  1  0.41253228  0.43824265  0.39550130  1
  Te  Te86  1  0.41505186  0.42378813  0.74764536  1
  Te  Te87  1  0.45119212  0.77880853  0.12060891  1
  Te  Te88  1  0.39636242  0.73675394  0.41843286  1
  Te  Te89  1  0.43600109  0.76361030  0.73033254  1
  Te  Te90  1  0.76909233  0.12319976  0.07195172  1
  Te  Te91  1  0.73255811  0.07458826  0.41179676  1
  Te  Te92  1  0.76104443  0.07430441  0.75414239  1
  Te  Te93  1  0.75409880  0.41495593  0.07670717  1
  Te  Te94  1  0.75212508  0.41483627  0.42175783  1
  Te  Te95  1  0.74656569  0.41891991  0.69791035  1
  Te  Te96  1  0.73819453  0.74316214  0.09268395  1
  Te  Te97  1  0.75792626  0.74073829  0.43116464  1
  Te  Te98  1  0.72886932  0.75434576  0.75124311  1
  Te  Te99  1  0.08369285  0.22835951  0.24901786  1
  Te  Te100  1  0.06546743  0.26230639  0.60761663  1
  Te  Te101  1  0.03176432  0.31457357  0.87664829  1
  Te  Te102  1  0.07212159  0.57206252  0.25882526  1
  Te  Te103  1  0.06424520  0.59116300  0.55645449  1
  Te  Te104  1  0.09750170  0.56029436  0.92606745  1
  Te  Te105  1  0.09787392  0.92273858  0.25229121  1
  Te  Te106  1  0.07693623  0.93351188  0.56837529  1
  Te  Te107  1  0.07550669  0.91081733  0.91578748  1
  Te  Te108  1  0.42021067  0.21157385  0.22589755  1
  Te  Te109  1  0.40880598  0.26422953  0.57545203  1
  Te  Te110  1  0.43142016  0.24905138  0.90446116  1
  Te  Te111  1  0.41205678  0.57281988  0.17844896  1
  Te  Te112  1  0.41488360  0.58925334  0.59247309  1
  Te  Te113  1  0.42223845  0.58097297  0.93071917  1
  Te  Te114  1  0.39133992  0.95106102  0.28236441  1
  Te  Te115  1  0.37306093  0.89928858  0.57468012  1
  Te  Te116  1  0.41312140  0.90147194  0.91260729  1
  Te  Te117  1  0.74193830  0.26538724  0.25697687  1
  Te  Te118  1  0.75074649  0.22336368  0.57326964  1
  Te  Te119  1  0.74890624  0.26423374  0.88196287  1
  Te  Te120  1  0.74968336  0.57586988  0.24735952  1
  Te  Te121  1  0.77658752  0.55475083  0.61338608  1
  Te  Te122  1  0.76495408  0.56623357  0.92608230  1
  Te  Te123  1  0.73459932  0.91014568  0.26467987  1
  Te  Te124  1  0.74715559  0.91568634  0.59808160  1
  Te  Te125  1  0.76776682  0.93120300  0.91362526  1
  Te  Te126  1  0.31406039  0.23061176  0.10243846  1
  Te  Te127  1  0.26049907  0.26801166  0.39724812  1
  Te  Te128  1  0.22218308  0.25034063  0.76938240  1
  Te  Te129  1  0.26732735  0.58458462  0.06801169  1
  Te  Te130  1  0.23422298  0.58859607  0.40536467  1
  Te  Te131  1  0.26438821  0.60303194  0.74552669  1
  Te  Te132  1  0.26445231  0.90017062  0.08716423  1
  Te  Te133  1  0.28673187  0.94376743  0.45446004  1
  Te  Te134  1  0.24474136  0.94793407  0.76608265  1
  Te  Te135  1  0.57047537  0.25997809  0.08891426  1
  Te  Te136  1  0.54496983  0.24783278  0.41700668  1
  Te  Te137  1  0.58493461  0.24237196  0.71497174  1
  Te  Te138  1  0.57010846  0.59276993  0.08890582  1
  Te  Te139  1  0.59559873  0.56946789  0.41798240  1
  Te  Te140  1  0.59364683  0.58655581  0.76202214  1
  Te  Te141  1  0.63477011  0.93206068  0.11754930  1
  Te  Te142  1  0.57312378  0.91540715  0.43878734  1
  Te  Te143  1  0.56592173  0.92561178  0.74040556  1
  Te  Te144  1  0.96069422  0.27910143  0.06789179  1
  Te  Te145  1  0.90396095  0.22584426  0.40655179  1
  Te  Te146  1  0.94067596  0.23848825  0.77694669  1
  Te  Te147  1  0.92526573  0.55064138  0.06326946  1
  Te  Te148  1  0.86262685  0.62683179  0.43965901  1
  Te  Te149  1  0.92079776  0.57996446  0.77180186  1
  Te  Te150  1  0.90425872  0.91517062  0.08948812  1
  Te  Te151  1  0.90178895  0.89162505  0.41227661  1
  Te  Te152  1  0.96767813  0.93824361  0.72463106  1
  Te  Te153  1  0.28150253  0.05863201  0.22780126  1
  Te  Te154  1  0.23883554  0.11305827  0.59119798  1
  Te  Te155  1  0.23924581  0.08881846  0.91900565  1
  Te  Te156  1  0.25728848  0.42244219  0.23932863  1
  Te  Te157  1  0.24451086  0.42009686  0.58251352  1
  Te  Te158  1  0.26014627  0.39271651  0.92235351  1
  Te  Te159  1  0.26927983  0.75556254  0.24487911  1
  Te  Te160  1  0.26282295  0.76840243  0.59403953  1
  Te  Te161  1  0.25757499  0.74288499  0.91935655  1
  Te  Te162  1  0.55484151  0.11112301  0.26304574  1
  Te  Te163  1  0.54965679  0.04596475  0.55413887  1
  Te  Te164  1  0.59700290  0.07031278  0.92147106  1
  Te  Te165  1  0.55505944  0.41062861  0.24336031  1
  Te  Te166  1  0.60934460  0.40668866  0.58893510  1
  Te  Te167  1  0.58387648  0.42878574  0.91630800  1
  Te  Te168  1  0.55463865  0.75729186  0.25508899  1
  Te  Te169  1  0.58409106  0.75726029  0.57333464  1
  Te  Te170  1  0.57993022  0.76528462  0.92443782  1
  Te  Te171  1  0.93326481  0.05671656  0.25679151  1
  Te  Te172  1  0.92448173  0.07343732  0.58557181  1
  Te  Te173  1  0.93404740  0.09554606  0.90505182  1
  Te  Te174  1  0.91392379  0.41170200  0.24466556  1
  Te  Te175  1  0.90324447  0.39632581  0.63418267  1
  Te  Te176  1  0.88849110  0.37125541  0.88850662  1
  Te  Te177  1  0.91044715  0.73719607  0.24759801  1
  Te  Te178  1  0.89346041  0.75849247  0.60797743  1
  Te  Te179  1  0.93045795  0.76076790  0.90468547  1
