# generated using pymatgen
data_In2Te3
_symmetry_space_group_name_H-M   'P 1'
_cell_length_a   18.95144640
_cell_length_b   18.91495215
_cell_length_c   18.93000327
_cell_angle_alpha   89.94519960
_cell_angle_beta   90.03987362
_cell_angle_gamma   90.11504510
_symmetry_Int_Tables_number   1
_chemical_formula_structural   In2Te3
_chemical_formula_sum   'In72 Te108'
_cell_volume   6785.73849288
_cell_formula_units_Z   36
loop_
 _symmetry_equiv_pos_site_id
 _symmetry_equiv_pos_as_xyz
  1  'x, y, z'
loop_
 _atom_site_type_symbol
 _atom_site_label
 _atom_site_symmetry_multiplicity
 _atom_site_fract_x
 _atom_site_fract_y
 _atom_site_fract_z
 _atom_site_occupancy
  In  In0  1  0.15864279  0.83557970  0.67222906  1
  In  In1  1  -0.01004331  0.81615991  0.84284198  1
  In  In2  1  0.66118488  0.84780371  0.85388132  1
  In  In3  1  0.14794149  0.00137116  0.13687156  1
  In  In4  1  0.18034654  0.31946032  0.50588133  1
  In  In5  1  0.64062233  0.50605683  0.50779857  1
  In  In6  1  0.18365146  0.52245899  0.79317266  1
  In  In7  1  0.50663064  0.85245748  0.00485430  1
  In  In8  1  -0.01188268  0.00891282  0.66978470  1
  In  In9  1  0.33068946  0.83172142  0.16998202  1
  In  In10  1  0.52206950  0.31882862  0.81728382  1
  In  In11  1  0.67062596  0.49354131  0.83975532  1
  In  In12  1  0.85379148  0.31964478  0.14121664  1
  In  In13  1  0.50093121  0.83844521  0.69822236  1
  In  In14  1  0.33218913  0.49978019  0.48349128  1
  In  In15  1  0.66692122  0.70007486  0.01844596  1
  In  In16  1  0.01646259  0.15896355  0.48293875  1
  In  In17  1  0.52841740  0.15064323  0.37127186  1
  In  In18  1  0.33616067  0.19171078  0.13935207  1
  In  In19  1  0.32976740  0.83338287  0.84580724  1
  In  In20  1  -0.03046782  -0.01772233  0.24389454  1
  In  In21  1  -0.02020386  -0.00736458  -0.00669119  1
  In  In22  1  0.19624857  0.49096129  0.31557921  1
  In  In23  1  0.33346385  0.67552275  0.32137159  1
  In  In24  1  0.34467334  0.86742928  0.52121505  1
  In  In25  1  0.31126689  0.65974728  -0.01115289  1
  In  In26  1  0.68479004  0.30058312  -0.02480340  1
  In  In27  1  0.15363714  0.17611972  0.68176785  1
  In  In28  1  -0.01220420  0.47947536  0.48624711  1
  In  In29  1  0.80466699  -0.01077111  0.49494862  1
  In  In30  1  0.49789576  0.67442685  0.19433554  1
  In  In31  1  0.34053325  0.03096231  -0.03064508  1
  In  In32  1  0.32702244  0.33877786  -0.00664635  1
  In  In33  1  0.50211672  0.65920247  0.50008803  1
  In  In34  1  0.67136375  0.31880613  0.34556147  1
  In  In35  1  -0.03935910  0.83191150  0.49402434  1
  In  In36  1  0.83710562  0.66747215  0.14294900  1
  In  In37  1  0.84601326  0.49790812  -0.00411727  1
  In  In38  1  0.65626320  0.66499450  0.67967135  1
  In  In39  1  0.81737688  0.50604483  0.32754032  1
  In  In40  1  0.51484194  0.83253281  0.32224001  1
  In  In41  1  0.81389866  0.48613079  0.70368341  1
  In  In42  1  0.01653041  0.64939034  0.32836059  1
  In  In43  1  0.49848618  0.48966924  0.66580949  1
  In  In44  1  0.69669914  -0.00464495  0.02508018  1
  In  In45  1  0.01036707  0.18298523  0.85800970  1
  In  In46  1  0.14021820  0.68736497  0.51945976  1
  In  In47  1  0.16118657  0.49255848  0.00100325  1
  In  In48  1  0.36164756  0.17807926  0.49969498  1
  In  In49  1  0.34495703  0.04199250  0.71742200  1
  In  In50  1  0.14302449  0.83837056  0.02270974  1
  In  In51  1  0.81723216  0.82767474  0.31630653  1
  In  In52  1  0.00338449  0.46252107  0.85689658  1
  In  In53  1  0.52166822  0.31700837  0.16536738  1
  In  In54  1  0.66254369  0.00062736  0.33431397  1
  In  In55  1  0.81585131  0.83763836  0.66050825  1
  In  In56  1  0.14510319  0.65758711  0.13379340  1
  In  In57  1  0.47331160  0.50805661  -0.00442373  1
  In  In58  1  -0.00246593  0.34070202  0.29236326  1
  In  In59  1  0.83490863  0.15913069  0.70572462  1
  In  In60  1  0.13322076  0.17572101  0.30987373  1
  In  In61  1  0.67211129  0.50529671  0.17400411  1
  In  In62  1  0.83484371  0.31245461  0.52798844  1
  In  In63  1  0.67386895  0.14812624  0.83654458  1
  In  In64  1  0.00144856  0.62091821  0.68908948  1
  In  In65  1  0.51534658  0.17343286  0.00387880  1
  In  In66  1  0.31965257  0.00675900  0.32221680  1
  In  In67  1  0.34992977  0.33980512  0.33650478  1
  In  In68  1  0.85625170  0.14752908  0.32066208  1
  In  In69  1  0.32410382  0.30891736  0.68535181  1
  In  In70  1  0.18845269  -0.00206423  0.49979895  1
  In  In71  1  0.80880872  0.69857548  0.50281599  1
  Te  Te72  1  0.08499963  0.08729144  0.03749379  1
  Te  Te73  1  0.09024997  0.05777823  0.39829832  1
  Te  Te74  1  0.07956258  0.07508592  0.76722996  1
  Te  Te75  1  0.05617894  0.39913774  0.05257050  1
  Te  Te76  1  0.09474695  0.40470619  0.40565623  1
  Te  Te77  1  0.08734125  0.42417461  0.74308531  1
  Te  Te78  1  0.04145601  0.74280005  0.07117953  1
  Te  Te79  1  0.07142091  0.76684961  0.41108386  1
  Te  Te80  1  0.08350696  0.73282107  0.75353670  1
  Te  Te81  1  0.42514415  0.08088638  0.08585317  1
  Te  Te82  1  0.41473536  0.05668223  0.42854974  1
  Te  Te83  1  0.43962265  0.13321115  0.78410506  1
  Te  Te84  1  0.41938257  0.40629196  0.09570716  1
  Te  Te85  1  0.43500001  0.40933032  0.43278781  1
  Te  Te86  1  0.41367488  0.40890278  0.76202580  1
  Te  Te87  1  0.41271915  0.74286293  0.07664244  1
  Te  Te88  1  0.41061022  0.76169425  0.42149199  1
  Te  Te89  1  0.39841377  0.74153135  0.74940493  1
  Te  Te90  1  0.80135769  0.05044307  0.11878783  1
  Te  Te91  1  0.74774026  0.11321335  0.42417743  1
  Te  Te92  1  0.74341704  0.05105258  0.74763374  1
  Te  Te93  1  0.73875772  0.40788414  0.07928329  1
  Te  Te94  1  0.75749278  0.41793554  0.43546535  1
  Te  Te95  1  0.71985340  0.38249473  0.75369358  1
  Te  Te96  1  0.78269077  0.78079993  0.06208493  1
  Te  Te97  1  0.72139594  0.77941954  0.41873106  1
  Te  Te98  1  0.74893001  0.74825406  0.76563666  1
  Te  Te99  1  0.08634403  0.26547139  0.20351487  1
  Te  Te100  1  0.06754582  0.25776632  0.58702526  1
  Te  Te101  1  0.07925916  0.28807332  0.94207188  1
  Te  Te102  1  0.08531908  0.55476287  0.23316151  1
  Te  Te103  1  0.08473229  0.55897660  0.57718262  1
  Te  Te104  1  0.08374806  0.57988153  0.90629479  1
  Te  Te105  1  0.09152488  0.90384204  0.22957671  1
  Te  Te106  1  0.07291189  0.91784433  0.57300625  1
  Te  Te107  1  0.08357047  0.91778250  0.90805503  1
  Te  Te108  1  0.42939951  0.23508909  0.25805566  1
  Te  Te109  1  0.43224144  0.25184839  0.60328615  1
  Te  Te110  1  0.42194025  0.24913914  0.91166602  1
  Te  Te111  1  0.41526197  0.57247711  0.25907041  1
  Te  Te112  1  0.40653407  0.58320157  0.58841672  1
  Te  Te113  1  0.39428441  0.58168427  0.89288492  1
  Te  Te114  1  0.42274446  0.92640301  0.24363450  1
  Te  Te115  1  0.42549655  0.94761911  0.61862604  1
  Te  Te116  1  0.43279331  0.93218750  0.89908487  1
  Te  Te117  1  0.76905330  0.25245667  0.24992779  1
  Te  Te118  1  0.74745298  0.22800004  0.60786472  1
  Te  Te119  1  0.77805253  0.19195867  0.93656047  1
  Te  Te120  1  0.74195437  0.61382994  0.25332180  1
  Te  Te121  1  0.75643847  0.58618129  0.59276469  1
  Te  Te122  1  0.73535379  0.58692113  0.93934308  1
  Te  Te123  1  0.76410810  0.94543342  0.23875307  1
  Te  Te124  1  0.71821288  0.92610139  0.59525137  1
  Te  Te125  1  0.77167020  0.90091897  0.93749526  1
  Te  Te126  1  0.23598554  0.23149717  0.04002064  1
  Te  Te127  1  0.24389587  0.22465383  0.40618714  1
  Te  Te128  1  0.23616679  0.24340300  0.78627787  1
  Te  Te129  1  0.25949709  0.56497193  0.09435829  1
  Te  Te130  1  0.23174767  0.60111556  0.42009142  1
  Te  Te131  1  0.28606164  0.62456675  0.76975851  1
  Te  Te132  1  0.27083709  0.92301944  0.06291613  1
  Te  Te133  1  0.25004954  0.89816867  0.40317394  1
  Te  Te134  1  0.24900535  0.92348455  0.75213644  1
  Te  Te135  1  0.62316592  0.22757469  0.09631456  1
  Te  Te136  1  0.57861181  0.27030805  0.45268277  1
  Te  Te137  1  0.57188020  0.20199956  0.73645908  1
  Te  Te138  1  0.57506969  0.58408969  0.08503348  1
  Te  Te139  1  0.59043921  0.59430647  0.40330111  1
  Te  Te140  1  0.56825052  0.58033547  0.76813028  1
  Te  Te141  1  0.59863426  0.91089688  0.10348843  1
  Te  Te142  1  0.58959032  0.90862538  0.42376071  1
  Te  Te143  1  0.59478700  0.93743220  0.75652082  1
  Te  Te144  1  0.94241478  0.29338461  0.02307355  1
  Te  Te145  1  0.92566460  0.26361942  0.40811024  1
  Te  Te146  1  0.93185277  0.25556693  0.75676327  1
  Te  Te147  1  0.93661266  0.59247953  0.06294759  1
  Te  Te148  1  0.90759554  0.59688901  0.42525906  1
  Te  Te149  1  0.89088320  0.58844641  0.78746508  1
  Te  Te150  1  0.90713580  0.93522192  0.11362404  1
  Te  Te151  1  0.90847513  0.93358381  0.39489776  1
  Te  Te152  1  0.90804529  0.91427645  0.75433036  1
  Te  Te153  1  0.24301551  0.09551079  0.22543631  1
  Te  Te154  1  0.25352408  0.09789756  0.59277110  1
  Te  Te155  1  0.27798157  0.09722315  0.85123715  1
  Te  Te156  1  0.25343043  0.38312926  0.23532973  1
  Te  Te157  1  0.25997882  0.41534049  0.58847046  1
  Te  Te158  1  0.25191921  0.42783535  0.89876978  1
  Te  Te159  1  0.22814881  0.74154620  0.23508063  1
  Te  Te160  1  0.25666429  0.75899809  0.58563719  1
  Te  Te161  1  0.22019289  0.75609308  0.91902361  1
  Te  Te162  1  0.59439661  0.09953059  0.24976784  1
  Te  Te163  1  0.60613641  0.12279291  0.49707768  1
  Te  Te164  1  0.59353722  0.06479664  0.93507772  1
  Te  Te165  1  0.58700901  0.41557228  0.26250913  1
  Te  Te166  1  0.61464552  0.41088296  0.61709888  1
  Te  Te167  1  0.57494605  0.40774212  0.93707441  1
  Te  Te168  1  0.60121167  0.77908613  0.21350445  1
  Te  Te169  1  0.57615331  0.75578040  0.59022530  1
  Te  Te170  1  0.56520992  0.74459957  0.91510250  1
  Te  Te171  1  0.94858189  0.12423209  0.20747079  1
  Te  Te172  1  0.91153249  0.08333872  0.56279977  1
  Te  Te173  1  0.90260278  0.09061436  0.91102242  1
  Te  Te174  1  0.90552115  0.44064100  0.22444297  1
  Te  Te175  1  0.91131919  0.41980142  0.60403043  1
  Te  Te176  1  0.87933198  0.39121787  0.89733111  1
  Te  Te177  1  0.92216199  0.74042197  0.25069187  1
  Te  Te178  1  0.92702715  0.73378311  0.60623164  1
  Te  Te179  1  0.88435843  0.71928876  0.87166978  1
