# generated using pymatgen
data_In2Te3
_symmetry_space_group_name_H-M   'P 1'
_cell_length_a   18.99003268
_cell_length_b   18.98854202
_cell_length_c   18.99348085
_cell_angle_alpha   90.04327079
_cell_angle_beta   89.87443957
_cell_angle_gamma   90.15002380
_symmetry_Int_Tables_number   1
_chemical_formula_structural   In2Te3
_chemical_formula_sum   'In72 Te108'
_cell_volume   6848.87502673
_cell_formula_units_Z   36
loop_
 _symmetry_equiv_pos_site_id
 _symmetry_equiv_pos_as_xyz
  1  'x, y, z'
loop_
 _atom_site_type_symbol
 _atom_site_label
 _atom_site_symmetry_multiplicity
 _atom_site_fract_x
 _atom_site_fract_y
 _atom_site_fract_z
 _atom_site_occupancy
  In  In0  1  0.67977041  0.87161568  0.51047303  1
  In  In1  1  0.66333403  0.82969202  0.83004908  1
  In  In2  1  0.34799627  -0.01474534  -0.00067700  1
  In  In3  1  0.52860381  0.47587549  0.00800554  1
  In  In4  1  0.13802537  0.83368641  0.66595080  1
  In  In5  1  -0.02801865  0.67274706  0.33109078  1
  In  In6  1  0.18124830  0.33829561  0.83990380  1
  In  In7  1  0.67671245  0.00205549  0.30722499  1
  In  In8  1  0.67804693  0.49325309  0.17330383  1
  In  In9  1  0.83984619  -0.00889944  0.82197898  1
  In  In10  1  0.13444335  -0.00456296  0.17430996  1
  In  In11  1  0.85843717  0.31787228  0.82650139  1
  In  In12  1  -0.00181505  0.48593358  0.15598461  1
  In  In13  1  0.65149517  0.35634629  0.34706681  1
  In  In14  1  0.83522886  0.15132632  0.30719461  1
  In  In15  1  0.34082360  0.01583231  0.68996111  1
  In  In16  1  0.68724307  0.30939909  -0.02460445  1
  In  In17  1  0.33194510  0.17103239  0.51069483  1
  In  In18  1  0.52758296  0.50912306  0.66444766  1
  In  In19  1  0.00147043  0.49800003  0.82175365  1
  In  In20  1  0.49086388  0.35690574  0.50147914  1
  In  In21  1  -0.01094930  0.81555053  0.49794842  1
  In  In22  1  0.13659651  0.66810703  0.48930296  1
  In  In23  1  0.17439780  0.48395297  0.68094248  1
  In  In24  1  0.18390494  0.14525331  0.00747006  1
  In  In25  1  0.30152718  0.85205919  0.49304981  1
  In  In26  1  0.51419696  0.00431896  0.84555324  1
  In  In27  1  0.34105654  0.31990188  -0.01159423  1
  In  In28  1  0.50579262  0.00875460  0.17330554  1
  In  In29  1  0.34562984  0.33394573  0.33679486  1
  In  In30  1  0.48857559  0.81554139  0.31396909  1
  In  In31  1  0.00007828  0.66333977  -0.01066868  1
  In  In32  1  0.33718795  0.49932972  0.83166174  1
  In  In33  1  0.50368669  0.82301668  0.67972990  1
  In  In34  1  0.82045858  0.84188379  0.31187904  1
  In  In35  1  0.14880151  0.17234396  0.66549549  1
  In  In36  1  0.32809574  0.52174685  0.18545365  1
  In  In37  1  0.18916292  -0.00084798  0.83981794  1
  In  In38  1  0.31909190  0.68397910  0.31996795  1
  In  In39  1  0.88265735  0.03553920  0.49997331  1
  In  In40  1  0.81815521  0.33382714  0.17023516  1
  In  In41  1  0.50614025  0.17382171  -0.00296264  1
  In  In42  1  0.50313184  0.67431380  0.83298982  1
  In  In43  1  0.31477257  0.01424917  0.32370064  1
  In  In44  1  0.00245439  0.14555227  0.82888228  1
  In  In45  1  0.33096786  0.33874097  0.66244762  1
  In  In46  1  0.50846874  0.00339098  0.50365242  1
  In  In47  1  0.51276384  0.66927250  0.15409945  1
  In  In48  1  0.15749022  0.32170134  0.52145748  1
  In  In49  1  0.64878064  0.67341853  0.32460411  1
  In  In50  1  0.80793659  0.66414109  -0.00555873  1
  In  In51  1  0.16631414  0.81641294  0.00901294  1
  In  In52  1  -0.01469675  0.29629481  0.28636242  1
  In  In53  1  -0.03338347  -0.01966894  0.03955536  1
  In  In54  1  -0.01506617  0.66414820  0.68290366  1
  In  In55  1  0.82598077  0.34082007  0.50045645  1
  In  In56  1  0.32721526  0.66624706  0.00708017  1
  In  In57  1  0.66920939  0.18846461  0.48449144  1
  In  In58  1  0.50797334  0.64314157  0.49701083  1
  In  In59  1  0.15032519  0.68738969  0.17971082  1
  In  In60  1  0.49468349  0.31806512  0.16069281  1
  In  In61  1  0.64623387  0.30059684  0.69961597  1
  In  In62  1  0.67615657  0.66943333  0.68200424  1
  In  In63  1  0.83387809  0.49251227  0.67251905  1
  In  In64  1  0.17446609  0.49069258  0.34303455  1
  In  In65  1  0.49679799  0.83588628  0.00384440  1
  In  In66  1  -0.00735812  0.49683466  0.47895985  1
  In  In67  1  0.00334045  0.84996580  0.84456208  1
  In  In68  1  0.12414963  0.03097875  0.47681597  1
  In  In69  1  0.69810347  0.03256321  0.65857622  1
  In  In70  1  0.71075016  0.01730852  0.03242381  1
  In  In71  1  -0.01251980  0.30602107  0.02109788  1
  Te  Te72  1  0.06189638  0.09264667  0.08105387  1
  Te  Te73  1  0.05248901  0.09658570  0.36462789  1
  Te  Te74  1  0.08873858  0.05593547  0.74176590  1
  Te  Te75  1  0.08487380  0.38639446  0.09416339  1
  Te  Te76  1  0.07750810  0.39220367  0.40689867  1
  Te  Te77  1  0.07650613  0.38887390  0.74343514  1
  Te  Te78  1  0.05304636  0.76322822  0.09438160  1
  Te  Te79  1  0.07989897  0.76266119  0.38746910  1
  Te  Te80  1  0.08204447  0.73977098  0.77041906  1
  Te  Te81  1  0.41380523  0.09155048  0.08488498  1
  Te  Te82  1  0.41341976  0.08378166  0.41647074  1
  Te  Te83  1  0.44710564  0.09734579  0.75096711  1
  Te  Te84  1  0.40806458  0.43100850  0.08941465  1
  Te  Te85  1  0.40567251  0.43932058  0.41740303  1
  Te  Te86  1  0.42929944  0.41917860  0.74383712  1
  Te  Te87  1  0.40499512  0.75962888  0.09736945  1
  Te  Te88  1  0.40760273  0.76009266  0.43046613  1
  Te  Te89  1  0.40696052  0.73149236  0.73903921  1
  Te  Te90  1  0.79505696  0.09743247  0.12325728  1
  Te  Te91  1  0.74930575  0.07279016  0.42534017  1
  Te  Te92  1  0.75640601  0.10475808  0.77267252  1
  Te  Te93  1  0.75278288  0.41787545  0.06485996  1
  Te  Te94  1  0.75007235  0.43573926  0.41964551  1
  Te  Te95  1  0.75089178  0.39911405  0.75802373  1
  Te  Te96  1  0.77518225  0.75664678  0.10365081  1
  Te  Te97  1  0.73412736  0.76905522  0.41441361  1
  Te  Te98  1  0.76129856  0.77281897  0.73927446  1
  Te  Te99  1  0.09177868  0.20128773  0.25604665  1
  Te  Te100  1  0.05709846  0.21598000  0.55598004  1
  Te  Te101  1  0.09085745  0.23889861  0.91354287  1
  Te  Te102  1  0.07591997  0.57572423  0.26293129  1
  Te  Te103  1  0.07691011  0.57344091  0.59258237  1
  Te  Te104  1  0.08603825  0.56818445  0.91764398  1
  Te  Te105  1  0.02674291  0.92647654  0.24629820  1
  Te  Te106  1  0.06418164  0.92577372  0.57135035  1
  Te  Te107  1  0.08934703  0.93610733  0.93576238  1
  Te  Te108  1  0.40381706  0.23899437  0.24245884  1
  Te  Te109  1  0.43060521  0.24929213  0.59249733  1
  Te  Te110  1  0.44973538  0.27176052  0.89742140  1
  Te  Te111  1  0.43227729  0.59930266  0.26278877  1
  Te  Te112  1  0.42303140  0.59005899  0.60202878  1
  Te  Te113  1  0.42937433  0.57972752  0.93312856  1
  Te  Te114  1  0.40471144  0.91929001  0.24351661  1
  Te  Te115  1  0.41130404  0.91755882  0.58418124  1
  Te  Te116  1  0.41550369  0.89948849  0.89350402  1
  Te  Te117  1  0.73244193  0.25536244  0.26604009  1
  Te  Te118  1  0.74968076  0.25019165  0.59583259  1
  Te  Te119  1  0.77311480  0.21794648  0.89645544  1
  Te  Te120  1  0.75059139  0.59323006  0.25258551  1
  Te  Te121  1  0.75141003  0.58169715  0.59218343  1
  Te  Te122  1  0.76435225  0.58977705  0.87667195  1
  Te  Te123  1  0.76987758  0.94078013  0.20647324  1
  Te  Te124  1  0.79130051  0.93836339  0.58605845  1
  Te  Te125  1  0.74763641  0.91808546  0.91903369  1
  Te  Te126  1  0.24967450  0.25323477  0.08009319  1
  Te  Te127  1  0.24237518  0.24815883  0.41998089  1
  Te  Te128  1  0.25569759  0.24050767  0.74972844  1
  Te  Te129  1  0.22831025  0.58983203  0.09420211  1
  Te  Te130  1  0.25121734  0.59416042  0.42155927  1
  Te  Te131  1  0.24112986  0.58362825  0.76220375  1
  Te  Te132  1  0.24153078  0.92378113  0.08557329  1
  Te  Te133  1  0.21284187  0.93168364  0.40122719  1
  Te  Te134  1  0.25355910  0.90326165  0.74245779  1
  Te  Te135  1  0.60457983  0.24455161  0.08755768  1
  Te  Te136  1  0.55685914  0.25470304  0.40930361  1
  Te  Te137  1  0.55899387  0.22758438  0.79231357  1
  Te  Te138  1  0.60907755  0.58644836  0.07268241  1
  Te  Te139  1  0.60149859  0.56770724  0.41694564  1
  Te  Te140  1  0.60416832  0.57599549  0.77812171  1
  Te  Te141  1  0.59028092  0.92734247  0.07816368  1
  Te  Te142  1  0.57433006  0.91726073  0.39677730  1
  Te  Te143  1  0.59809216  0.93282600  0.72814221  1
  Te  Te144  1  0.88556114  0.22221308  0.09477187  1
  Te  Te145  1  0.90219011  0.24811149  0.40318562  1
  Te  Te146  1  0.93020470  0.22921842  0.72873856  1
  Te  Te147  1  0.91038699  0.57186018  0.07131591  1
  Te  Te148  1  0.90003643  0.60442557  0.44082615  1
  Te  Te149  1  0.88554693  0.59652599  0.78492531  1
  Te  Te150  1  0.86191123  0.88461774  0.08693360  1
  Te  Te151  1  0.91060296  0.91337324  0.41284447  1
  Te  Te152  1  0.92615536  0.90905857  0.73534687  1
  Te  Te153  1  0.22543737  0.09576647  0.23997254  1
  Te  Te154  1  0.24164836  0.07107490  0.58133195  1
  Te  Te155  1  0.28660795  0.09220214  0.90822904  1
  Te  Te156  1  0.24466004  0.40854159  0.24001964  1
  Te  Te157  1  0.25688502  0.42788469  0.56619861  1
  Te  Te158  1  0.25036872  0.43071893  0.93644250  1
  Te  Te159  1  0.24057363  0.78080258  0.24621455  1
  Te  Te160  1  0.22985791  0.74950643  0.57935214  1
  Te  Te161  1  0.25545536  0.75211273  0.91396669  1
  Te  Te162  1  0.58855117  0.10195802  0.24947987  1
  Te  Te163  1  0.58720604  0.10347072  0.58311807  1
  Te  Te164  1  0.60744453  0.07976470  0.93531642  1
  Te  Te165  1  0.56320910  0.42482729  0.24466744  1
  Te  Te166  1  0.60391362  0.40225909  0.59080224  1
  Te  Te167  1  0.59981950  0.40397986  0.90410300  1
  Te  Te168  1  0.59911514  0.77520749  0.22027902  1
  Te  Te169  1  0.58742042  0.76358727  0.56887383  1
  Te  Te170  1  0.59364601  0.74401425  0.93337280  1
  Te  Te171  1  0.93956023  0.04815495  0.26724133  1
  Te  Te172  1  0.92842924  0.12940733  0.60246047  1
  Te  Te173  1  0.91597760  0.07100825  0.92831434  1
  Te  Te174  1  0.90551552  0.42195928  0.25848436  1
  Te  Te175  1  0.93015372  0.41068365  0.58714611  1
  Te  Te176  1  0.92937941  0.40742558  0.92478486  1
  Te  Te177  1  0.87431158  0.72505095  0.23157727  1
  Te  Te178  1  0.90424476  0.72034754  0.57283506  1
  Te  Te179  1  0.90825501  0.76046137  0.91953302  1
