# generated using pymatgen
data_In2Te3
_symmetry_space_group_name_H-M   'P 1'
_cell_length_a   18.86101899
_cell_length_b   18.88259533
_cell_length_c   18.85811106
_cell_angle_alpha   90.05554782
_cell_angle_beta   90.04740997
_cell_angle_gamma   90.00571857
_symmetry_Int_Tables_number   1
_chemical_formula_structural   In2Te3
_chemical_formula_sum   'In72 Te108'
_cell_volume   6716.21626479
_cell_formula_units_Z   36
loop_
 _symmetry_equiv_pos_site_id
 _symmetry_equiv_pos_as_xyz
  1  'x, y, z'
loop_
 _atom_site_type_symbol
 _atom_site_label
 _atom_site_symmetry_multiplicity
 _atom_site_fract_x
 _atom_site_fract_y
 _atom_site_fract_z
 _atom_site_occupancy
  In  In0  1  0.82291428  0.49660009  -0.00491566  1
  In  In1  1  0.48443574  0.00991696  0.81931939  1
  In  In2  1  -0.01729420  0.68335978  0.00286291  1
  In  In3  1  0.82767981  0.66202905  0.50997372  1
  In  In4  1  0.52466053  0.63387754  0.11892398  1
  In  In5  1  0.01262834  0.32174474  0.00058799  1
  In  In6  1  -0.01192882  -0.02237088  0.01314967  1
  In  In7  1  0.66394898  0.14207975  0.16920306  1
  In  In8  1  0.50107595  0.32667061  0.19367331  1
  In  In9  1  0.82016772  0.34011033  0.81789482  1
  In  In10  1  0.34115257  0.80384733  0.17814048  1
  In  In11  1  0.69993269  0.80157688  0.81442026  1
  In  In12  1  0.34319334  0.00495062  -0.01474936  1
  In  In13  1  0.65378070  0.02083019  0.67556484  1
  In  In14  1  0.50565874  0.51649035  0.33851183  1
  In  In15  1  0.00333440  -0.01085034  0.68355838  1
  In  In16  1  0.46485111  0.17991460  0.37687780  1
  In  In17  1  0.82499542  0.80942220  0.28217535  1
  In  In18  1  0.16225573  0.00155801  0.15595661  1
  In  In19  1  0.01740716  0.82152368  0.47788677  1
  In  In20  1  0.50258184  0.17192585  -0.01195662  1
  In  In21  1  0.83737349  0.16640368  -0.00622709  1
  In  In22  1  0.32977043  0.48643808  0.20768978  1
  In  In23  1  0.01948300  0.33060932  0.36998285  1
  In  In24  1  0.83651549  -0.00595517  0.50251913  1
  In  In25  1  0.18029837  0.50306077  0.01043396  1
  In  In26  1  0.36197844  0.33237133  -0.00548111  1
  In  In27  1  0.18716661  0.18648975  0.37063095  1
  In  In28  1  0.13818181  0.66480844  0.83548785  1
  In  In29  1  0.65510189  0.84451074  0.49369537  1
  In  In30  1  0.82256145  0.35248979  0.15773612  1
  In  In31  1  0.64458308  0.17501071  0.51193411  1
  In  In32  1  0.20115791  0.16416269  -0.01388976  1
  In  In33  1  0.18757957  0.86208436  0.67104746  1
  In  In34  1  0.86176135  0.17449654  0.32616122  1
  In  In35  1  0.66932155  0.17842758  0.83716259  1
  In  In36  1  0.52648124  0.68333912  0.86100264  1
  In  In37  1  0.50509042  0.48022094  0.67419781  1
  In  In38  1  0.69591578  0.36729203  0.35313497  1
  In  In39  1  0.66601278  0.34247909  0.67609643  1
  In  In40  1  0.01180273  0.15287313  0.20375670  1
  In  In41  1  0.29110279  0.83227999  0.48824057  1
  In  In42  1  0.15328693  0.84121236  -0.01090425  1
  In  In43  1  0.33119049  0.69113642  0.65682071  1
  In  In44  1  0.15930578  0.50707981  0.64457539  1
  In  In45  1  -0.02274832  0.81315859  0.16550581  1
  In  In46  1  0.51253638  0.66522156  0.49213822  1
  In  In47  1  0.33629926  -0.01465456  0.33801725  1
  In  In48  1  0.64727501  0.01097271  0.34089210  1
  In  In49  1  0.34195855  0.66913083  -0.02814814  1
  In  In50  1  0.48311423  0.84107028  0.66140128  1
  In  In51  1  0.32578362  0.48649898  0.49410264  1
  In  In52  1  0.48073666  0.32403734  0.81651676  1
  In  In53  1  0.00305685  0.01332230  0.33976797  1
  In  In54  1  0.34469508  0.16730717  0.15437968  1
  In  In55  1  0.43957691  0.17108041  0.64720723  1
  In  In56  1  0.01001050  0.35688400  0.62931287  1
  In  In57  1  0.52336340  0.82947805  0.31891815  1
  In  In58  1  0.66232814  0.65297086  0.31415267  1
  In  In59  1  0.84483159  0.50841184  0.35830748  1
  In  In60  1  -0.02793977  0.66707279  0.66655881  1
  In  In61  1  0.35797272  0.50380371  0.81848985  1
  In  In62  1  0.54077614  0.87484618  0.02116151  1
  In  In63  1  0.02314650  0.15711868  0.83444369  1
  In  In64  1  -0.01523021  0.49700026  0.78063706  1
  In  In65  1  -0.01586010  0.49812818  0.15220340  1
  In  In66  1  0.83922400  0.14898949  0.67521917  1
  In  In67  1  0.20807464  0.18666687  0.64629804  1
  In  In68  1  0.31801055  0.65244464  0.35005908  1
  In  In69  1  0.65385084  0.48888398  0.83205551  1
  In  In70  1  -0.04013194  0.82037461  0.83402085  1
  In  In71  1  0.17073950  0.64201142  0.20001224  1
  Te  Te72  1  0.08078713  0.09505550  0.06642636  1
  Te  Te73  1  0.08892451  0.09298891  0.42832932  1
  Te  Te74  1  0.10558800  0.09334177  0.72718189  1
  Te  Te75  1  0.09531926  0.40962639  0.09607445  1
  Te  Te76  1  0.11964739  0.42981860  0.41595374  1
  Te  Te77  1  0.10092226  0.40843653  0.74774528  1
  Te  Te78  1  0.10153920  0.73529950  0.08634539  1
  Te  Te79  1  0.12373494  0.76045123  0.39776052  1
  Te  Te80  1  0.07708917  0.76230664  0.73671778  1
  Te  Te81  1  0.43853625  0.07103676  0.08420508  1
  Te  Te82  1  0.36919068  0.08320374  0.45033009  1
  Te  Te83  1  0.37453986  0.05153441  0.72204610  1
  Te  Te84  1  0.42238877  0.42343823  0.10298356  1
  Te  Te85  1  0.41065896  0.41926773  0.39431760  1
  Te  Te86  1  0.38639147  0.39220509  0.71443469  1
  Te  Te87  1  0.42992495  0.75581713  0.06341961  1
  Te  Te88  1  0.41989660  0.75651062  0.41213871  1
  Te  Te89  1  0.41996707  0.74729919  0.76507963  1
  Te  Te90  1  0.74132246  0.07339546  0.06120176  1
  Te  Te91  1  0.74758936  0.09199214  0.42335908  1
  Te  Te92  1  0.75822904  0.07034625  0.77660136  1
  Te  Te93  1  0.72068514  0.42659716  0.07993859  1
  Te  Te94  1  0.79216790  0.41283621  0.46297447  1
  Te  Te95  1  0.76478608  0.44723792  0.72682043  1
  Te  Te96  1  0.78354402  0.79148855  0.13923307  1
  Te  Te97  1  0.73904471  0.75304259  0.40577696  1
  Te  Te98  1  0.76911114  0.70004959  0.73041153  1
  Te  Te99  1  0.10586607  0.25473771  0.25957918  1
  Te  Te100  1  0.09189772  0.24807480  0.57471901  1
  Te  Te101  1  0.11314658  0.25946100  0.90432668  1
  Te  Te102  1  0.04619679  0.58643399  0.25736698  1
  Te  Te103  1  0.04729152  0.57645829  0.57237275  1
  Te  Te104  1  0.06759973  0.57095925  0.93184161  1
  Te  Te105  1  0.06678217  0.91921091  0.23642078  1
  Te  Te106  1  0.08657466  0.92216000  0.57428410  1
  Te  Te107  1  0.06524201  0.91749454  0.89490913  1
  Te  Te108  1  0.38676730  0.25910156  0.26888302  1
  Te  Te109  1  0.40695219  0.24216632  0.51650713  1
  Te  Te110  1  0.39211771  0.21729015  0.89165362  1
  Te  Te111  1  0.42298120  0.61012166  0.24552017  1
  Te  Te112  1  0.41434177  0.58674009  0.58187794  1
  Te  Te113  1  0.44643057  0.56798867  0.92503125  1
  Te  Te114  1  0.42701142  0.91582210  0.23601867  1
  Te  Te115  1  0.37895968  0.90887586  0.58094498  1
  Te  Te116  1  0.43133983  0.90353878  0.91540845  1
  Te  Te117  1  0.74744657  0.25145352  0.25488528  1
  Te  Te118  1  0.75274880  0.24511871  0.59455045  1
  Te  Te119  1  0.74462194  0.27090931  0.93139589  1
  Te  Te120  1  0.76318917  0.56650713  0.25072419  1
  Te  Te121  1  0.75092984  0.59625971  0.61600856  1
  Te  Te122  1  0.72988927  0.58683884  0.91839129  1
  Te  Te123  1  0.71201445  0.91461867  0.24546389  1
  Te  Te124  1  0.73959709  0.92173966  0.59483769  1
  Te  Te125  1  0.77743541  0.88709639  0.90686524  1
  Te  Te126  1  0.25503882  0.26810383  0.08455032  1
  Te  Te127  1  0.26163753  0.27366113  0.46709460  1
  Te  Te128  1  0.30015187  0.24331857  0.74805964  1
  Te  Te129  1  0.27184615  0.59664442  0.08952955  1
  Te  Te130  1  0.21761422  0.56672195  0.42104501  1
  Te  Te131  1  0.24639188  0.58781015  0.75085724  1
  Te  Te132  1  0.26041560  0.90649082  0.08586163  1
  Te  Te133  1  0.21659795  0.92584198  0.40182983  1
  Te  Te134  1  0.26813889  0.94188954  0.76493216  1
  Te  Te135  1  0.58417941  0.24804207  0.09122628  1
  Te  Te136  1  0.59056264  0.27016576  0.40759770  1
  Te  Te137  1  0.56791528  0.22450003  0.73238294  1
  Te  Te138  1  0.64491753  0.57922246  0.05570537  1
  Te  Te139  1  0.61276237  0.56811237  0.43538031  1
  Te  Te140  1  0.57601341  0.59080916  0.74675759  1
  Te  Te141  1  0.63246713  0.94501981  0.11251162  1
  Te  Te142  1  0.54961663  0.93289959  0.42963857  1
  Te  Te143  1  0.58869499  0.90663248  0.75828868  1
  Te  Te144  1  0.92144047  0.24440040  0.09813579  1
  Te  Te145  1  0.92202510  0.24462146  0.43922584  1
  Te  Te146  1  0.92466136  0.24874500  0.75435222  1
  Te  Te147  1  0.88861613  0.59855866  0.08893217  1
  Te  Te148  1  0.94045321  0.58777057  0.44317698  1
  Te  Te149  1  0.89825536  0.61775281  0.78917529  1
  Te  Te150  1  0.87983526  0.90125898  0.08660839  1
  Te  Te151  1  0.90641157  0.90807510  0.39939028  1
  Te  Te152  1  0.89239770  0.90823966  0.73753168  1
  Te  Te153  1  0.25093430  0.08642778  0.24613921  1
  Te  Te154  1  0.27976312  0.07334758  0.57901458  1
  Te  Te155  1  0.23326109  0.04963795  0.89550602  1
  Te  Te156  1  0.22126685  0.44660156  0.29842270  1
  Te  Te157  1  0.23277303  0.39637267  0.57199321  1
  Te  Te158  1  0.26751524  0.42352087  0.91418327  1
  Te  Te159  1  0.22811521  0.76514163  0.27659057  1
  Te  Te160  1  0.21306219  0.73583030  0.57628186  1
  Te  Te161  1  0.24377782  0.75878088  0.89659385  1
  Te  Te162  1  0.55363689  0.10419984  0.26823054  1
  Te  Te163  1  0.55149826  0.07698718  0.58002691  1
  Te  Te164  1  0.58849038  0.07163744  0.91225825  1
  Te  Te165  1  0.59743540  0.43057747  0.25173789  1
  Te  Te166  1  0.58134621  0.40624909  0.57430399  1
  Te  Te167  1  0.57050756  0.39374983  0.90923101  1
  Te  Te168  1  0.58747494  0.73843823  0.21360231  1
  Te  Te169  1  0.58699350  0.75069991  0.59329058  1
  Te  Te170  1  0.62066377  0.76849713  0.94696718  1
  Te  Te171  1  0.89557815  0.06127997  0.23202809  1
  Te  Te172  1  0.93368741  0.08151022  0.57788577  1
  Te  Te173  1  0.92171216  0.07207994  0.90962544  1
  Te  Te174  1  0.92404674  0.40080887  0.26153903  1
  Te  Te175  1  0.91719707  0.44462629  0.55796687  1
  Te  Te176  1  0.92596839  0.41087776  0.91093192  1
  Te  Te177  1  0.94529827  0.72001314  0.27551915  1
  Te  Te178  1  0.91023576  0.77328765  0.57518733  1
  Te  Te179  1  0.86923122  0.76761529  0.94340805  1
