# generated using pymatgen
data_In2Te3
_symmetry_space_group_name_H-M   'P 1'
_cell_length_a   18.78983085
_cell_length_b   18.79651140
_cell_length_c   18.78845269
_cell_angle_alpha   89.97329714
_cell_angle_beta   89.97534820
_cell_angle_gamma   89.95267211
_symmetry_Int_Tables_number   1
_chemical_formula_structural   In2Te3
_chemical_formula_sum   'In72 Te108'
_cell_volume   6635.76355584
_cell_formula_units_Z   36
loop_
 _symmetry_equiv_pos_site_id
 _symmetry_equiv_pos_as_xyz
  1  'x, y, z'
loop_
 _atom_site_type_symbol
 _atom_site_label
 _atom_site_symmetry_multiplicity
 _atom_site_fract_x
 _atom_site_fract_y
 _atom_site_fract_z
 _atom_site_occupancy
  In  In0  1  0.18188503  0.33279673  0.50701686  1
  In  In1  1  0.16876292  0.67765522  0.17988175  1
  In  In2  1  0.50080992  0.18104242  0.64007131  1
  In  In3  1  0.66643955  0.48249692  0.18416130  1
  In  In4  1  0.67861932  0.14818024  0.82168195  1
  In  In5  1  0.17354405  -0.00393294  0.84652094  1
  In  In6  1  0.01115579  0.17255642  0.82815351  1
  In  In7  1  0.35062982  0.50365123  0.16653928  1
  In  In8  1  0.31537977  0.82739186  0.86325376  1
  In  In9  1  0.66233880  0.17911995  0.18422656  1
  In  In10  1  0.65207259  -0.02283894  0.00103837  1
  In  In11  1  0.00453261  0.67145098  0.65976849  1
  In  In12  1  0.16569291  0.51911277  0.34561675  1
  In  In13  1  0.49487580  0.33053351  0.83636917  1
  In  In14  1  0.85198286  0.65372350  0.84956194  1
  In  In15  1  0.15151205  0.82895890  0.34896298  1
  In  In16  1  0.32447274  0.49230191  0.49343731  1
  In  In17  1  0.67138791  0.47826290  0.48529481  1
  In  In18  1  0.50647915  0.66345540  0.48795274  1
  In  In19  1  0.84159780  0.49024296  0.00020503  1
  In  In20  1  0.83236277  0.35286123  0.83465407  1
  In  In21  1  0.18550728  0.18021897  0.66287532  1
  In  In22  1  0.30255847  0.52484635  0.79947349  1
  In  In23  1  -0.00676271  -0.01605646  0.64160960  1
  In  In24  1  0.85667705  0.85098251  0.34910384  1
  In  In25  1  0.46896167  0.67173024  0.16245775  1
  In  In26  1  0.33299351  0.17537894  0.50761484  1
  In  In27  1  0.86206861  0.83070954  0.65750795  1
  In  In28  1  0.67493057  0.81964163  0.83826652  1
  In  In29  1  0.65117557  0.30565604  0.02783418  1
  In  In30  1  0.33445178  0.00741640  0.64300600  1
  In  In31  1  0.15376880  0.50462205  -0.01090947  1
  In  In32  1  0.67833067  0.33053761  0.33026873  1
  In  In33  1  0.33653636  0.82897395  0.52244143  1
  In  In34  1  0.16776702  0.15801805  0.01204534  1
  In  In35  1  0.32780059  0.68779570  -0.01669257  1
  In  In36  1  0.33697867  0.32472415  0.00744791  1
  In  In37  1  0.16027640  0.31813927  0.82438686  1
  In  In38  1  0.15206876  0.83373407  0.64674117  1
  In  In39  1  0.66721068  0.65724144  0.32667674  1
  In  In40  1  -0.02104269  0.32813622  0.33314889  1
  In  In41  1  -0.00763575  0.50986989  0.51805461  1
  In  In42  1  0.66338104  0.85119807  0.15186232  1
  In  In43  1  0.49544738  0.67183167  0.80876082  1
  In  In44  1  0.00367204  0.14951827  0.17413048  1
  In  In45  1  0.49480016  0.48453725  0.00052215  1
  In  In46  1  0.85502680  0.66443145  0.49684611  1
  In  In47  1  0.01158968  0.00792151  0.00107740  1
  In  In48  1  0.64847665  0.85474792  0.48715341  1
  In  In49  1  0.34733972  0.32744857  0.33964498  1
  In  In50  1  0.79945920  0.18617821  0.63827657  1
  In  In51  1  0.66973061  0.02724399  0.64110708  1
  In  In52  1  0.50613516  0.17849176  0.33518076  1
  In  In53  1  0.00561741  0.35296496  0.66061597  1
  In  In54  1  0.81562087  0.82615675  0.00238531  1
  In  In55  1  0.83725187  0.01107086  0.19124321  1
  In  In56  1  0.64116030  0.65543588  0.67735350  1
  In  In57  1  0.01192601  0.14241350  0.45472594  1
  In  In58  1  0.50680982  0.48668686  0.64607487  1
  In  In59  1  0.16871237  0.33320081  0.15118594  1
  In  In60  1  0.50858033  0.00848464  0.81217442  1
  In  In61  1  0.49279050  0.86039649  0.33423062  1
  In  In62  1  0.49284521  0.83409995  0.02620469  1
  In  In63  1  0.02161131  0.67155658  0.01338129  1
  In  In64  1  0.00310027  0.83182412  0.18385208  1
  In  In65  1  0.82940815  0.48664826  0.65790792  1
  In  In66  1  0.69140150  0.65981748  0.01348394  1
  In  In67  1  0.00088298  0.50667998  0.18793876  1
  In  In68  1  0.85148981  0.16664988  0.01821506  1
  In  In69  1  0.46444239  0.84001285  0.68737076  1
  In  In70  1  0.31779882  0.01395148  0.32418105  1
  In  In71  1  0.33271143  0.01472831  0.04137310  1
  Te  Te72  1  0.11093600  0.05235411  0.10831249  1
  Te  Te73  1  0.10962300  0.06729051  0.36167307  1
  Te  Te74  1  0.09219417  0.07664289  0.74055673  1
  Te  Te75  1  0.06560549  0.41970129  0.07962734  1
  Te  Te76  1  0.08063877  0.41361292  0.42058564  1
  Te  Te77  1  0.09353734  0.42743763  0.75157868  1
  Te  Te78  1  0.10617579  0.77985952  0.08353012  1
  Te  Te79  1  0.06408460  0.74795456  0.43487838  1
  Te  Te80  1  0.06829050  0.76906578  0.75028108  1
  Te  Te81  1  0.43367432  0.10725815  0.09195463  1
  Te  Te82  1  0.41523724  0.08434732  0.41918553  1
  Te  Te83  1  0.41166934  0.09877723  0.73747289  1
  Te  Te84  1  0.43505245  0.39278701  0.10630024  1
  Te  Te85  1  0.43022041  0.39773263  0.44090725  1
  Te  Te86  1  0.41019567  0.42617800  0.74998412  1
  Te  Te87  1  0.36614230  0.78162253  0.10143989  1
  Te  Te88  1  0.41302546  0.75499229  0.41036938  1
  Te  Te89  1  0.37413342  0.73473715  0.74495416  1
  Te  Te90  1  0.74303976  0.07639745  0.08199304  1
  Te  Te91  1  0.79546509  0.03805300  0.47533129  1
  Te  Te92  1  0.77778204  0.06830943  0.73935089  1
  Te  Te93  1  0.75451734  0.39971258  0.09025569  1
  Te  Te94  1  0.77402435  0.43047863  0.39012918  1
  Te  Te95  1  0.73583780  0.40470943  0.73702543  1
  Te  Te96  1  0.76543510  0.74008306  0.11803799  1
  Te  Te97  1  0.74363375  0.75251745  0.42293360  1
  Te  Te98  1  0.76111656  0.73543710  0.74385277  1
  Te  Te99  1  0.08787152  0.25505364  0.25268277  1
  Te  Te100  1  0.07154739  0.23949960  0.57506413  1
  Te  Te101  1  0.07752909  0.25637578  0.93762321  1
  Te  Te102  1  0.06790389  0.61308495  0.27425912  1
  Te  Te103  1  0.10358589  0.57603983  0.59494209  1
  Te  Te104  1  0.08459827  0.59955429  0.89895002  1
  Te  Te105  1  0.06656008  0.93236678  0.27718436  1
  Te  Te106  1  0.08915345  0.92460090  0.54645724  1
  Te  Te107  1  0.08387042  0.90734407  0.92133285  1
  Te  Te108  1  0.39559411  0.22299588  0.24538859  1
  Te  Te109  1  0.41777204  0.28283814  0.56701665  1
  Te  Te110  1  0.41619186  0.23731506  0.91871083  1
  Te  Te111  1  0.41104780  0.58897326  0.26979066  1
  Te  Te112  1  0.41562528  0.59025581  0.58387761  1
  Te  Te113  1  0.41351019  0.58021032  0.91300562  1
  Te  Te114  1  0.40977264  0.93511049  0.23708039  1
  Te  Te115  1  0.44399686  0.93324002  0.56865667  1
  Te  Te116  1  0.43143934  0.91748067  0.91153206  1
  Te  Te117  1  0.77237431  0.23366386  0.26518961  1
  Te  Te118  1  0.71473514  0.26414296  0.54740106  1
  Te  Te119  1  0.75310505  0.24179253  0.92096439  1
  Te  Te120  1  0.76133207  0.57554984  0.24822458  1
  Te  Te121  1  0.73853127  0.59271538  0.57655008  1
  Te  Te122  1  0.74159103  0.56536722  0.90666636  1
  Te  Te123  1  0.74275965  0.91685094  0.26429386  1
  Te  Te124  1  0.76475759  0.91437711  0.57409327  1
  Te  Te125  1  0.76003436  0.92812610  0.90316963  1
  Te  Te126  1  0.26854776  0.22727035  0.10550302  1
  Te  Te127  1  0.23977480  0.23876905  0.40347014  1
  Te  Te128  1  0.27248823  0.25125468  0.75682199  1
  Te  Te129  1  0.25116430  0.58330242  0.08133442  1
  Te  Te130  1  0.25074509  0.60452436  0.42950275  1
  Te  Te131  1  0.21898076  0.59649789  0.70243766  1
  Te  Te132  1  0.26047016  0.89304704  0.07182424  1
  Te  Te133  1  0.25701804  0.91491525  0.42579144  1
  Te  Te134  1  0.26031071  0.91776551  0.74273596  1
  Te  Te135  1  0.54651022  0.21809937  0.09270000  1
  Te  Te136  1  0.61209282  0.23383695  0.43118774  1
  Te  Te137  1  0.59008414  0.24617955  0.74664312  1
  Te  Te138  1  0.57522396  0.58715012  0.08627095  1
  Te  Te139  1  0.57353293  0.56004764  0.39876358  1
  Te  Te140  1  0.58093788  0.55171559  0.76816940  1
  Te  Te141  1  0.55087442  0.94782376  0.11254650  1
  Te  Te142  1  0.59120475  0.95636322  0.39480250  1
  Te  Te143  1  0.60144587  0.91089542  0.73776477  1
  Te  Te144  1  0.93210867  0.25650273  0.10027786  1
  Te  Te145  1  0.89846299  0.23000182  0.41280788  1
  Te  Te146  1  0.91216011  0.24969614  0.74029348  1
  Te  Te147  1  0.91681217  0.59104900  0.08794497  1
  Te  Te148  1  0.91632072  0.56767068  0.40504680  1
  Te  Te149  1  0.92395465  0.57050394  0.74398202  1
  Te  Te150  1  0.90746914  0.92157381  0.08724756  1
  Te  Te151  1  0.91770538  0.96896585  0.41635050  1
  Te  Te152  1  0.93176569  0.91391503  0.75646376  1
  Te  Te153  1  0.21054241  0.08230520  0.24725805  1
  Te  Te154  1  0.22700035  0.07539881  0.56046036  1
  Te  Te155  1  0.26732925  0.09033987  0.91784644  1
  Te  Te156  1  0.24514566  0.42238641  0.25313068  1
  Te  Te157  1  0.25110844  0.42020395  0.60142117  1
  Te  Te158  1  0.26051993  0.42181663  0.91571135  1
  Te  Te159  1  0.25503192  0.75210666  0.27236801  1
  Te  Te160  1  0.23573578  0.73208983  0.57463726  1
  Te  Te161  1  0.21279527  0.72427986  0.89633857  1
  Te  Te162  1  0.59872598  0.07699821  0.27302883  1
  Te  Te163  1  0.58423690  0.09978862  0.54586459  1
  Te  Te164  1  0.58004654  0.08732029  0.92119025  1
  Te  Te165  1  0.56933022  0.39598656  0.25195532  1
  Te  Te166  1  0.60480172  0.38912112  0.58606300  1
  Te  Te167  1  0.59882968  0.40498589  0.92372260  1
  Te  Te168  1  0.57690170  0.75405891  0.24366034  1
  Te  Te169  1  0.57238809  0.76037313  0.58944906  1
  Te  Te170  1  0.57767643  0.74226506  0.92756218  1
  Te  Te171  1  0.91494133  0.09662928  0.28588129  1
  Te  Te172  1  0.90830578  0.09535895  0.57517296  1
  Te  Te173  1  0.91638790  0.08260866  0.90813408  1
  Te  Te174  1  0.89697126  0.42126470  0.25106099  1
  Te  Te175  1  0.89813017  0.39326201  0.56012932  1
  Te  Te176  1  0.93680314  0.42124676  0.91072868  1
  Te  Te177  1  0.91523542  0.74597740  0.26448768  1
  Te  Te178  1  0.95414735  0.77386079  0.54248688  1
  Te  Te179  1  0.92764446  0.76131943  0.92276729  1
