# generated using pymatgen
data_In2Te3
_symmetry_space_group_name_H-M   'P 1'
_cell_length_a   18.78628588
_cell_length_b   18.79307432
_cell_length_c   18.78526829
_cell_angle_alpha   90.05818465
_cell_angle_beta   89.96079336
_cell_angle_gamma   90.00352856
_symmetry_Int_Tables_number   1
_chemical_formula_structural   In2Te3
_chemical_formula_sum   'In72 Te108'
_cell_volume   6632.17280595
_cell_formula_units_Z   36
loop_
 _symmetry_equiv_pos_site_id
 _symmetry_equiv_pos_as_xyz
  1  'x, y, z'
loop_
 _atom_site_type_symbol
 _atom_site_label
 _atom_site_symmetry_multiplicity
 _atom_site_fract_x
 _atom_site_fract_y
 _atom_site_fract_z
 _atom_site_occupancy
  In  In0  1  0.67574770  0.85274756  0.49972762  1
  In  In1  1  0.84277339  0.30234791  0.51262376  1
  In  In2  1  0.85059810  0.86605985  -0.00505116  1
  In  In3  1  0.32101557  0.83498023  0.82536242  1
  In  In4  1  0.50752341  0.31752369  0.18265121  1
  In  In5  1  0.49742056  0.16647750  0.01011231  1
  In  In6  1  0.83312965  0.16188371  0.35398660  1
  In  In7  1  0.00559598  0.49568945  0.85527694  1
  In  In8  1  0.13823586  0.00459511  0.52102861  1
  In  In9  1  0.31571063  0.50592056  0.15740143  1
  In  In10  1  0.49664776  -0.02192803  0.50368276  1
  In  In11  1  0.32827643  0.68127931  0.35776608  1
  In  In12  1  0.16446580  0.31423622  0.82655755  1
  In  In13  1  0.84295248  0.67555935  0.16462512  1
  In  In14  1  0.15394895  0.16859164  0.66724705  1
  In  In15  1  0.49862781  0.48922139  -0.03759789  1
  In  In16  1  0.82093376  0.49063768  0.66780645  1
  In  In17  1  0.33938387  0.32040427  -0.00516820  1
  In  In18  1  0.33616848  -0.00875523  0.33062195  1
  In  In19  1  0.33352919  0.84116775  0.51888816  1
  In  In20  1  0.01059726  0.84748778  0.83236444  1
  In  In21  1  0.83449485  0.49822293  -0.00963902  1
  In  In22  1  0.48968093  0.66179372  0.50550241  1
  In  In23  1  0.31779425  0.83346994  0.18435554  1
  In  In24  1  0.67995434  0.84670700  0.18438103  1
  In  In25  1  0.66483562  0.65308735  -0.00597783  1
  In  In26  1  0.10175565  0.53299588  0.31442447  1
  In  In27  1  0.33640707  0.50719935  0.82199135  1
  In  In28  1  0.67337700  0.16713918  0.17434600  1
  In  In29  1  0.01378951  0.66962227  0.00546588  1
  In  In30  1  0.50389539  0.36342498  0.82862599  1
  In  In31  1  0.00066392  0.34328782  0.00524686  1
  In  In32  1  0.15898997  -0.01199667  0.16945352  1
  In  In33  1  0.67734046  0.32895064  0.64644106  1
  In  In34  1  -0.00130248  0.17065106  0.81786505  1
  In  In35  1  -0.01878865  0.35390657  0.32815451  1
  In  In36  1  0.48488566  0.84734212  0.01131417  1
  In  In37  1  0.48313521  0.66393149  0.81343935  1
  In  In38  1  0.50577351  0.50658018  0.33859641  1
  In  In39  1  0.68485758  0.01294947  0.67746521  1
  In  In40  1  0.70432043  0.67555616  0.29893123  1
  In  In41  1  0.16181639  0.67662794  0.49592706  1
  In  In42  1  0.50460947  0.00113713  0.83189618  1
  In  In43  1  0.84112181  0.16590009  -0.00454046  1
  In  In44  1  0.29367756  0.14487101  0.84934693  1
  In  In45  1  -0.01320672  0.69316380  0.64875699  1
  In  In46  1  0.85090255  0.84720441  0.34287982  1
  In  In47  1  0.32799732  0.30709494  0.33710199  1
  In  In48  1  0.68022636  0.50173183  0.50862049  1
  In  In49  1  0.52769957  0.32270753  0.49687570  1
  In  In50  1  0.50497184  0.69055172  0.15964231  1
  In  In51  1  0.70201755  0.51817521  0.16275601  1
  In  In52  1  0.15391979  0.50479307  0.01173441  1
  In  In53  1  0.50663666  0.02144525  0.16879216  1
  In  In54  1  0.18341326  0.32253210  0.15326046  1
  In  In55  1  0.67731579  0.82088337  0.81976609  1
  In  In56  1  0.16666905  0.14801343  0.34611632  1
  In  In57  1  0.32217319  0.16256479  0.50317276  1
  In  In58  1  0.66227765  0.66214308  0.66848752  1
  In  In59  1  0.67741232  0.15747575  0.82879095  1
  In  In60  1  0.81986858  0.66792998  0.81628951  1
  In  In61  1  -0.02150215  0.50461665  0.48270136  1
  In  In62  1  0.17547323  0.83495624  0.66308700  1
  In  In63  1  0.84451662  -0.00146536  0.82221975  1
  In  In64  1  0.00583081  0.15491867  0.16462197  1
  In  In65  1  0.15667980  0.83167415  -0.00682776  1
  In  In66  1  0.67740778  0.31492165  0.34903774  1
  In  In67  1  0.13218475  0.83083614  0.34280555  1
  In  In68  1  0.84157775  -0.01061142  0.16419389  1
  In  In69  1  0.48663326  0.15500339  0.66084815  1
  In  In70  1  0.32436259  0.49636435  0.52449074  1
  In  In71  1  0.17705167  0.49766557  0.68016466  1
  Te  Te72  1  0.09855124  0.08540086  0.07071699  1
  Te  Te73  1  0.05970014  0.07659733  0.41902446  1
  Te  Te74  1  0.07103136  0.06821898  0.73845970  1
  Te  Te75  1  0.07480177  0.42300233  0.11234019  1
  Te  Te76  1  0.08753950  0.41924011  0.41722083  1
  Te  Te77  1  0.07276849  0.40706959  0.74977694  1
  Te  Te78  1  0.08142789  0.75933468  0.10295137  1
  Te  Te79  1  0.04371240  0.73332898  0.42084119  1
  Te  Te80  1  0.08710129  0.74307071  0.75228620  1
  Te  Te81  1  0.40229127  0.07815678  0.07956075  1
  Te  Te82  1  0.41930057  0.08294504  0.41836326  1
  Te  Te83  1  0.39707243  0.07572168  0.75412843  1
  Te  Te84  1  0.41954963  0.41445648  0.08855278  1
  Te  Te85  1  0.41726271  0.41160312  0.41696786  1
  Te  Te86  1  0.40462711  0.41202579  0.73235062  1
  Te  Te87  1  0.39101011  0.74685589  0.07812717  1
  Te  Te88  1  0.42975735  0.77413954  0.41904363  1
  Te  Te89  1  0.42458607  0.77364068  0.73591765  1
  Te  Te90  1  0.74977084  0.07510857  0.07852619  1
  Te  Te91  1  0.75079980  0.08861008  0.45395409  1
  Te  Te92  1  0.78992566  0.11101845  0.73385297  1
  Te  Te93  1  0.75901710  0.40977169  0.08224830  1
  Te  Te94  1  0.76827843  0.40788596  0.42781430  1
  Te  Te95  1  0.74989263  0.39668764  0.75514462  1
  Te  Te96  1  0.74730310  0.75519776  0.07444012  1
  Te  Te97  1  0.76039334  0.74906588  0.41951904  1
  Te  Te98  1  0.77311885  0.76813486  0.71409311  1
  Te  Te99  1  0.08788700  0.25176640  0.25347853  1
  Te  Te100  1  0.03780216  0.23079890  0.59883022  1
  Te  Te101  1  0.08494300  0.24094035  0.93154119  1
  Te  Te102  1  0.05269782  0.63776545  0.22455626  1
  Te  Te103  1  0.07691866  0.58222612  0.58580875  1
  Te  Te104  1  0.10351955  0.60079664  0.90204481  1
  Te  Te105  1  0.05923833  0.93103664  0.26297408  1
  Te  Te106  1  0.06057811  0.89317708  0.58392308  1
  Te  Te107  1  0.10368730  0.94386696  0.90344931  1
  Te  Te108  1  0.41280339  0.22617110  0.24765032  1
  Te  Te109  1  0.41352032  0.26014747  0.57853218  1
  Te  Te110  1  0.42226850  0.23925544  0.89554249  1
  Te  Te111  1  0.41400391  0.59624585  0.25460965  1
  Te  Te112  1  0.41793428  0.57852794  0.60316613  1
  Te  Te113  1  0.40232443  0.59912203  0.92750187  1
  Te  Te114  1  0.43306600  0.90848743  0.24811707  1
  Te  Te115  1  0.41267510  0.92220095  0.61291635  1
  Te  Te116  1  0.40099658  0.93453869  0.92165702  1
  Te  Te117  1  0.77435286  0.25609497  0.24742672  1
  Te  Te118  1  0.73187136  0.21649418  0.56367630  1
  Te  Te119  1  0.76642360  0.25133839  0.90027874  1
  Te  Te120  1  0.80115713  0.55119539  0.28578176  1
  Te  Te121  1  0.77219556  0.60250233  0.57745114  1
  Te  Te122  1  0.73642861  0.56572786  0.89222457  1
  Te  Te123  1  0.74922709  0.94311652  0.27849838  1
  Te  Te124  1  0.77238879  0.93057815  0.58619127  1
  Te  Te125  1  0.74031475  0.92693714  0.91096225  1
  Te  Te126  1  0.26704019  0.22484698  0.08071855  1
  Te  Te127  1  0.22222163  0.25713141  0.43795841  1
  Te  Te128  1  0.26698976  0.24769759  0.73854789  1
  Te  Te129  1  0.23526622  0.60386420  0.08494031  1
  Te  Te130  1  0.23758244  0.57077529  0.41120929  1
  Te  Te131  1  0.25038631  0.60375587  0.75113880  1
  Te  Te132  1  0.25685915  0.91777459  0.07517858  1
  Te  Te133  1  0.23908125  0.91556701  0.42210206  1
  Te  Te134  1  0.23050768  0.93309840  0.75890539  1
  Te  Te135  1  0.59991975  0.25929686  0.07552895  1
  Te  Te136  1  0.57345491  0.22196143  0.39820409  1
  Te  Te137  1  0.57998824  0.24329093  0.74438625  1
  Te  Te138  1  0.57223356  0.57284537  0.08860751  1
  Te  Te139  1  0.60430650  0.59612945  0.41269225  1
  Te  Te140  1  0.58716478  0.57384782  0.76008815  1
  Te  Te141  1  0.59426544  0.92433137  0.08492586  1
  Te  Te142  1  0.59001726  0.92326005  0.40212837  1
  Te  Te143  1  0.58551331  0.91196036  0.73815202  1
  Te  Te144  1  0.91406615  0.25602952  0.09614277  1
  Te  Te145  1  0.94926856  0.23942140  0.42337517  1
  Te  Te146  1  0.93434002  0.24345401  0.70397540  1
  Te  Te147  1  0.92641811  0.57276430  0.08600766  1
  Te  Te148  1  0.91064200  0.59488186  0.39060449  1
  Te  Te149  1  0.92895445  0.58218458  0.74973804  1
  Te  Te150  1  0.94809195  0.91471239  0.09216641  1
  Te  Te151  1  0.92592190  0.92943565  0.44509554  1
  Te  Te152  1  0.92540529  0.91330260  0.73176397  1
  Te  Te153  1  0.25655715  0.08486071  0.24172499  1
  Te  Te154  1  0.25396647  0.06563866  0.59635324  1
  Te  Te155  1  0.19760550  0.06823127  0.93076989  1
  Te  Te156  1  0.24892424  0.41505281  0.25952785  1
  Te  Te157  1  0.23232817  0.39862918  0.58482805  1
  Te  Te158  1  0.24415139  0.41605516  0.92105606  1
  Te  Te159  1  0.22627109  0.73917134  0.26082593  1
  Te  Te160  1  0.26520495  0.72801175  0.59426814  1
  Te  Te161  1  0.24472209  0.74328302  0.91339211  1
  Te  Te162  1  0.59164273  0.09018959  0.27058912  1
  Te  Te163  1  0.58760171  0.07896809  0.57803187  1
  Te  Te164  1  0.59357109  0.07764889  0.92864231  1
  Te  Te165  1  0.60213039  0.42202349  0.25539877  1
  Te  Te166  1  0.57541309  0.43197148  0.59353139  1
  Te  Te167  1  0.60774752  0.39686052  0.92834368  1
  Te  Te168  1  0.58220446  0.76286043  0.26785369  1
  Te  Te169  1  0.58173520  0.75735542  0.58210115  1
  Te  Te170  1  0.57672567  0.75537399  0.92100242  1
  Te  Te171  1  0.92174750  0.07469705  0.26305191  1
  Te  Te172  1  0.87663630  0.05018891  0.52885104  1
  Te  Te173  1  0.93319330  0.07044596  0.92269335  1
  Te  Te174  1  0.90451093  0.44153209  0.24089018  1
  Te  Te175  1  0.92257431  0.40874363  0.58962032  1
  Te  Te176  1  0.90266273  0.39311126  0.89873682  1
  Te  Te177  1  0.93358518  0.74925401  0.25785874  1
  Te  Te178  1  0.94159338  0.77686348  0.53418870  1
  Te  Te179  1  0.90639249  0.74456835  0.91659359  1
