# generated using pymatgen
data_In2Te3
_symmetry_space_group_name_H-M   'P 1'
_cell_length_a   18.97746521
_cell_length_b   18.97917178
_cell_length_c   19.00481186
_cell_angle_alpha   89.88267097
_cell_angle_beta   89.97540734
_cell_angle_gamma   89.91061392
_symmetry_Int_Tables_number   1
_chemical_formula_structural   In2Te3
_chemical_formula_sum   'In72 Te108'
_cell_volume   6845.06468776
_cell_formula_units_Z   36
loop_
 _symmetry_equiv_pos_site_id
 _symmetry_equiv_pos_as_xyz
  1  'x, y, z'
loop_
 _atom_site_type_symbol
 _atom_site_label
 _atom_site_symmetry_multiplicity
 _atom_site_fract_x
 _atom_site_fract_y
 _atom_site_fract_z
 _atom_site_occupancy
  In  In0  1  -0.00433303  0.14814535  0.85654583  1
  In  In1  1  0.49747369  0.35652026  0.83993028  1
  In  In2  1  0.16708572  0.31497406  0.83358221  1
  In  In3  1  0.71041308  0.31464862  0.29505960  1
  In  In4  1  0.02790221  0.49323467  0.51698666  1
  In  In5  1  0.80491146  0.68543610  0.14059501  1
  In  In6  1  0.81984608  0.51940502  0.32640588  1
  In  In7  1  0.32106533  0.00749819  0.01886243  1
  In  In8  1  0.50344612  0.49951774  0.32634486  1
  In  In9  1  0.00364976  0.48680363  0.17474616  1
  In  In10  1  0.31085680  0.67060555  0.02273229  1
  In  In11  1  0.64390513  0.17169997  0.81631730  1
  In  In12  1  0.66835172  0.01750608  0.32091240  1
  In  In13  1  0.17542191  0.30831883  0.47057378  1
  In  In14  1  0.64588700  0.68691417  -0.01038332  1
  In  In15  1  0.51016514  0.83701617  0.67674498  1
  In  In16  1  0.00958449  -0.00635884  0.66895792  1
  In  In17  1  0.18428312  0.82223748  0.66645764  1
  In  In18  1  0.34405570  0.34877197  0.65788659  1
  In  In19  1  0.31591495  0.02958673  0.64586185  1
  In  In20  1  0.02319940  0.64416210  0.01419132  1
  In  In21  1  -0.00601900  0.84842708  0.85348391  1
  In  In22  1  0.66532786  -0.00075673  0.65570168  1
  In  In23  1  0.53000157  0.17600212  -0.00167581  1
  In  In24  1  -0.00061361  0.67554518  0.66544811  1
  In  In25  1  0.31740158  0.48784471  0.19065035  1
  In  In26  1  0.33681868  0.32333751  -0.02146965  1
  In  In27  1  0.50243758  0.15513278  0.33307771  1
  In  In28  1  0.31933048  0.50096550  0.49931476  1
  In  In29  1  0.02658972  0.32099018  0.65389806  1
  In  In30  1  0.34181207  -0.03357590  0.31954222  1
  In  In31  1  -0.00093427  0.29586499  0.31367494  1
  In  In32  1  0.66817322  0.50221655  0.85185046  1
  In  In33  1  0.15953620  0.32817688  0.18153461  1
  In  In34  1  0.33784749  0.82027245  0.85378905  1
  In  In35  1  0.16419565  0.65763117  0.17655462  1
  In  In36  1  0.82159029  -0.00744706  0.17238048  1
  In  In37  1  0.31918743  0.81415195  0.50097805  1
  In  In38  1  -0.02197921  0.01738273  0.02700391  1
  In  In39  1  0.19699131  0.64470221  0.80957015  1
  In  In40  1  0.84112472  0.85475346  0.34683340  1
  In  In41  1  0.83962257  0.33309135  0.86162279  1
  In  In42  1  0.17301991  0.18530965  0.63119719  1
  In  In43  1  0.70415790  0.48594106  0.13994862  1
  In  In44  1  0.49553814  0.33124364  0.50645028  1
  In  In45  1  0.15018585  -0.00677779  0.83229695  1
  In  In46  1  0.14727262  0.81554498  0.32991246  1
  In  In47  1  0.38066105  0.84794201  0.15490849  1
  In  In48  1  0.67269157  0.84851348  0.50510988  1
  In  In49  1  0.80514972  0.73085526  0.85127572  1
  In  In50  1  0.84853370  0.34339514  0.47750940  1
  In  In51  1  0.34550622  0.15311697  0.18238906  1
  In  In52  1  0.66494059  0.66307691  0.67639671  1
  In  In53  1  0.67621194  0.37121501  0.62917315  1
  In  In54  1  0.50421039  0.31444172  0.16064026  1
  In  In55  1  0.00996082  0.01745152  0.35578230  1
  In  In56  1  0.85789011  0.15732452  0.66287018  1
  In  In57  1  0.47180998  0.64628404  0.49406013  1
  In  In58  1  -0.01823627  0.84710079  0.18480746  1
  In  In59  1  0.00450809  0.65842967  0.33893618  1
  In  In60  1  0.51861886  0.85749721  0.00450904  1
  In  In61  1  0.50498250  0.01122820  0.51250993  1
  In  In62  1  0.15296632  0.16039535  0.00571507  1
  In  In63  1  0.49953203  0.50242108  -0.01056885  1
  In  In64  1  0.48424516  0.18456436  0.67016803  1
  In  In65  1  0.48867621  0.66830200  0.84056691  1
  In  In66  1  0.83223298  0.53373059  0.66829031  1
  In  In67  1  0.69347855  0.16967247  0.46405829  1
  In  In68  1  -0.00757764  0.48121820  0.84571723  1
  In  In69  1  0.82063775  0.16542090  0.02689458  1
  In  In70  1  0.34301726  0.65874033  0.34319457  1
  In  In71  1  0.84184671  0.68534448  0.51833733  1
  Te  Te72  1  0.05917217  0.10958918  0.10706859  1
  Te  Te73  1  0.10588902  0.09614618  0.43535289  1
  Te  Te74  1  0.09218838  0.11014713  0.74588340  1
  Te  Te75  1  0.07725004  0.39985597  0.08436914  1
  Te  Te76  1  0.06878536  0.39811441  0.40948520  1
  Te  Te77  1  0.09180958  0.41816813  0.74718259  1
  Te  Te78  1  0.07621904  0.75466721  0.10281773  1
  Te  Te79  1  0.05807868  0.75670547  0.43378269  1
  Te  Te80  1  0.08864950  0.75704783  0.76956937  1
  Te  Te81  1  0.43441172  0.08662157  0.08050219  1
  Te  Te82  1  0.40514223  0.07089619  0.41454822  1
  Te  Te83  1  0.41420210  0.07903737  0.74213995  1
  Te  Te84  1  0.41543106  0.41321894  0.08298003  1
  Te  Te85  1  0.41112141  0.41636502  0.41229787  1
  Te  Te86  1  0.39430328  0.43688190  0.76758385  1
  Te  Te87  1  0.44032943  0.73655929  0.06206196  1
  Te  Te88  1  0.42748694  0.76653163  0.40763431  1
  Te  Te89  1  0.40550698  0.74744198  0.74002141  1
  Te  Te90  1  0.72755080  0.05540286  0.07298606  1
  Te  Te91  1  0.76896307  0.04997532  0.42538097  1
  Te  Te92  1  0.75071227  0.08948508  0.74443731  1
  Te  Te93  1  0.79457174  0.38552229  0.08518550  1
  Te  Te94  1  0.73849311  0.41817370  0.40708349  1
  Te  Te95  1  0.75846819  0.42391797  0.75547552  1
  Te  Te96  1  0.71874218  0.78634981  0.07308040  1
  Te  Te97  1  0.75166439  0.75276082  0.41712670  1
  Te  Te98  1  0.74410692  0.78298335  0.71923470  1
  Te  Te99  1  0.10230657  0.21118528  0.25149803  1
  Te  Te100  1  0.05592739  0.22734137  0.53984792  1
  Te  Te101  1  0.06256680  0.25914294  0.93205266  1
  Te  Te102  1  0.09674477  0.56092192  0.27064662  1
  Te  Te103  1  0.09793464  0.58497764  0.60548292  1
  Te  Te104  1  0.09934794  0.57175472  0.90613196  1
  Te  Te105  1  0.08615408  0.93055437  0.25009028  1
  Te  Te106  1  0.08967870  0.90160235  0.58818659  1
  Te  Te107  1  0.07983784  0.93045628  0.94855946  1
  Te  Te108  1  0.41225654  0.25957582  0.26677212  1
  Te  Te109  1  0.38657975  0.23069608  0.55525303  1
  Te  Te110  1  0.42783516  0.23560695  0.89737577  1
  Te  Te111  1  0.42187667  0.58767988  0.23283408  1
  Te  Te112  1  0.39248776  0.58156698  0.60198712  1
  Te  Te113  1  0.39286278  0.58549659  0.92314695  1
  Te  Te114  1  0.46624043  0.95148177  0.23170610  1
  Te  Te115  1  0.40743679  0.91660201  0.58326806  1
  Te  Te116  1  0.41327810  0.92946735  0.92235176  1
  Te  Te117  1  0.80316997  0.20311871  0.25573577  1
  Te  Te118  1  0.76209391  0.25496533  0.58072165  1
  Te  Te119  1  0.74011264  0.23771383  0.91840722  1
  Te  Te120  1  0.72619008  0.60135495  0.24083329  1
  Te  Te121  1  0.73382780  0.58357715  0.56709035  1
  Te  Te122  1  0.75262651  0.60231597  0.92261158  1
  Te  Te123  1  0.73214077  0.89714939  0.25199382  1
  Te  Te124  1  0.76707247  0.94559371  0.56354121  1
  Te  Te125  1  0.77309306  0.87468092  0.84301473  1
  Te  Te126  1  0.26232583  0.24073426  0.08066959  1
  Te  Te127  1  0.28438545  0.21588108  0.44336155  1
  Te  Te128  1  0.26284467  0.24663753  0.73691286  1
  Te  Te129  1  0.23196846  0.55698370  0.08592148  1
  Te  Te130  1  0.23720361  0.58934365  0.41541287  1
  Te  Te131  1  0.29158511  0.56345385  0.73373198  1
  Te  Te132  1  0.25852182  0.90185432  0.09568805  1
  Te  Te133  1  0.23549058  0.90495162  0.41475648  1
  Te  Te134  1  0.26190911  0.92359812  0.75692457  1
  Te  Te135  1  0.61513924  0.23246993  0.10680698  1
  Te  Te136  1  0.59055657  0.26455087  0.40441731  1
  Te  Te137  1  0.58350398  0.29017893  0.72969948  1
  Te  Te138  1  0.59305519  0.57683000  0.08018028  1
  Te  Te139  1  0.57679317  0.59761135  0.40500145  1
  Te  Te140  1  0.57342067  0.57238581  0.75688235  1
  Te  Te141  1  0.63153360  0.93202840  0.06130933  1
  Te  Te142  1  0.58116037  0.92754425  0.41374634  1
  Te  Te143  1  0.56451013  0.95043427  0.75019562  1
  Te  Te144  1  0.87652874  0.25926615  0.12811350  1
  Te  Te145  1  0.89693595  0.22853962  0.39935210  1
  Te  Te146  1  0.92697114  0.25955331  0.75940760  1
  Te  Te147  1  0.91265758  0.58541915  0.09992811  1
  Te  Te148  1  0.91634120  0.57315465  0.43781725  1
  Te  Te149  1  0.92129458  0.59517066  0.77137539  1
  Te  Te150  1  0.89387911  0.90020942  0.07418246  1
  Te  Te151  1  0.95582885  0.89662061  0.42688061  1
  Te  Te152  1  0.91163389  0.93506045  0.76561987  1
  Te  Te153  1  0.25476811  0.05664728  0.24299072  1
  Te  Te154  1  0.20271853  0.05928366  0.55192119  1
  Te  Te155  1  0.24251184  0.08554873  0.91033973  1
  Te  Te156  1  0.24911112  0.39385509  0.27709180  1
  Te  Te157  1  0.22987857  0.40431298  0.57559467  1
  Te  Te158  1  0.24444210  0.41224204  0.91008159  1
  Te  Te159  1  0.25925304  0.74824753  0.24963476  1
  Te  Te160  1  0.23818376  0.71891826  0.57672650  1
  Te  Te161  1  0.22694235  0.74894602  0.92439346  1
  Te  Te162  1  0.60545107  0.11923481  0.23215925  1
  Te  Te163  1  0.58967385  0.12126941  0.57367787  1
  Te  Te164  1  0.58685173  0.07417449  0.90835816  1
  Te  Te165  1  0.59906787  0.41152099  0.23362362  1
  Te  Te166  1  0.55860125  0.44097202  0.58010462  1
  Te  Te167  1  0.60191293  0.39968429  0.94143086  1
  Te  Te168  1  0.51425482  0.81094136  0.20879726  1
  Te  Te169  1  0.57585124  0.74437116  0.57671514  1
  Te  Te170  1  0.58198867  0.77630232  0.88615717  1
  Te  Te171  1  0.90744848  0.07692686  0.25881216  1
  Te  Te172  1  0.93638074  0.07734647  0.57144650  1
  Te  Te173  1  0.88490899  0.07207337  0.92044960  1
  Te  Te174  1  0.90838224  0.41444260  0.26599300  1
  Te  Te175  1  0.91462546  0.41852711  0.60011791  1
  Te  Te176  1  0.89999747  0.43163739  0.95202573  1
  Te  Te177  1  0.90402219  0.73446883  0.25420025  1
  Te  Te178  1  0.89584304  0.77173452  0.62281769  1
  Te  Te179  1  0.92982322  0.74046091  0.93749780  1
