# generated using pymatgen
data_In2Te3
_symmetry_space_group_name_H-M   'P 1'
_cell_length_a   18.95508360
_cell_length_b   18.94312895
_cell_length_c   18.94655323
_cell_angle_alpha   90.01775004
_cell_angle_beta   89.74170723
_cell_angle_gamma   89.88819698
_symmetry_Int_Tables_number   1
_chemical_formula_structural   In2Te3
_chemical_formula_sum   'In72 Te108'
_cell_volume   6803.02978209
_cell_formula_units_Z   36
loop_
 _symmetry_equiv_pos_site_id
 _symmetry_equiv_pos_as_xyz
  1  'x, y, z'
loop_
 _atom_site_type_symbol
 _atom_site_label
 _atom_site_symmetry_multiplicity
 _atom_site_fract_x
 _atom_site_fract_y
 _atom_site_fract_z
 _atom_site_occupancy
  In  In0  1  0.32097531  0.48226291  0.50516461  1
  In  In1  1  -0.01623286  0.48960396  0.51400061  1
  In  In2  1  0.48964418  0.66544668  0.49085288  1
  In  In3  1  0.02136844  0.83913620  0.51082690  1
  In  In4  1  0.51137010  0.18040953  0.64103182  1
  In  In5  1  0.27820576  0.35508480  -0.04634083  1
  In  In6  1  0.82220695  0.00238383  0.50284494  1
  In  In7  1  0.16158516  0.50540847  0.33661301  1
  In  In8  1  0.50780736  -0.00226559  0.83771808  1
  In  In9  1  0.83911604  0.66389846  0.85521543  1
  In  In10  1  0.66083309  0.35267257  0.67153498  1
  In  In11  1  -0.01961053  0.33789951  0.67620699  1
  In  In12  1  -0.00414783  0.50713304  0.84211457  1
  In  In13  1  0.28704967  0.13824094  0.18618098  1
  In  In14  1  0.67282089  -0.00792026  0.30355289  1
  In  In15  1  0.01718482  0.65867644  0.69692562  1
  In  In16  1  0.34559942  0.83242966  0.83174404  1
  In  In17  1  0.50423830  0.34715198  0.18937435  1
  In  In18  1  0.33594510  0.32580038  0.34345364  1
  In  In19  1  0.18841630  0.32459218  0.52867711  1
  In  In20  1  -0.00058158  0.65014356  0.35939876  1
  In  In21  1  0.14945103  0.81397681  0.69062112  1
  In  In22  1  0.83309509  0.84551233  0.30526077  1
  In  In23  1  0.50870883  0.83456739  0.00119573  1
  In  In24  1  0.22083916  0.89068949  0.30075065  1
  In  In25  1  0.65870393  0.33538648  -0.02246809  1
  In  In26  1  0.33499471  -0.00095797  0.65429530  1
  In  In27  1  0.15873239  0.67301594  0.53189418  1
  In  In28  1  0.34323243  0.52456455  0.17769149  1
  In  In29  1  0.53015491  0.85802612  0.67784496  1
  In  In30  1  0.84474956  0.30903765  0.18300740  1
  In  In31  1  0.32201721  0.66589079  -0.00566482  1
  In  In32  1  -0.00832330  0.33527664  0.32501148  1
  In  In33  1  0.47972280  0.85726019  0.29946250  1
  In  In34  1  0.66632785  0.65459662  0.32067347  1
  In  In35  1  0.66144252  0.15851810  0.82372413  1
  In  In36  1  0.69347061  0.46427167  0.48504299  1
  In  In37  1  0.45383276  0.17094372  0.02187659  1
  In  In38  1  0.81297072  0.51281404  -0.00000595  1
  In  In39  1  0.80768634  0.68872989  0.10634620  1
  In  In40  1  0.50176737  0.02041001  0.50381984  1
  In  In41  1  0.14755804  0.14329342  0.70601001  1
  In  In42  1  0.03344225  0.33465601  -0.01837700  1
  In  In43  1  0.83546183  0.64448343  0.49243758  1
  In  In44  1  0.65968552  0.49197246  0.16965924  1
  In  In45  1  0.16573160  0.86324578  0.01913005  1
  In  In46  1  0.53169642  0.18303257  0.32292517  1
  In  In47  1  0.14733356  0.32000958  0.15982701  1
  In  In48  1  -0.00410251  0.17769013  0.47714612  1
  In  In49  1  0.34565977  0.15859124  0.49483851  1
  In  In50  1  0.35517941  0.35611214  0.70566100  1
  In  In51  1  0.00517584  0.00299618  0.32149730  1
  In  In52  1  0.51806975  0.67960567  0.16191720  1
  In  In53  1  -0.01513986  0.81939036  0.14755489  1
  In  In54  1  0.85867070  -0.00574294  0.85758888  1
  In  In55  1  0.88847718  0.83138849  0.68815023  1
  In  In56  1  0.15800145  0.14734459  -0.00124440  1
  In  In57  1  -0.00415376  0.15959603  0.17722315  1
  In  In58  1  0.84077309  0.14942595  0.67045170  1
  In  In59  1  0.82251180  0.32687829  0.81854226  1
  In  In60  1  0.67870953  0.84472566  0.50458416  1
  In  In61  1  0.67090705  0.65758379  0.69006086  1
  In  In62  1  0.50488516  0.65582134  0.83981225  1
  In  In63  1  0.68025017  -0.00735719  -0.01197026  1
  In  In64  1  -0.00138662  -0.00532187  0.01148047  1
  In  In65  1  0.30654963  0.65976764  0.68640067  1
  In  In66  1  0.68011055  0.16482544  0.15779104  1
  In  In67  1  0.15163107  0.68060150  0.14955701  1
  In  In68  1  0.34504610  0.66498730  0.31726256  1
  In  In69  1  0.49275532  0.50572618  -0.00384727  1
  In  In70  1  0.33146734  0.16385526  0.84477828  1
  In  In71  1  0.66939596  0.17181033  0.50188452  1
  Te  Te72  1  0.09366383  0.06593479  0.10961493  1
  Te  Te73  1  0.08002971  0.06672807  0.42941380  1
  Te  Te74  1  0.07206665  0.04873296  0.79082680  1
  Te  Te75  1  0.09125060  0.42775405  0.07891309  1
  Te  Te76  1  0.09621951  0.40984586  0.43471671  1
  Te  Te77  1  0.07573865  0.40452359  0.76680798  1
  Te  Te78  1  0.06734663  0.74665257  0.04318847  1
  Te  Te79  1  0.09969489  0.74947702  0.41467671  1
  Te  Te80  1  0.05602261  0.76050797  0.80115355  1
  Te  Te81  1  0.37644537  0.06375354  0.09207737  1
  Te  Te82  1  0.42974566  0.08656895  0.39033002  1
  Te  Te83  1  0.42787671  0.08857189  0.73998209  1
  Te  Te84  1  0.41186654  0.41853714  0.09168920  1
  Te  Te85  1  0.41312682  0.43390969  0.40258819  1
  Te  Te86  1  0.43586760  0.46453516  0.76005318  1
  Te  Te87  1  0.40944323  0.74984477  0.08489793  1
  Te  Te88  1  0.41504054  0.76685848  0.40516248  1
  Te  Te89  1  0.42996043  0.75045172  0.73564442  1
  Te  Te90  1  0.76135431  0.09433968  0.05785808  1
  Te  Te91  1  0.74508238  0.08410523  0.40165338  1
  Te  Te92  1  0.75658818  0.06074916  0.75990528  1
  Te  Te93  1  0.74696823  0.39560395  0.08811023  1
  Te  Te94  1  0.73578383  0.38485334  0.36781418  1
  Te  Te95  1  0.73156120  0.43484666  0.77363280  1
  Te  Te96  1  0.72664109  0.76164971  0.00927345  1
  Te  Te97  1  0.75649005  0.74951718  0.41246500  1
  Te  Te98  1  0.77025936  0.75512046  0.74916817  1
  Te  Te99  1  0.09173903  0.23422195  0.26964099  1
  Te  Te100  1  0.08012429  0.24317280  0.59819154  1
  Te  Te101  1  0.11196375  0.24405500  0.89692720  1
  Te  Te102  1  0.07515180  0.58489928  0.24228096  1
  Te  Te103  1  0.08661287  0.56111292  0.60051245  1
  Te  Te104  1  0.11598492  0.57381478  0.90090513  1
  Te  Te105  1  0.07252333  0.88768309  0.25101851  1
  Te  Te106  1  0.11059295  0.91780584  0.59393468  1
  Te  Te107  1  0.10490618  0.95062456  0.91130616  1
  Te  Te108  1  0.40409121  0.23796693  0.23835259  1
  Te  Te109  1  0.40259620  0.26769000  0.58465773  1
  Te  Te110  1  0.40550423  0.27278841  0.91916289  1
  Te  Te111  1  0.45735538  0.58056248  0.26009419  1
  Te  Te112  1  0.39799820  0.58818022  0.58267818  1
  Te  Te113  1  0.39097068  0.57167285  0.89756366  1
  Te  Te114  1  0.38190306  0.91823807  0.20991656  1
  Te  Te115  1  0.42861398  0.90853985  0.57632548  1
  Te  Te116  1  0.41009046  0.92756152  0.92920278  1
  Te  Te117  1  0.73084426  0.25643684  0.26595091  1
  Te  Te118  1  0.75317346  0.25014469  0.59996794  1
  Te  Te119  1  0.75386470  0.23311652  0.91768004  1
  Te  Te120  1  0.76082414  0.59261676  0.22190616  1
  Te  Te121  1  0.74447121  0.57166949  0.58743733  1
  Te  Te122  1  0.73334809  0.56232612  0.88612838  1
  Te  Te123  1  0.75603403  0.91824228  0.20417741  1
  Te  Te124  1  0.77472920  0.90057233  0.60483230  1
  Te  Te125  1  0.78309970  0.88963272  0.93864425  1
  Te  Te126  1  0.25121882  0.25286972  0.07239940  1
  Te  Te127  1  0.23914800  0.23558955  0.41609977  1
  Te  Te128  1  0.25222876  0.24572368  0.74642436  1
  Te  Te129  1  0.23789376  0.57391766  0.08034311  1
  Te  Te130  1  0.24973174  0.59858657  0.41917254  1
  Te  Te131  1  0.21251777  0.59497146  0.77872265  1
  Te  Te132  1  0.26483445  0.92573862  0.10756019  1
  Te  Te133  1  0.26800691  0.96087190  0.41943341  1
  Te  Te134  1  0.25159968  0.91721914  0.74913685  1
  Te  Te135  1  0.57260935  0.25692246  0.08600921  1
  Te  Te136  1  0.56041894  0.25488475  0.44738259  1
  Te  Te137  1  0.57144333  0.25911915  0.75511061  1
  Te  Te138  1  0.59616732  0.58831523  0.06954989  1
  Te  Te139  1  0.59827026  0.57882054  0.43057265  1
  Te  Te140  1  0.55605299  0.56851264  0.72890294  1
  Te  Te141  1  0.58228583  0.93332514  0.07957107  1
  Te  Te142  1  0.58530581  0.92255792  0.41427404  1
  Te  Te143  1  0.61175689  0.90648785  0.78780312  1
  Te  Te144  1  0.93778470  0.25309466  0.07504843  1
  Te  Te145  1  0.89984191  0.27078585  0.41910030  1
  Te  Te146  1  0.92637661  0.22714433  0.76675058  1
  Te  Te147  1  0.91462650  0.60066799  0.05777001  1
  Te  Te148  1  0.89847291  0.54243106  0.39905464  1
  Te  Te149  1  0.90344205  0.57356376  0.74334356  1
  Te  Te150  1  0.89692631  0.92549707  0.09729146  1
  Te  Te151  1  0.90941518  0.90152770  0.42521015  1
  Te  Te152  1  0.95285466  0.95311517  0.74448123  1
  Te  Te153  1  0.23716594  0.04584603  0.29567726  1
  Te  Te154  1  0.24275344  0.09878699  0.59070867  1
  Te  Te155  1  0.25467668  0.06536171  0.92053798  1
  Te  Te156  1  0.24986077  0.41828984  0.24819775  1
  Te  Te157  1  0.24461372  0.42802445  0.62391533  1
  Te  Te158  1  0.21385521  0.45425170  0.86225716  1
  Te  Te159  1  0.25184671  0.75109837  0.23667203  1
  Te  Te160  1  0.26014423  0.76691206  0.58851386  1
  Te  Te161  1  0.24103995  0.76798029  0.91982680  1
  Te  Te162  1  0.57374385  0.07526532  0.22364455  1
  Te  Te163  1  0.60707320  0.06903736  0.59995060  1
  Te  Te164  1  0.56097789  0.10596735  0.93223943  1
  Te  Te165  1  0.60149938  0.41127749  0.28241532  1
  Te  Te166  1  0.58061321  0.40817910  0.56181410  1
  Te  Te167  1  0.56307029  0.41590756  0.90195336  1
  Te  Te168  1  0.59795052  0.77211511  0.25029593  1
  Te  Te169  1  0.59235530  0.74513841  0.58117698  1
  Te  Te170  1  0.59452634  0.75100533  0.90970404  1
  Te  Te171  1  0.90160668  0.08719820  0.26285108  1
  Te  Te172  1  0.93229078  0.07480403  0.57550818  1
  Te  Te173  1  0.92445550  0.09818823  0.93717876  1
  Te  Te174  1  0.93680385  0.41754094  0.21775922  1
  Te  Te175  1  0.88769261  0.40701356  0.58688226  1
  Te  Te176  1  0.90296154  0.40843442  0.92228844  1
  Te  Te177  1  0.91910898  0.73108792  0.25546023  1
  Te  Te178  1  0.93238537  0.72607223  0.57639798  1
  Te  Te179  1  0.93139298  0.77258485  0.88910221  1
