# generated using pymatgen
data_In2Te3
_symmetry_space_group_name_H-M   'P 1'
_cell_length_a   18.94922138
_cell_length_b   18.94685454
_cell_length_c   18.94499555
_cell_angle_alpha   90.10295194
_cell_angle_beta   89.88856924
_cell_angle_gamma   89.77670737
_symmetry_Int_Tables_number   1
_chemical_formula_structural   In2Te3
_chemical_formula_sum   'In72 Te108'
_cell_volume   6801.71094653
_cell_formula_units_Z   36
loop_
 _symmetry_equiv_pos_site_id
 _symmetry_equiv_pos_as_xyz
  1  'x, y, z'
loop_
 _atom_site_type_symbol
 _atom_site_label
 _atom_site_symmetry_multiplicity
 _atom_site_fract_x
 _atom_site_fract_y
 _atom_site_fract_z
 _atom_site_occupancy
  In  In0  1  -0.00914521  0.84822702  0.17312112  1
  In  In1  1  0.50074025  -0.02538121  0.81408798  1
  In  In2  1  0.66883771  0.64679388  0.00694506  1
  In  In3  1  0.17520600  0.67794798  0.79873725  1
  In  In4  1  0.83565524  0.51285973  0.32824847  1
  In  In5  1  0.15402714  0.52742312  -0.03516618  1
  In  In6  1  0.49991889  -0.03166980  0.18757977  1
  In  In7  1  0.82525388  0.49789325  -0.00451016  1
  In  In8  1  0.85081320  0.70074992  0.49446069  1
  In  In9  1  0.15689656  0.30502928  0.50811735  1
  In  In10  1  0.34466874  0.33246352  0.66568659  1
  In  In11  1  0.16294413  0.67755950  0.17966093  1
  In  In12  1  0.34191342  0.34358013  0.35374840  1
  In  In13  1  0.82527394  -0.01395746  0.50381101  1
  In  In14  1  0.66247440  0.18165629  0.47334923  1
  In  In15  1  0.82133909  0.36642795  0.82824367  1
  In  In16  1  -0.00185059  0.31883709  0.33130165  1
  In  In17  1  0.50157266  0.51983339  -0.02847768  1
  In  In18  1  0.86143777  0.34473325  0.49239722  1
  In  In19  1  -0.00393063  0.34297970  0.66490979  1
  In  In20  1  -0.00435987  0.51271435  0.14926069  1
  In  In21  1  0.13516440  0.34643286  0.18729498  1
  In  In22  1  0.67483374  0.18025296  0.81794336  1
  In  In23  1  -0.01137528  0.13745701  0.16213776  1
  In  In24  1  0.33759149  0.56087210  0.22027258  1
  In  In25  1  0.67251992  0.50710888  0.50997460  1
  In  In26  1  0.70813404  0.68250142  0.67638152  1
  In  In27  1  -0.00351209  0.83519416  0.80926657  1
  In  In28  1  0.64682077  0.50127616  0.18126044  1
  In  In29  1  0.31319926  -0.01853884  0.65859100  1
  In  In30  1  0.70679320  0.51327022  0.82565932  1
  In  In31  1  0.66517416  -0.00779142  0.35373416  1
  In  In32  1  0.33005334  0.15353115  0.48625218  1
  In  In33  1  0.49423060  0.80627897  0.02825253  1
  In  In34  1  0.49561859  0.69826846  0.81325326  1
  In  In35  1  0.67218830  0.03738214  0.01414351  1
  In  In36  1  0.85849405  -0.00565379  0.82174538  1
  In  In37  1  0.31663946  0.53004471  0.50811143  1
  In  In38  1  0.35409662  0.00381257  0.34063418  1
  In  In39  1  0.82668426  0.83756701  0.32216351  1
  In  In40  1  0.63248679  0.36490278  0.02387418  1
  In  In41  1  0.32121209  0.15976925  0.19008273  1
  In  In42  1  0.14461417  -0.03479415  0.52103725  1
  In  In43  1  0.63356878  0.79657829  0.20120954  1
  In  In44  1  0.02619113  0.14413291  0.79696189  1
  In  In45  1  0.32749253  0.82183464  0.51830462  1
  In  In46  1  -0.01864259  0.32227342  -0.01394037  1
  In  In47  1  0.81294958  0.83985450  -0.00170985  1
  In  In48  1  0.16614766  0.83282011  0.01830264  1
  In  In49  1  0.32580037  -0.01281579  0.01493450  1
  In  In50  1  0.51050189  0.49636327  0.66145877  1
  In  In51  1  0.02019719  -0.01529487  0.34076905  1
  In  In52  1  0.02744819  0.72487402  0.34316489  1
  In  In53  1  0.03538928  0.53954200  0.51429634  1
  In  In54  1  0.18862523  0.50308333  0.35077238  1
  In  In55  1  0.49535192  0.64654178  0.48661615  1
  In  In56  1  0.82356951  0.17523267  0.00937912  1
  In  In57  1  0.30355134  0.35919725  0.00560129  1
  In  In58  1  0.48291494  0.15677095  0.64499972  1
  In  In59  1  0.33607048  0.66303839  0.01706387  1
  In  In60  1  0.50758059  0.82488757  0.64456231  1
  In  In61  1  0.63649153  0.30685603  0.64598775  1
  In  In62  1  0.48557392  0.17609886  -0.00371123  1
  In  In63  1  0.15780452  0.35288095  0.81551176  1
  In  In64  1  0.30169694  0.86460715  0.81947750  1
  In  In65  1  0.85426753  0.15899839  0.66367800  1
  In  In66  1  0.67273533  0.19125428  0.23151580  1
  In  In67  1  0.69317508  0.81736215  0.80782806  1
  In  In68  1  0.31529618  0.17619459  0.84196002  1
  In  In69  1  -0.00957806  -0.01895488  -0.00598677  1
  In  In70  1  0.15022378  0.14528030  0.01107947  1
  In  In71  1  0.46890395  0.33290830  0.17260270  1
  Te  Te72  1  0.08733279  0.04034708  0.09830170  1
  Te  Te73  1  0.08765173  0.07188822  0.43759747  1
  Te  Te74  1  0.10602354  0.03767119  0.73925107  1
  Te  Te75  1  0.08544697  0.41229106  0.06114769  1
  Te  Te76  1  0.08392901  0.41703992  0.42110289  1
  Te  Te77  1  0.07571613  0.44536810  0.73602326  1
  Te  Te78  1  0.06456030  0.74534043  0.08614668  1
  Te  Te79  1  0.13156217  0.73064026  0.45311704  1
  Te  Te80  1  0.05182158  0.72490987  0.72133627  1
  Te  Te81  1  0.42213283  0.07755487  0.09340822  1
  Te  Te82  1  0.44308332  0.07736084  0.43214135  1
  Te  Te83  1  0.39977035  0.07423804  0.75570923  1
  Te  Te84  1  0.41847579  0.43214382  0.07023297  1
  Te  Te85  1  0.41123506  0.45904383  0.41395605  1
  Te  Te86  1  0.42609591  0.41858497  0.75141290  1
  Te  Te87  1  0.39426180  0.75147686  0.11986115  1
  Te  Te88  1  0.43167769  0.76736307  0.42563184  1
  Te  Te89  1  0.39128589  0.77554918  0.73399109  1
  Te  Te90  1  0.75054623  0.10577717  0.12058701  1
  Te  Te91  1  0.76703305  0.09002750  0.40794273  1
  Te  Te92  1  0.75221023  0.07663556  0.74223217  1
  Te  Te93  1  0.75154508  0.41527330  0.09762792  1
  Te  Te94  1  0.75345628  0.41490669  0.41189803  1
  Te  Te95  1  0.72855589  0.40483432  0.71365530  1
  Te  Te96  1  0.73583912  0.74895495  0.09616508  1
  Te  Te97  1  0.74003593  0.74856802  0.40594703  1
  Te  Te98  1  0.80504310  0.78578773  0.71934317  1
  Te  Te99  1  0.08616170  0.22103430  0.24943986  1
  Te  Te100  1  0.06350639  0.23328513  0.59460984  1
  Te  Te101  1  0.09117905  0.24524757  0.91137668  1
  Te  Te102  1  0.08579420  0.57222979  0.25696625  1
  Te  Te103  1  0.15518187  0.58965994  0.59604784  1
  Te  Te104  1  0.07329528  0.62586911  0.89386982  1
  Te  Te105  1  0.08907415  0.85794002  0.28665850  1
  Te  Te106  1  0.04825380  0.84885733  0.52973481  1
  Te  Te107  1  0.09019011  0.90674127  0.91036010  1
  Te  Te108  1  0.41787051  0.23359241  0.27762682  1
  Te  Te109  1  0.41900226  0.25898154  0.55421920  1
  Te  Te110  1  0.40216197  0.27347267  0.91875855  1
  Te  Te111  1  0.46392445  0.58030860  0.29758612  1
  Te  Te112  1  0.41179058  0.59798145  0.60552298  1
  Te  Te113  1  0.40561926  0.60408510  0.89136591  1
  Te  Te114  1  0.43988660  0.88900632  0.29534118  1
  Te  Te115  1  0.42797569  0.93069809  0.57254453  1
  Te  Te116  1  0.41969375  0.90266778  0.92023680  1
  Te  Te117  1  0.76387041  0.27982048  0.30370647  1
  Te  Te118  1  0.76478621  0.24979205  0.57709480  1
  Te  Te119  1  0.73991307  0.26880413  0.92383311  1
  Te  Te120  1  0.74666055  0.59030042  0.24132365  1
  Te  Te121  1  0.77837175  0.59135338  0.57584448  1
  Te  Te122  1  0.78010290  0.63114002  0.90151819  1
  Te  Te123  1  0.72513372  0.91135383  0.23722840  1
  Te  Te124  1  0.72682704  0.89134271  0.55534501  1
  Te  Te125  1  0.74057459  0.94258653  0.90836605  1
  Te  Te126  1  0.24761424  0.23924381  0.08254685  1
  Te  Te127  1  0.23980451  0.24064777  0.39900162  1
  Te  Te128  1  0.23669607  0.24892669  0.73587397  1
  Te  Te129  1  0.23747669  0.57096338  0.08599935  1
  Te  Te130  1  0.25456448  0.62542592  0.40720122  1
  Te  Te131  1  0.22598398  0.56030951  0.72566559  1
  Te  Te132  1  0.25579939  0.90256718  0.11130287  1
  Te  Te133  1  0.25564657  0.91954726  0.42793363  1
  Te  Te134  1  0.19685342  0.90877158  0.72254068  1
  Te  Te135  1  0.57947499  0.24234371  0.09569633  1
  Te  Te136  1  0.61385952  0.26397891  0.35693535  1
  Te  Te137  1  0.55329665  0.24301686  0.75460979  1
  Te  Te138  1  0.55784572  0.59270029  0.09166107  1
  Te  Te139  1  0.60155756  0.58091906  0.40229946  1
  Te  Te140  1  0.59491130  0.59880486  0.75406414  1
  Te  Te141  1  0.58593391  0.92200791  0.06865006  1
  Te  Te142  1  0.63202877  0.87668536  0.44164062  1
  Te  Te143  1  0.60402132  0.91135228  0.72443350  1
  Te  Te144  1  0.91151746  0.25772113  0.10270612  1
  Te  Te145  1  0.93874529  0.23439213  0.43424065  1
  Te  Te146  1  0.90988309  0.25354124  0.77169512  1
  Te  Te147  1  0.90939679  0.59436891  0.06512155  1
  Te  Te148  1  0.93892980  0.59723304  0.40936635  1
  Te  Te149  1  0.84016271  0.56104435  0.77924209  1
  Te  Te150  1  0.88919340  0.93062606  0.09374979  1
  Te  Te151  1  0.92159167  0.89535786  0.42633117  1
  Te  Te152  1  0.95662143  0.94855251  0.71789118  1
  Te  Te153  1  0.24637503  0.05206619  0.25151026  1
  Te  Te154  1  0.23580724  0.08345004  0.58007447  1
  Te  Te155  1  0.24083556  0.06655071  0.91628564  1
  Te  Te156  1  0.25939932  0.41305094  0.23921100  1
  Te  Te157  1  0.25020222  0.40481588  0.57170990  1
  Te  Te158  1  0.25595457  0.44328512  0.88930299  1
  Te  Te159  1  0.28721565  0.70065064  0.25640624  1
  Te  Te160  1  0.22178485  0.73645473  0.58057026  1
  Te  Te161  1  0.25702766  0.75432100  0.92142824  1
  Te  Te162  1  0.57708731  0.07420309  0.26098668  1
  Te  Te163  1  0.60054248  0.09881997  0.57926511  1
  Te  Te164  1  0.57019379  0.08598754  0.90481139  1
  Te  Te165  1  0.56721253  0.40271741  0.25818309  1
  Te  Te166  1  0.56816448  0.40528251  0.55279754  1
  Te  Te167  1  0.59137741  0.42596528  0.89532385  1
  Te  Te168  1  0.53851029  0.71543775  0.27845330  1
  Te  Te169  1  0.59359043  0.71683611  0.58300255  1
  Te  Te170  1  0.59425073  0.75681608  0.91511884  1
  Te  Te171  1  0.91829827  0.05920959  0.26298843  1
  Te  Te172  1  0.92823553  0.05622584  0.58656679  1
  Te  Te173  1  0.92211455  0.09743500  0.92127390  1
  Te  Te174  1  0.92277601  0.41884298  0.24379114  1
  Te  Te175  1  0.92692670  0.44900227  0.58038480  1
  Te  Te176  1  0.93416268  0.43870067  0.90278696  1
  Te  Te177  1  0.91323714  0.73733777  0.24360324  1
  Te  Te178  1  0.96077793  0.73531037  0.58957472  1
  Te  Te179  1  0.91608533  0.77420011  0.91695950  1
