# generated using pymatgen
data_In2Te3
_symmetry_space_group_name_H-M   'P 1'
_cell_length_a   19.06461028
_cell_length_b   19.05051635
_cell_length_c   19.04419217
_cell_angle_alpha   90.13933593
_cell_angle_beta   89.72128266
_cell_angle_gamma   89.91097876
_symmetry_Int_Tables_number   1
_chemical_formula_structural   In2Te3
_chemical_formula_sum   'In72 Te108'
_cell_volume   6916.56214688
_cell_formula_units_Z   36
loop_
 _symmetry_equiv_pos_site_id
 _symmetry_equiv_pos_as_xyz
  1  'x, y, z'
loop_
 _atom_site_type_symbol
 _atom_site_label
 _atom_site_symmetry_multiplicity
 _atom_site_fract_x
 _atom_site_fract_y
 _atom_site_fract_z
 _atom_site_occupancy
  In  In0  1  0.17708762  0.52448624  -0.00201157  1
  In  In1  1  0.51541611  -0.01758684  0.51185217  1
  In  In2  1  0.14894443  0.49275363  0.31629820  1
  In  In3  1  0.46319341  0.79350217  0.36040960  1
  In  In4  1  0.83271692  0.51708269  -0.02603768  1
  In  In5  1  0.67610602  -0.00374420  0.00468229  1
  In  In6  1  0.50927108  0.33744536  0.84014781  1
  In  In7  1  0.83312719  0.64912266  0.52770261  1
  In  In8  1  0.16867003  0.32941604  0.82161709  1
  In  In9  1  -0.01499424  0.51208125  0.52052919  1
  In  In10  1  0.32600863  0.51954598  0.14487684  1
  In  In11  1  0.31287351  -0.01412945  0.32931695  1
  In  In12  1  0.50059227  -0.00233058  0.15589868  1
  In  In13  1  0.31381298  0.81204911  0.17126621  1
  In  In14  1  0.82039062  0.32623803  0.16559915  1
  In  In15  1  0.66142902  0.34386206  -0.01581831  1
  In  In16  1  0.16733387  0.17300426  0.66023579  1
  In  In17  1  0.65355706  0.33341743  0.35653488  1
  In  In18  1  0.67408043  0.84414711  0.50440862  1
  In  In19  1  0.01730775  0.52111785  0.18217573  1
  In  In20  1  0.69210995  0.18064334  0.83619160  1
  In  In21  1  0.64431673  0.66193414  0.34297043  1
  In  In22  1  0.64820104  0.53660296  0.15243289  1
  In  In23  1  0.82583793  -0.01674265  0.18117024  1
  In  In24  1  0.32744438  0.32104819  0.65013521  1
  In  In25  1  0.01041825  -0.01383484  0.00690407  1
  In  In26  1  0.35154596  0.52768494  0.83168253  1
  In  In27  1  0.48105490  0.52178967  0.35333524  1
  In  In28  1  0.84361912  0.33941679  0.80415080  1
  In  In29  1  0.17494733  0.83377367  0.65077337  1
  In  In30  1  0.33894328  0.49108920  0.51275170  1
  In  In31  1  -0.02072685  0.84685193  0.84550502  1
  In  In32  1  0.81388109  0.67617539  0.81644596  1
  In  In33  1  0.83461858  0.84363398  0.34158014  1
  In  In34  1  0.82625828  0.48988177  0.33146906  1
  In  In35  1  0.87303983  0.16197292  0.01750780  1
  In  In36  1  -0.00166119  0.00636677  0.33966052  1
  In  In37  1  0.46588525  -0.05355753  0.84982436  1
  In  In38  1  0.66934794  0.67989499  0.66853460  1
  In  In39  1  0.83493896  0.69095007  0.14881010  1
  In  In40  1  0.78667713  0.81515792  -0.01459178  1
  In  In41  1  0.50374119  0.71242562  0.85575782  1
  In  In42  1  0.00933226  0.19177697  0.82039093  1
  In  In43  1  0.17146350  -0.02059732  0.49543454  1
  In  In44  1  0.49495160  0.82542323  0.67158651  1
  In  In45  1  0.34322835  0.16833073  0.14061161  1
  In  In46  1  0.16908168  0.65324482  0.49312979  1
  In  In47  1  0.65601438  0.34429732  0.67579270  1
  In  In48  1  0.20480748  0.02541846  0.84219841  1
  In  In49  1  0.18608084  0.80659287  -0.01432066  1
  In  In50  1  0.03592234  0.66804719  0.32958809  1
  In  In51  1  0.67045391  0.14307690  0.51333124  1
  In  In52  1  0.16373948  0.00364485  0.17094723  1
  In  In53  1  0.02765661  0.83892114  0.15372400  1
  In  In54  1  0.33348454  0.18275656  0.48482843  1
  In  In55  1  0.49759017  0.52131343  0.66285495  1
  In  In56  1  0.01781692  0.30845000  0.34074026  1
  In  In57  1  0.47791332  0.36865638  0.18494287  1
  In  In58  1  0.36815117  0.01784560  0.67562804  1
  In  In59  1  0.82488560  0.00797978  0.53199087  1
  In  In60  1  0.84983165  0.32978235  0.51035308  1
  In  In61  1  0.01976771  0.47940750  0.81296853  1
  In  In62  1  0.17446838  0.65149796  0.82068332  1
  In  In63  1  0.47911988  0.67573403  0.14397221  1
  In  In64  1  0.83985935  0.00876153  0.79382482  1
  In  In65  1  0.01455735  0.15226121  0.51077184  1
  In  In66  1  0.65173727  0.18359865  0.17539737  1
  In  In67  1  -0.00446885  0.66292827  0.67336781  1
  In  In68  1  0.51371068  0.14392093  0.33814640  1
  In  In69  1  0.32831228  0.34496649  0.33009378  1
  In  In70  1  0.47936238  0.16449110  0.00526212  1
  In  In71  1  0.01012690  0.18000892  0.17800272  1
  Te  Te72  1  0.08635283  0.09445856  0.07796944  1
  Te  Te73  1  0.10496714  0.08633687  0.40823904  1
  Te  Te74  1  0.09218447  0.08305507  0.75615532  1
  Te  Te75  1  0.09592424  0.44121098  0.08867917  1
  Te  Te76  1  0.06620566  0.42419905  0.42243209  1
  Te  Te77  1  0.07716153  0.38219950  0.71791560  1
  Te  Te78  1  0.07962029  0.74089510  0.05982699  1
  Te  Te79  1  0.06464349  0.74837634  0.44847448  1
  Te  Te80  1  0.07839404  0.76042814  0.75577992  1
  Te  Te81  1  0.39740355  0.05034078  0.05868956  1
  Te  Te82  1  0.41554695  0.06344443  0.41986163  1
  Te  Te83  1  0.41822091  0.07554321  0.80055179  1
  Te  Te84  1  0.39953442  0.41412296  0.07173807  1
  Te  Te85  1  0.43050943  0.40101758  0.42562892  1
  Te  Te86  1  0.41413492  0.41582565  0.73871610  1
  Te  Te87  1  0.41759704  0.78625656  0.06502088  1
  Te  Te88  1  0.38967118  0.71154395  0.45542568  1
  Te  Te89  1  0.40227445  0.74390752  0.75310730  1
  Te  Te90  1  0.75820776  0.10067734  0.09359708  1
  Te  Te91  1  0.74398560  0.05590027  0.42171163  1
  Te  Te92  1  0.72459234  0.07762105  0.73642676  1
  Te  Te93  1  0.74931843  0.43371453  0.08232122  1
  Te  Te94  1  0.74851220  0.41922589  0.43669261  1
  Te  Te95  1  0.72677448  0.42264332  0.77937579  1
  Te  Te96  1  0.71031972  0.73017142  0.07933317  1
  Te  Te97  1  0.75701909  0.73547755  0.42113568  1
  Te  Te98  1  0.76910830  0.77692934  0.71967129  1
  Te  Te99  1  0.11220605  0.25960857  0.24222560  1
  Te  Te100  1  0.07393727  0.26214837  0.59015099  1
  Te  Te101  1  0.08239669  0.26451264  0.92094377  1
  Te  Te102  1  0.13218871  0.62170895  0.21698886  1
  Te  Te103  1  0.09583021  0.57474920  0.60119591  1
  Te  Te104  1  0.07136465  0.58528327  0.90836128  1
  Te  Te105  1  0.09321439  0.91158282  0.26839016  1
  Te  Te106  1  0.07788320  0.92876212  0.59590135  1
  Te  Te107  1  0.10483584  0.91895396  0.90949891  1
  Te  Te108  1  0.43049098  0.24136777  0.25770749  1
  Te  Te109  1  0.41932679  0.22053126  0.59467442  1
  Te  Te110  1  0.41385606  0.27483007  0.93425135  1
  Te  Te111  1  0.40276889  0.59600967  0.25213506  1
  Te  Te112  1  0.41566001  0.60655664  0.56831040  1
  Te  Te113  1  0.41674814  0.61518905  0.93199584  1
  Te  Te114  1  0.41725012  0.90698483  0.25388969  1
  Te  Te115  1  0.40501037  0.90645333  0.57957951  1
  Te  Te116  1  0.37896417  0.85667899  0.93012179  1
  Te  Te117  1  0.74742826  0.24676026  0.27306650  1
  Te  Te118  1  0.74257466  0.25444135  0.58673696  1
  Te  Te119  1  0.77691357  0.25496938  0.93966977  1
  Te  Te120  1  0.75588070  0.59621968  0.24890991  1
  Te  Te121  1  0.75025458  0.56850620  0.61410295  1
  Te  Te122  1  0.72705032  0.60472205  0.91789508  1
  Te  Te123  1  0.73661461  0.88918176  0.24544254  1
  Te  Te124  1  0.76500182  0.89488424  0.60801189  1
  Te  Te125  1  0.75235492  0.92706138  0.89423101  1
  Te  Te126  1  0.26763604  0.23555685  0.03743289  1
  Te  Te127  1  0.23686401  0.27350060  0.42104492  1
  Te  Te128  1  0.26650812  0.23273367  0.75688455  1
  Te  Te129  1  0.28863321  0.61468539  0.03688146  1
  Te  Te130  1  0.24976988  0.55731770  0.40709992  1
  Te  Te131  1  0.24964443  0.56237965  0.73324736  1
  Te  Te132  1  0.24094814  0.91222548  0.08160241  1
  Te  Te133  1  0.24702363  0.88535941  0.41133986  1
  Te  Te134  1  0.25755356  0.93327079  0.73661663  1
  Te  Te135  1  0.57342597  0.27886777  0.09148169  1
  Te  Te136  1  0.57513331  0.23507994  0.43851224  1
  Te  Te137  1  0.57930520  0.23696975  0.75260049  1
  Te  Te138  1  0.54366050  0.57284947  0.06051653  1
  Te  Te139  1  0.58778119  0.56993420  0.43947826  1
  Te  Te140  1  0.57114350  0.60999099  0.75787443  1
  Te  Te141  1  0.58103938  0.90906298  0.07150538  1
  Te  Te142  1  0.57037085  0.89303559  0.40423151  1
  Te  Te143  1  0.57509444  0.90797623  0.76246480  1
  Te  Te144  1  0.94079915  0.27750846  0.08605580  1
  Te  Te145  1  0.91613455  0.23030219  0.41772908  1
  Te  Te146  1  0.89951269  0.22473008  0.72946688  1
  Te  Te147  1  0.91606699  0.58263408  0.08382605  1
  Te  Te148  1  0.92164347  0.58608733  0.39777889  1
  Te  Te149  1  0.90991880  0.57512723  0.75961135  1
  Te  Te150  1  0.90341394  0.90414908  0.07689315  1
  Te  Te151  1  0.91946509  0.92417469  0.43491170  1
  Te  Te152  1  0.93785756  0.92087448  0.72807035  1
  Te  Te153  1  0.25678939  0.09625676  0.24494984  1
  Te  Te154  1  0.25930296  0.08017555  0.57811121  1
  Te  Te155  1  0.24498103  0.10725712  0.95440165  1
  Te  Te156  1  0.24677824  0.41694804  0.22680238  1
  Te  Te157  1  0.24127678  0.38822083  0.55189682  1
  Te  Te158  1  0.24774866  0.43642903  0.89659225  1
  Te  Te159  1  0.21815805  0.74462221  0.25619785  1
  Te  Te160  1  0.26100179  0.74659770  0.56530743  1
  Te  Te161  1  0.26994670  0.75807488  0.86919586  1
  Te  Te162  1  0.60291335  0.06116348  0.25019206  1
  Te  Te163  1  0.59036914  0.06163696  0.60719942  1
  Te  Te164  1  0.60003926  0.10565816  0.93602210  1
  Te  Te165  1  0.60154468  0.42921807  0.25313042  1
  Te  Te166  1  0.57213745  0.42202615  0.58533180  1
  Te  Te167  1  0.59391597  0.44153228  0.90002658  1
  Te  Te168  1  0.56152358  0.74497248  0.25024198  1
  Te  Te169  1  0.57948097  0.74818531  0.56977970  1
  Te  Te170  1  0.63415810  0.73108438  0.92513737  1
  Te  Te171  1  0.91118126  0.08780319  0.24834006  1
  Te  Te172  1  0.91019008  0.10437216  0.60417171  1
  Te  Te173  1  0.92332499  0.06644107  0.91271615  1
  Te  Te174  1  0.92189001  0.40777946  0.24912894  1
  Te  Te175  1  0.89073241  0.43670443  0.60261982  1
  Te  Te176  1  0.92213039  0.41174438  0.91056109  1
  Te  Te177  1  0.93251499  0.75709069  0.25127033  1
  Te  Te178  1  0.93637353  0.74414666  0.56601579  1
  Te  Te179  1  0.90340201  0.74278247  0.92170491  1
