# generated using pymatgen
data_In2Te3
_symmetry_space_group_name_H-M   'P 1'
_cell_length_a   18.96849276
_cell_length_b   18.99060641
_cell_length_c   18.97483761
_cell_angle_alpha   89.98493723
_cell_angle_beta   90.13090515
_cell_angle_gamma   90.08266869
_symmetry_Int_Tables_number   1
_chemical_formula_structural   In2Te3
_chemical_formula_sum   'In72 Te108'
_cell_volume   6835.15116511
_cell_formula_units_Z   36
loop_
 _symmetry_equiv_pos_site_id
 _symmetry_equiv_pos_as_xyz
  1  'x, y, z'
loop_
 _atom_site_type_symbol
 _atom_site_label
 _atom_site_symmetry_multiplicity
 _atom_site_fract_x
 _atom_site_fract_y
 _atom_site_fract_z
 _atom_site_occupancy
  In  In0  1  0.14882798  0.83245762  0.00408146  1
  In  In1  1  0.16784197  -0.01644700  0.50694494  1
  In  In2  1  0.68801464  0.01080521  -0.01269755  1
  In  In3  1  0.83635835  0.51878765  0.31589126  1
  In  In4  1  0.66167308  0.68530215  0.33413899  1
  In  In5  1  0.49877688  0.15913579  0.33362297  1
  In  In6  1  0.02559156  0.80646877  0.79311155  1
  In  In7  1  0.31443323  0.81582545  0.49795836  1
  In  In8  1  0.49817900  0.18024013  0.00032769  1
  In  In9  1  0.67581947  0.81682672  0.16159947  1
  In  In10  1  0.01400998  0.13875798  0.82903343  1
  In  In11  1  0.15730137  0.67804440  0.48661901  1
  In  In12  1  0.17198131  0.17786965  0.00447778  1
  In  In13  1  0.34530714  0.47799079  0.85817530  1
  In  In14  1  0.29236336  0.66607566  0.30057164  1
  In  In15  1  0.50364913  0.68342967  0.47439388  1
  In  In16  1  0.80971950  0.48160915  0.04001979  1
  In  In17  1  0.15450835  0.33961330  0.83901591  1
  In  In18  1  0.50889529  0.35101380  0.86889733  1
  In  In19  1  0.83978393  0.66191851  0.83266459  1
  In  In20  1  0.65471346  0.78604879  0.79894518  1
  In  In21  1  0.84642251  0.00480929  0.16154963  1
  In  In22  1  0.52031204  0.00677235  0.48046002  1
  In  In23  1  0.69806697  0.85690484  0.51392262  1
  In  In24  1  0.80930557  0.80057858  -0.00328815  1
  In  In25  1  0.01304495  0.34624599  0.04506288  1
  In  In26  1  0.15109228  0.14535313  0.65885168  1
  In  In27  1  -0.01279097  0.14222981  0.51964290  1
  In  In28  1  -0.01689187  0.51298316  0.86471109  1
  In  In29  1  0.53297478  0.54183348  0.69527450  1
  In  In30  1  0.50371741  0.35472502  0.53024715  1
  In  In31  1  0.67036822  0.35031203  0.67257626  1
  In  In32  1  0.83325347  0.19847302  0.00410328  1
  In  In33  1  -0.00152951  0.82309707  0.52292129  1
  In  In34  1  0.18138356  0.34068760  0.16540945  1
  In  In35  1  0.33077677  0.68001540  0.66952231  1
  In  In36  1  0.11604198  0.53848478  0.29438511  1
  In  In37  1  0.49772785  0.16852466  0.67538344  1
  In  In38  1  0.34780097  -0.00550840  0.66352144  1
  In  In39  1  0.33099382  -0.01134957  0.31971376  1
  In  In40  1  -0.02314688  0.49927868  0.48960281  1
  In  In41  1  0.32743191  0.31990533  0.32070314  1
  In  In42  1  0.19057608  0.52356221  0.65813092  1
  In  In43  1  0.33378164  0.65499814  0.01987882  1
  In  In44  1  0.00639146  0.33319921  0.67450880  1
  In  In45  1  0.51599732  0.80905369  0.65322260  1
  In  In46  1  0.33947243  0.48686795  0.16394486  1
  In  In47  1  0.33439783  0.32061433  0.69735542  1
  In  In48  1  0.51645706  0.48734135  0.28807925  1
  In  In49  1  0.00791718  0.00292440  -0.00396800  1
  In  In50  1  0.34644663  0.48424105  0.51182723  1
  In  In51  1  0.31027944  0.83201021  0.82532633  1
  In  In52  1  0.66834870  0.33839631  0.33777715  1
  In  In53  1  0.50517397  0.79853912  0.00702712  1
  In  In54  1  0.51624669  0.00470656  0.17034992  1
  In  In55  1  0.00900274  0.82854309  0.15794378  1
  In  In56  1  0.49701648  -0.01357556  0.83745775  1
  In  In57  1  0.84318963  0.14653931  0.33590068  1
  In  In58  1  0.17677934  0.16270095  0.33894385  1
  In  In59  1  0.83210733  0.34332582  0.47552892  1
  In  In60  1  0.85475549  0.82925851  0.31883278  1
  In  In61  1  0.82708896  0.13169170  0.65761478  1
  In  In62  1  0.53155447  0.52669010  0.02968810  1
  In  In63  1  0.82455709  0.32737294  0.83087303  1
  In  In64  1  -0.00062874  0.66089207  0.01495622  1
  In  In65  1  0.51808975  0.32873586  0.18354033  1
  In  In66  1  0.81712961  0.55016004  0.65730716  1
  In  In67  1  0.68321476  0.15320962  0.48952325  1
  In  In68  1  0.15281964  -0.00612506  0.16171294  1
  In  In69  1  0.83002417  -0.01421941  0.80370843  1
  In  In70  1  0.00182417  0.35981475  0.31746517  1
  In  In71  1  0.30940176  0.00541398  -0.00109809  1
  Te  Te72  1  0.07198031  0.10168889  0.08939095  1
  Te  Te73  1  0.08185038  0.07613231  0.42259490  1
  Te  Te74  1  0.04782339  0.05310749  0.71360224  1
  Te  Te75  1  0.10033573  0.44935542  0.10405363  1
  Te  Te76  1  0.09039681  0.43743211  0.41252627  1
  Te  Te77  1  0.08754252  0.43964680  0.74622068  1
  Te  Te78  1  0.11317922  0.72444929  0.11662899  1
  Te  Te79  1  0.05987380  0.75129623  0.40783031  1
  Te  Te80  1  0.12635896  0.72621619  0.72690412  1
  Te  Te81  1  0.41772055  0.07642741  0.07787476  1
  Te  Te82  1  0.40319556  0.07995795  0.41976298  1
  Te  Te83  1  0.40839703  0.08902156  0.76775830  1
  Te  Te84  1  0.44224755  0.41398642  0.08175618  1
  Te  Te85  1  0.42867354  0.41231851  0.40366719  1
  Te  Te86  1  0.43267865  0.43150247  0.73698537  1
  Te  Te87  1  0.41833363  0.73825897  0.10650592  1
  Te  Te88  1  0.39537193  0.74767910  0.39116650  1
  Te  Te89  1  0.42444713  0.75413267  0.76289405  1
  Te  Te90  1  0.75095404  0.09894700  0.09194986  1
  Te  Te91  1  0.73753594  0.05974757  0.39218104  1
  Te  Te92  1  0.73627380  0.09135273  0.76301193  1
  Te  Te93  1  0.70066681  0.38722638  0.07550061  1
  Te  Te94  1  0.73939937  0.44482825  0.41905321  1
  Te  Te95  1  0.76099197  0.44055038  0.75330897  1
  Te  Te96  1  0.72567360  0.70372968  0.07436609  1
  Te  Te97  1  0.76498346  0.75726266  0.41947852  1
  Te  Te98  1  0.78716673  0.76174935  0.72902931  1
  Te  Te99  1  0.09073803  0.25611342  0.25198524  1
  Te  Te100  1  0.08291336  0.25221264  0.57397529  1
  Te  Te101  1  0.05403219  0.25517937  0.91823342  1
  Te  Te102  1  -0.02069542  0.58758527  0.25873974  1
  Te  Te103  1  0.07976982  0.58101621  0.57252400  1
  Te  Te104  1  0.08812261  0.59866171  0.91647094  1
  Te  Te105  1  0.05397217  0.93252053  0.25208613  1
  Te  Te106  1  0.07302413  0.92632141  0.60411764  1
  Te  Te107  1  0.07896385  0.91415953  0.89718657  1
  Te  Te108  1  0.41215276  0.23140354  0.23289722  1
  Te  Te109  1  0.40853609  0.24924473  0.58361661  1
  Te  Te110  1  0.40849996  0.25507435  0.91115222  1
  Te  Te111  1  0.41698435  0.59038232  0.24266836  1
  Te  Te112  1  0.42624811  0.59705010  0.58269572  1
  Te  Te113  1  0.42909581  0.58293863  0.92635295  1
  Te  Te114  1  0.43418753  0.91224165  0.24993294  1
  Te  Te115  1  0.42236662  0.89712679  0.56954558  1
  Te  Te116  1  0.41167961  0.90439123  0.93221192  1
  Te  Te117  1  0.77145798  0.25902822  0.26647639  1
  Te  Te118  1  0.75374222  0.25865399  0.58295945  1
  Te  Te119  1  0.73152617  0.25366742  0.91516441  1
  Te  Te120  1  0.73281723  0.59609369  0.23565410  1
  Te  Te121  1  0.72608706  0.61337411  0.56681323  1
  Te  Te122  1  0.76909280  0.57104871  0.92518730  1
  Te  Te123  1  0.75442064  0.91724157  0.24365979  1
  Te  Te124  1  0.75991127  0.95481783  0.60387971  1
  Te  Te125  1  0.74314667  0.89686456  0.89982668  1
  Te  Te126  1  0.26635735  0.26279706  0.07617164  1
  Te  Te127  1  0.25261060  0.25309373  0.42582719  1
  Te  Te128  1  0.22694896  0.23348626  0.75948425  1
  Te  Te129  1  0.23951703  0.56143176  0.08531886  1
  Te  Te130  1  0.26777426  0.58993400  0.43381943  1
  Te  Te131  1  0.27167967  0.58295770  0.77002426  1
  Te  Te132  1  0.25158274  0.90201647  0.09344616  1
  Te  Te133  1  0.23499608  0.90010971  0.40015226  1
  Te  Te134  1  0.24581650  0.93916000  0.75195460  1
  Te  Te135  1  0.59879026  0.25099216  0.08595217  1
  Te  Te136  1  0.57912779  0.25733143  0.43587438  1
  Te  Te137  1  0.57833732  0.26676234  0.75755953  1
  Te  Te138  1  0.61814763  0.60174301  0.12542560  1
  Te  Te139  1  0.57604724  0.57379908  0.39854969  1
  Te  Te140  1  0.61177325  0.63778217  0.77473091  1
  Te  Te141  1  0.59796677  0.91543969  0.06466377  1
  Te  Te142  1  0.58647990  0.89123267  0.42274050  1
  Te  Te143  1  0.58524842  0.91227371  0.74029919  1
  Te  Te144  1  0.91885452  0.25473027  0.10887534  1
  Te  Te145  1  0.93674932  0.25096142  0.41846345  1
  Te  Te146  1  0.91630498  0.23422955  0.74722883  1
  Te  Te147  1  0.91964805  0.56638903  0.09696643  1
  Te  Te148  1  0.91074414  0.60622354  0.41278321  1
  Te  Te149  1  0.93766684  0.58958087  0.74006758  1
  Te  Te150  1  0.90376654  0.90683044  0.05883977  1
  Te  Te151  1  0.93095285  0.90633548  0.41903905  1
  Te  Te152  1  0.90951163  0.88417332  0.72449281  1
  Te  Te153  1  0.25219264  0.08491046  0.23300145  1
  Te  Te154  1  0.26030145  0.08274463  0.57503762  1
  Te  Te155  1  0.22066803  0.07854796  0.90884592  1
  Te  Te156  1  0.24475319  0.43889239  0.27558123  1
  Te  Te157  1  0.25115650  0.40034255  0.59419093  1
  Te  Te158  1  0.24363374  0.40602979  0.93415740  1
  Te  Te159  1  0.20970771  0.76147443  0.23122625  1
  Te  Te160  1  0.21939848  0.76963352  0.60980663  1
  Te  Te161  1  0.24387670  0.74387104  0.92717631  1
  Te  Te162  1  0.60070144  0.08766559  0.25878878  1
  Te  Te163  1  0.58989354  0.08318934  0.59042104  1
  Te  Te164  1  0.58266870  0.08765461  0.91056263  1
  Te  Te165  1  0.64032260  0.42841097  0.21168427  1
  Te  Te166  1  0.60104732  0.45588631  0.58823880  1
  Te  Te167  1  0.59741716  0.45678985  0.91611403  1
  Te  Te168  1  0.57564996  0.78288196  0.26406270  1
  Te  Te169  1  0.61493448  0.72146684  0.57633799  1
  Te  Te170  1  0.59466595  0.71878069  0.91977674  1
  Te  Te171  1  0.94039127  0.06965633  0.25506394  1
  Te  Te172  1  0.87584890  0.04247390  0.54812685  1
  Te  Te173  1  0.90047339  0.07539780  0.91450250  1
  Te  Te174  1  0.87456103  0.39052215  0.24824407  1
  Te  Te175  1  0.90425740  0.41420546  0.59494115  1
  Te  Te176  1  0.90948651  0.40238642  0.93519504  1
  Te  Te177  1  0.90683154  0.73717800  0.21445460  1
  Te  Te178  1  0.90069603  0.76499179  0.62137271  1
  Te  Te179  1  0.93403310  0.76012065  0.91355865  1
