# generated using pymatgen
data_In2Te3
_symmetry_space_group_name_H-M   'P 1'
_cell_length_a   18.97566340
_cell_length_b   18.96365708
_cell_length_c   18.96918635
_cell_angle_alpha   90.00973307
_cell_angle_beta   90.17901377
_cell_angle_gamma   89.94740019
_symmetry_Int_Tables_number   1
_chemical_formula_structural   In2Te3
_chemical_formula_sum   'In72 Te108'
_cell_volume   6825.98698151
_cell_formula_units_Z   36
loop_
 _symmetry_equiv_pos_site_id
 _symmetry_equiv_pos_as_xyz
  1  'x, y, z'
loop_
 _atom_site_type_symbol
 _atom_site_label
 _atom_site_symmetry_multiplicity
 _atom_site_fract_x
 _atom_site_fract_y
 _atom_site_fract_z
 _atom_site_occupancy
  In  In0  1  0.20548028  0.48310682  -0.03338724  1
  In  In1  1  0.83129733  0.17006475  -0.01469243  1
  In  In2  1  0.16768528  -0.01715133  0.17019008  1
  In  In3  1  0.18456074  0.46165706  0.67719013  1
  In  In4  1  0.00689630  0.16956513  0.79736170  1
  In  In5  1  0.16938134  0.64733845  0.16778702  1
  In  In6  1  0.18204479  0.68462734  0.51759797  1
  In  In7  1  0.33390030  0.50408485  0.16042722  1
  In  In8  1  0.00575644  0.66474870  0.01170115  1
  In  In9  1  0.48778021  0.51389799  -0.00278947  1
  In  In10  1  0.15176703  0.47822974  0.34431289  1
  In  In11  1  0.00545587  0.49131609  0.15604120  1
  In  In12  1  0.53175192  0.49864407  0.33118100  1
  In  In13  1  0.50025759  0.01678729  0.81912594  1
  In  In14  1  0.83670284  0.55327344  0.33221684  1
  In  In15  1  0.19517074  0.64945631  0.81558756  1
  In  In16  1  -0.02849378  -0.02225693  0.02437816  1
  In  In17  1  0.49840176  0.47152211  0.65025931  1
  In  In18  1  0.33117052  0.17700670  0.15111928  1
  In  In19  1  0.18619926  0.85305083  0.65763344  1
  In  In20  1  0.17293077  0.03511733  0.82357893  1
  In  In21  1  0.49156603  0.83844917  0.37045182  1
  In  In22  1  0.36201134  -0.00972625  -0.01908623  1
  In  In23  1  0.67212600  0.83160361  0.49032647  1
  In  In24  1  0.50439039  0.67763027  0.15654402  1
  In  In25  1  0.65059590  -0.00469437  0.00709653  1
  In  In26  1  0.67123955  0.49120994  0.82965081  1
  In  In27  1  0.81992564  0.15107682  0.62296096  1
  In  In28  1  0.04229813  0.48948339  0.79952694  1
  In  In29  1  0.80011384  0.16250825  0.36001632  1
  In  In30  1  0.17966070  0.19090923  0.66173016  1
  In  In31  1  0.16334510  0.00989823  0.49833064  1
  In  In32  1  0.84580091  0.67130620  0.84273244  1
  In  In33  1  0.51353613  0.68268735  0.84991723  1
  In  In34  1  0.81502104  -0.00481158  0.83942797  1
  In  In35  1  0.00222391  0.84231638  0.83392511  1
  In  In36  1  0.48198103  0.18623071  0.66288165  1
  In  In37  1  0.83517463  0.81733681  0.67689872  1
  In  In38  1  0.65526744  0.02679193  0.65909821  1
  In  In39  1  0.33745595  0.00493683  0.66683399  1
  In  In40  1  0.51402524  0.84560211  0.68305684  1
  In  In41  1  0.15348834  0.80849493  -0.01583194  1
  In  In42  1  0.48745170  0.33314811  0.81821686  1
  In  In43  1  0.01720237  0.67102851  0.63949933  1
  In  In44  1  0.81592473  0.51528481  0.00361285  1
  In  In45  1  0.83674436  0.65986784  0.50625602  1
  In  In46  1  0.49340828  0.17543026  -0.01075319  1
  In  In47  1  0.34109297  0.69274649  0.34209337  1
  In  In48  1  0.35673386  0.03525019  0.36728461  1
  In  In49  1  0.65385371  0.32814868  0.34010342  1
  In  In50  1  0.16559013  0.16949082  0.34668342  1
  In  In51  1  0.80580859  -0.01129033  0.21108689  1
  In  In52  1  0.17474600  0.84213453  0.34973027  1
  In  In53  1  0.33438854  0.50624036  0.50509065  1
  In  In54  1  -0.01324198  0.17396934  0.19099175  1
  In  In55  1  0.83135573  -0.01081614  0.47980874  1
  In  In56  1  0.33804320  0.31028906  0.31910202  1
  In  In57  1  0.66153560  0.65878445  0.33615337  1
  In  In58  1  -0.04969491  0.82385051  0.26672018  1
  In  In59  1  0.36344608  0.83326409  0.14695709  1
  In  In60  1  0.49096000  0.32718995  0.49965668  1
  In  In61  1  0.52767680  -0.01880738  0.18021377  1
  In  In62  1  0.65250301  0.16133830  0.15739102  1
  In  In63  1  0.01285253  0.31513387  0.35174381  1
  In  In64  1  0.16321034  0.18446506  0.01485374  1
  In  In65  1  0.75509306  0.82810276  0.08923760  1
  In  In66  1  0.00484208  0.35722630  -0.01764296  1
  In  In67  1  0.84847629  0.32544685  0.83248933  1
  In  In68  1  0.83670682  0.49195521  0.66350803  1
  In  In69  1  0.80870088  0.34105787  0.49679132  1
  In  In70  1  0.82971621  0.35872010  0.15911170  1
  In  In71  1  0.68534594  0.66955125  0.67744116  1
  Te  Te72  1  0.07324150  0.08231888  0.09735413  1
  Te  Te73  1  0.06806971  0.09649555  0.42623182  1
  Te  Te74  1  0.08316839  0.07392842  0.71001279  1
  Te  Te75  1  0.10887536  0.42118898  0.07126653  1
  Te  Te76  1  0.10521776  0.38215783  0.44759272  1
  Te  Te77  1  0.06117368  0.37585737  0.70301904  1
  Te  Te78  1  0.07937891  0.75691449  0.10614727  1
  Te  Te79  1  0.09121543  0.74481948  0.41908807  1
  Te  Te80  1  0.08779027  0.74767282  0.75255330  1
  Te  Te81  1  0.43141988  0.06532134  0.09328985  1
  Te  Te82  1  0.45020866  0.12094634  0.44086885  1
  Te  Te83  1  0.39505355  0.10797619  0.76223918  1
  Te  Te84  1  0.40552927  0.41491011  0.07006822  1
  Te  Te85  1  0.41574596  0.42442977  0.39839349  1
  Te  Te86  1  0.39834378  0.43716601  0.75562461  1
  Te  Te87  1  0.41248959  0.73226937  0.05299190  1
  Te  Te88  1  0.40665353  0.75558745  0.45612984  1
  Te  Te89  1  0.42724974  0.74839896  0.74953215  1
  Te  Te90  1  0.76706185  0.07591271  0.08516308  1
  Te  Te91  1  0.71394614  0.05906928  0.42103828  1
  Te  Te92  1  0.74959059  0.09994438  0.75437516  1
  Te  Te93  1  0.73384276  0.40977356  0.06177564  1
  Te  Te94  1  0.75190176  0.43109864  0.38971953  1
  Te  Te95  1  0.74727518  0.39724010  0.73881367  1
  Te  Te96  1  0.71112780  0.68773215  0.10994630  1
  Te  Te97  1  0.76701244  0.75139824  0.40564823  1
  Te  Te98  1  0.74089993  0.76472593  0.78280128  1
  Te  Te99  1  0.10010967  0.25959513  0.23959511  1
  Te  Te100  1  0.09084821  0.27966842  0.58387923  1
  Te  Te101  1  0.08266599  0.25452111  0.90144866  1
  Te  Te102  1  0.07255125  0.57988862  0.26051785  1
  Te  Te103  1  0.11213488  0.56838684  0.58722176  1
  Te  Te104  1  0.08895423  0.58308046  0.91617414  1
  Te  Te105  1  0.07396542  0.92271505  0.26957047  1
  Te  Te106  1  0.08690201  0.90190623  0.56375869  1
  Te  Te107  1  0.08837736  0.93663004  0.91662463  1
  Te  Te108  1  0.43390135  0.23735688  0.23561690  1
  Te  Te109  1  0.38629437  0.28063565  0.59662335  1
  Te  Te110  1  0.40124234  0.25058515  0.90537650  1
  Te  Te111  1  0.41703493  0.59232706  0.25400172  1
  Te  Te112  1  0.44411808  0.58159787  0.56612788  1
  Te  Te113  1  0.41174023  0.58644910  0.89474493  1
  Te  Te114  1  0.40582072  0.92214337  0.26377670  1
  Te  Te115  1  0.43958409  0.93351231  0.58749962  1
  Te  Te116  1  0.44693077  0.90168198  0.89888229  1
  Te  Te117  1  0.75987670  0.24942977  0.23774478  1
  Te  Te118  1  0.72260833  0.23793962  0.55647244  1
  Te  Te119  1  0.74617519  0.26940021  0.92168731  1
  Te  Te120  1  0.72789132  0.57719840  0.22963359  1
  Te  Te121  1  0.73828337  0.56972554  0.57672978  1
  Te  Te122  1  0.73065388  0.60417059  0.91430421  1
  Te  Te123  1  0.71548509  0.87475395  0.22349043  1
  Te  Te124  1  0.74617066  0.91375029  0.59896372  1
  Te  Te125  1  0.76241887  0.90903948  0.95241829  1
  Te  Te126  1  0.26715361  0.27633462  0.06306154  1
  Te  Te127  1  0.27030515  0.23558973  0.42452752  1
  Te  Te128  1  0.21788372  0.25956058  0.78658137  1
  Te  Te129  1  0.25781587  0.59248306  0.06025587  1
  Te  Te130  1  0.24623339  0.58727764  0.40002228  1
  Te  Te131  1  0.28300631  0.55761919  0.73913089  1
  Te  Te132  1  0.25232912  0.91187251  0.06609480  1
  Te  Te133  1  0.27160071  0.92574035  0.43096238  1
  Te  Te134  1  0.26073494  0.92379425  0.76970201  1
  Te  Te135  1  0.57094486  0.25706305  0.08402594  1
  Te  Te136  1  0.55908638  0.23058313  0.40656890  1
  Te  Te137  1  0.58443346  0.25623160  0.73908414  1
  Te  Te138  1  0.59361291  0.58826906  0.07637113  1
  Te  Te139  1  0.57198493  0.59521050  0.43423366  1
  Te  Te140  1  0.58303873  0.57763450  0.74163486  1
  Te  Te141  1  0.56631341  0.88597112  0.06927127  1
  Te  Te142  1  0.59309480  0.93428585  0.41892630  1
  Te  Te143  1  0.61176231  0.92762278  0.76523166  1
  Te  Te144  1  0.92902767  0.26207221  0.07369090  1
  Te  Te145  1  0.90782043  0.24171890  0.43133905  1
  Te  Te146  1  0.90453900  0.24533804  0.71776686  1
  Te  Te147  1  0.90673622  0.59158114  0.09863400  1
  Te  Te148  1  0.92981899  0.55838752  0.44979566  1
  Te  Te149  1  0.92474995  0.59429074  0.73916956  1
  Te  Te150  1  0.90288527  0.89206461  0.12942139  1
  Te  Te151  1  0.90427973  0.90734849  0.37997153  1
  Te  Te152  1  0.91471564  0.92821548  0.74528194  1
  Te  Te153  1  0.25450676  0.07692691  0.25167679  1
  Te  Te154  1  0.26216708  0.09737664  0.57447587  1
  Te  Te155  1  0.25678083  0.09228438  0.93615723  1
  Te  Te156  1  0.24769989  0.41381953  0.24706632  1
  Te  Te157  1  0.27527292  0.39123855  0.57977004  1
  Te  Te158  1  0.23810890  0.39884877  0.85091837  1
  Te  Te159  1  0.25190811  0.75890497  0.23326698  1
  Te  Te160  1  0.27602497  0.74794186  0.60994808  1
  Te  Te161  1  0.25636001  0.75455884  0.89792300  1
  Te  Te162  1  0.59474488  0.07966195  0.26430811  1
  Te  Te163  1  0.53686992  0.07332622  0.57838415  1
  Te  Te164  1  0.59608621  0.09554551  0.90982246  1
  Te  Te165  1  0.57908748  0.39953688  0.23587705  1
  Te  Te166  1  0.59741491  0.39648014  0.57274808  1
  Te  Te167  1  0.57383857  0.41626645  0.91400914  1
  Te  Te168  1  0.56971768  0.75936602  0.26682953  1
  Te  Te169  1  0.59325004  0.75123677  0.58934130  1
  Te  Te170  1  0.55623279  0.78202600  0.95258831  1
  Te  Te171  1  0.90549679  0.08331948  0.27670903  1
  Te  Te172  1  0.92324200  0.06751473  0.56313392  1
  Te  Te173  1  0.92882716  0.08587604  0.90520478  1
  Te  Te174  1  0.93071044  0.40990911  0.26021876  1
  Te  Te175  1  0.91540217  0.42928294  0.55551011  1
  Te  Te176  1  0.91610199  0.44900349  0.90042677  1
  Te  Te177  1  0.88529081  0.69351422  0.28536359  1
  Te  Te178  1  0.92614052  0.76839025  0.56705361  1
  Te  Te179  1  0.91943488  0.76547745  0.93586582  1
