# generated using pymatgen
data_In2Te3
_symmetry_space_group_name_H-M   'P 1'
_cell_length_a   18.95288093
_cell_length_b   18.99057940
_cell_length_c   18.97693638
_cell_angle_alpha   89.80969667
_cell_angle_beta   89.90643444
_cell_angle_gamma   90.22841478
_symmetry_Int_Tables_number   1
_chemical_formula_structural   In2Te3
_chemical_formula_sum   'In72 Te108'
_cell_volume   6830.19520203
_cell_formula_units_Z   36
loop_
 _symmetry_equiv_pos_site_id
 _symmetry_equiv_pos_as_xyz
  1  'x, y, z'
loop_
 _atom_site_type_symbol
 _atom_site_label
 _atom_site_symmetry_multiplicity
 _atom_site_fract_x
 _atom_site_fract_y
 _atom_site_fract_z
 _atom_site_occupancy
  In  In0  1  -0.02139450  0.48366740  0.52573215  1
  In  In1  1  0.31315469  0.49919010  0.50697123  1
  In  In2  1  0.02741900  -0.01216240  0.00292346  1
  In  In3  1  0.33304702  0.70990653  0.66554149  1
  In  In4  1  0.82381481  -0.01614858  0.15898538  1
  In  In5  1  0.32358795  0.65548395  0.33023645  1
  In  In6  1  0.36102822  0.48736567  0.15809360  1
  In  In7  1  0.48289321  -0.00401928  0.85914870  1
  In  In8  1  0.65991649  0.32043934  -0.00431691  1
  In  In9  1  0.48320168  0.67883073  0.81810094  1
  In  In10  1  0.65710569  0.80753487  0.13286087  1
  In  In11  1  0.01544479  0.15132991  0.16918566  1
  In  In12  1  0.51569799  0.66555455  0.15008305  1
  In  In13  1  0.65781628  0.82463570  0.49762097  1
  In  In14  1  0.67641828  0.49945227  0.49835135  1
  In  In15  1  0.66452904  0.47321780  0.17025737  1
  In  In16  1  0.47148546  0.85298624  -0.01170029  1
  In  In17  1  -0.03671444  0.01304445  0.64665469  1
  In  In18  1  0.67400161  -0.01555808  0.64876121  1
  In  In19  1  0.48740263  0.50443503  0.65382234  1
  In  In20  1  0.16719775  0.52426277  0.00170701  1
  In  In21  1  0.33815147  0.68016202  -0.00791455  1
  In  In22  1  0.31819189  0.16371155  0.49238727  1
  In  In23  1  0.84296862  0.82848947  0.33761095  1
  In  In24  1  0.17690930  0.14818363  0.70605336  1
  In  In25  1  0.51572442  0.69530306  0.48910996  1
  In  In26  1  0.32533897  0.53239039  0.82807697  1
  In  In27  1  0.51827224  0.14339968  0.68469890  1
  In  In28  1  0.53517598  0.13106905  0.33203309  1
  In  In29  1  0.85175742  0.33657276  0.82984584  1
  In  In30  1  0.33602856  0.33218200  0.31661953  1
  In  In31  1  0.80097253  0.17254362  0.42020365  1
  In  In32  1  0.50514267  0.32700333  0.15890359  1
  In  In33  1  0.18029825  0.86452525  0.64158083  1
  In  In34  1  0.03935457  0.15687359  0.84998506  1
  In  In35  1  0.81545233  0.48908947  0.31598022  1
  In  In36  1  0.80770286  0.31096169  0.17791895  1
  In  In37  1  0.14845901  0.48057403  0.36718377  1
  In  In38  1  0.31526143  0.36437125  0.66330490  1
  In  In39  1  -0.02177051  0.50749201  0.15755414  1
  In  In40  1  0.84456165  0.00892308  0.84575989  1
  In  In41  1  -0.02663832  -0.00804876  0.37251607  1
  In  In42  1  0.00901216  0.85240201  0.83306579  1
  In  In43  1  -0.00335523  0.32798375  0.67294409  1
  In  In44  1  0.15252169  0.35200260  0.83414841  1
  In  In45  1  0.81524750  0.19142017  0.64565606  1
  In  In46  1  0.33531570  0.01132668  0.33523787  1
  In  In47  1  -0.00003872  0.68611875  0.36281160  1
  In  In48  1  0.37527043  -0.01705624  0.65539887  1
  In  In49  1  0.08287916  0.16932936  0.35743295  1
  In  In50  1  0.87304644  0.67128210  0.77133024  1
  In  In51  1  -0.02305019  0.35295221  0.01343202  1
  In  In52  1  0.16692308  0.67098689  0.81893014  1
  In  In53  1  0.66392665  0.83144063  0.83319853  1
  In  In54  1  0.69333173  0.46251724  0.83935367  1
  In  In55  1  0.01530253  0.83901784  0.16445749  1
  In  In56  1  0.66999541  0.01129122  -0.00145816  1
  In  In57  1  0.67700451  0.20012893  0.81361797  1
  In  In58  1  0.00217567  0.68351983  0.00218702  1
  In  In59  1  0.13307962  0.31600439  0.51743279  1
  In  In60  1  0.21274613  0.32188568  0.14004737  1
  In  In61  1  0.66070309  0.65330864  0.31917697  1
  In  In62  1  0.33248347  0.16212035  0.15972770  1
  In  In63  1  0.68080140  0.63915166  -0.01901948  1
  In  In64  1  0.49427015  0.15809070  0.01891949  1
  In  In65  1  0.15411077  0.67463533  0.18944263  1
  In  In66  1  0.17021962  0.84765519  0.35949066  1
  In  In67  1  0.49172099  0.32806685  0.48794646  1
  In  In68  1  0.49716276  0.87713192  0.35771204  1
  In  In69  1  0.85347073  0.66638376  0.52601971  1
  In  In70  1  0.19668520  -0.00430353  0.17194277  1
  In  In71  1  0.65891487  0.67355538  0.64198389  1
  Te  Te72  1  0.11597379  0.08560286  0.07799408  1
  Te  Te73  1  0.09087837  0.05051756  0.44447570  1
  Te  Te74  1  0.07020295  0.03882864  0.75438859  1
  Te  Te75  1  0.09515598  0.42796211  0.09474972  1
  Te  Te76  1  0.04210522  0.38881620  0.42007498  1
  Te  Te77  1  0.06527154  0.43637887  0.74894178  1
  Te  Te78  1  0.11099624  0.76280449  0.07464579  1
  Te  Te79  1  0.07621240  0.77497880  0.44807559  1
  Te  Te80  1  0.09549038  0.77373287  0.73621692  1
  Te  Te81  1  0.43557672  0.06421260  0.11853501  1
  Te  Te82  1  0.42950381  0.08183966  0.43370351  1
  Te  Te83  1  0.40647766  0.09090871  0.76882224  1
  Te  Te84  1  0.41645663  0.39292227  0.05854674  1
  Te  Te85  1  0.40620194  0.42912977  0.41123459  1
  Te  Te86  1  0.41302007  0.42730546  0.76068715  1
  Te  Te87  1  0.41166007  0.76175118  0.09643922  1
  Te  Te88  1  0.41045664  0.76080243  0.40322999  1
  Te  Te89  1  0.38879378  0.78800321  0.78025313  1
  Te  Te90  1  0.75724504  0.09176102  0.08432735  1
  Te  Te91  1  0.73904001  0.04239745  0.38012717  1
  Te  Te92  1  0.75197715  0.08326864  0.74712540  1
  Te  Te93  1  0.75859766  0.40888534  0.07210915  1
  Te  Te94  1  0.75579768  0.40564960  0.41953836  1
  Te  Te95  1  0.76075893  0.39492784  0.72903278  1
  Te  Te96  1  0.75929948  0.73262641  0.06193026  1
  Te  Te97  1  0.75018899  0.72312898  0.42009003  1
  Te  Te98  1  0.74674397  0.75577610  0.73362011  1
  Te  Te99  1  0.10818145  0.25676581  0.23017769  1
  Te  Te100  1  0.07508571  0.21375250  0.60823584  1
  Te  Te101  1  0.08276134  0.27210167  0.94229883  1
  Te  Te102  1  0.07151825  0.57479428  0.26749283  1
  Te  Te103  1  0.03467296  0.60350797  0.59265623  1
  Te  Te104  1  0.07263838  0.58847093  0.90487464  1
  Te  Te105  1  0.07962837  0.93262176  0.26213523  1
  Te  Te106  1  0.06979349  0.93971899  0.57161068  1
  Te  Te107  1  0.11404260  0.90424316  0.92112641  1
  Te  Te108  1  0.43112386  0.22893544  0.26366091  1
  Te  Te109  1  0.39359494  0.26143972  0.58364715  1
  Te  Te110  1  0.41384389  0.26260734  0.95778420  1
  Te  Te111  1  0.43184662  0.58414669  0.24978770  1
  Te  Te112  1  0.41211483  0.60439239  0.56869040  1
  Te  Te113  1  0.43121019  0.58268193  0.92527861  1
  Te  Te114  1  0.43475779  0.94842940  0.24442419  1
  Te  Te115  1  0.45227851  0.89609055  0.56819073  1
  Te  Te116  1  0.36595519  0.95203491  0.94565119  1
  Te  Te117  1  0.74742617  0.22261118  0.28131672  1
  Te  Te118  1  0.72390309  0.23163429  0.53595620  1
  Te  Te119  1  0.77015462  0.24520610  0.92210206  1
  Te  Te120  1  0.75316158  0.58889571  0.22042185  1
  Te  Te121  1  0.76223582  0.57055072  0.60133662  1
  Te  Te122  1  0.76474606  0.59133857  0.86561703  1
  Te  Te123  1  0.74389209  0.88137556  0.23718978  1
  Te  Te124  1  0.76389236  0.89226769  0.57578670  1
  Te  Te125  1  0.75566103  0.91129723  0.92352323  1
  Te  Te126  1  0.27367757  0.22956403  0.03970352  1
  Te  Te127  1  0.24021373  0.26934910  0.41705750  1
  Te  Te128  1  0.25761575  0.26859130  0.76505396  1
  Te  Te129  1  0.25992033  0.59448342  0.10136708  1
  Te  Te130  1  0.22384626  0.59656639  0.43050081  1
  Te  Te131  1  0.24608162  0.59338407  0.71540317  1
  Te  Te132  1  0.28280898  0.92995798  0.07638631  1
  Te  Te133  1  0.26711065  0.92728917  0.43447501  1
  Te  Te134  1  0.27783576  0.91274146  0.74367547  1
  Te  Te135  1  0.60222442  0.22785331  0.10107711  1
  Te  Te136  1  0.58830002  0.23657064  0.42332343  1
  Te  Te137  1  0.56903979  0.26724492  0.74301539  1
  Te  Te138  1  0.58605177  0.55933186  0.07099808  1
  Te  Te139  1  0.57370939  0.57550507  0.41580371  1
  Te  Te140  1  0.57873774  0.58913956  0.74191927  1
  Te  Te141  1  0.57548179  0.92166943  0.07691780  1
  Te  Te142  1  0.62191142  0.94058159  0.40942198  1
  Te  Te143  1  0.57869015  0.93164001  0.76105107  1
  Te  Te144  1  0.91616419  0.24043535  0.09610624  1
  Te  Te145  1  0.94908541  0.21080432  0.39618285  1
  Te  Te146  1  0.92574912  0.21863612  0.75828526  1
  Te  Te147  1  0.90593477  0.58872145  0.06166486  1
  Te  Te148  1  0.90722846  0.57327314  0.41091770  1
  Te  Te149  1  0.95608915  0.55931297  0.71640535  1
  Te  Te150  1  0.91815528  0.90333472  0.06943544  1
  Te  Te151  1  0.89559859  0.89685179  0.45638209  1
  Te  Te152  1  0.89960120  0.91407262  0.74348657  1
  Te  Te153  1  0.23944107  0.10666651  0.26750018  1
  Te  Te154  1  0.26267206  0.07713218  0.60161172  1
  Te  Te155  1  0.18221036  0.10534365  0.85180497  1
  Te  Te156  1  0.24592317  0.43913227  0.25473315  1
  Te  Te157  1  0.20276723  0.43139206  0.58770533  1
  Te  Te158  1  0.25267419  0.43328510  0.91840205  1
  Te  Te159  1  0.25192010  0.76760653  0.25560763  1
  Te  Te160  1  0.24919302  0.76369399  0.55894313  1
  Te  Te161  1  0.25923271  0.75813549  0.89671455  1
  Te  Te162  1  0.65890550  0.08990218  0.25708161  1
  Te  Te163  1  0.59731439  0.08638894  0.57700682  1
  Te  Te164  1  0.58982681  0.10161139  0.90408799  1
  Te  Te165  1  0.57256199  0.40621336  0.26140913  1
  Te  Te166  1  0.57990194  0.41191167  0.58057506  1
  Te  Te167  1  0.57891283  0.40419772  0.90802360  1
  Te  Te168  1  0.57224134  0.76084174  0.26004531  1
  Te  Te169  1  0.54960445  0.78422433  0.61101495  1
  Te  Te170  1  0.57354890  0.74968038  0.92590138  1
  Te  Te171  1  0.91995570  0.06163535  0.24802534  1
  Te  Te172  1  0.88064001  0.09603366  0.55316875  1
  Te  Te173  1  0.93214150  0.08665591  0.93864530  1
  Te  Te174  1  0.91452997  0.40034154  0.24383030  1
  Te  Te175  1  0.89108112  0.38095151  0.58426082  1
  Te  Te176  1  0.92122850  0.43786011  0.90955390  1
  Te  Te177  1  0.92643940  0.74307473  0.24207407  1
  Te  Te178  1  0.93567062  0.72563117  0.63274683  1
  Te  Te179  1  0.91614715  0.75048103  0.89595271  1
