# generated using pymatgen
data_In2Te3
_symmetry_space_group_name_H-M   'P 1'
_cell_length_a   19.01473522
_cell_length_b   19.03636506
_cell_length_c   19.04472212
_cell_angle_alpha   89.97730212
_cell_angle_beta   90.11710800
_cell_angle_gamma   89.70366007
_symmetry_Int_Tables_number   1
_chemical_formula_structural   In2Te3
_chemical_formula_sum   'In72 Te108'
_cell_volume   6893.53833608
_cell_formula_units_Z   36
loop_
 _symmetry_equiv_pos_site_id
 _symmetry_equiv_pos_as_xyz
  1  'x, y, z'
loop_
 _atom_site_type_symbol
 _atom_site_label
 _atom_site_symmetry_multiplicity
 _atom_site_fract_x
 _atom_site_fract_y
 _atom_site_fract_z
 _atom_site_occupancy
  In  In0  1  0.81032294  0.32608709  0.16534616  1
  In  In1  1  0.65178366  0.38676182  0.35831015  1
  In  In2  1  -0.01177220  0.66963062  0.65465320  1
  In  In3  1  0.67895438  0.15309307  0.13945828  1
  In  In4  1  0.14382233  0.00516616  0.14400887  1
  In  In5  1  -0.00203953  0.35917786  0.67244059  1
  In  In6  1  0.65396415  0.61322621  0.34858532  1
  In  In7  1  0.66618814  0.67635834  0.65950790  1
  In  In8  1  0.01601727  0.15307115  0.16982052  1
  In  In9  1  0.49294234  0.49459159  -0.00981364  1
  In  In10  1  0.80827908  0.35568057  0.82600661  1
  In  In11  1  0.65666797  0.34600660  0.00666668  1
  In  In12  1  0.50051725  0.80920535  0.65416186  1
  In  In13  1  -0.01475894  0.31964158  0.35256903  1
  In  In14  1  0.34086833  0.81788267  0.51136527  1
  In  In15  1  0.18304252  0.52306841  0.30693582  1
  In  In16  1  0.84182089  0.15594764  -0.02504687  1
  In  In17  1  0.35784934  0.50568555  0.50589472  1
  In  In18  1  0.81319095  0.15109314  0.69412889  1
  In  In19  1  0.82084054  0.64825392  0.81874349  1
  In  In20  1  0.33952073  0.65344231  0.66071201  1
  In  In21  1  0.14051201  0.00869404  0.52736151  1
  In  In22  1  0.36077816  -0.07636341  0.76242890  1
  In  In23  1  0.51375803  -0.02573588  0.49905116  1
  In  In24  1  0.53115374  0.15192973  -0.03413050  1
  In  In25  1  0.00110132  -0.01092759  0.32900267  1
  In  In26  1  0.53025977  0.35430034  0.53675820  1
  In  In27  1  0.35853797  -0.01899704  0.33668004  1
  In  In28  1  0.34857408  0.15012282  0.50951440  1
  In  In29  1  0.82126247  0.83161145  -0.02132580  1
  In  In30  1  0.32795076  0.31624029  0.33938493  1
  In  In31  1  0.65391661  0.82287013  0.83590232  1
  In  In32  1  0.51462641  0.02128718  0.13943788  1
  In  In33  1  0.15523316  0.19122752  0.66737444  1
  In  In34  1  0.64837199  0.52214094  0.81211370  1
  In  In35  1  0.83019387  -0.00206233  0.51541820  1
  In  In36  1  -0.01104093  0.49478983  0.50816361  1
  In  In37  1  0.01042577  0.52893823  0.84091213  1
  In  In38  1  0.47918806  0.64005208  0.16019360  1
  In  In39  1  0.36365157  0.65365041  0.34014103  1
  In  In40  1  0.83593706  0.49787852  0.33995414  1
  In  In41  1  0.16357665  0.84746287  0.36618352  1
  In  In42  1  0.82765542  0.16946972  0.32937025  1
  In  In43  1  0.80106842  0.80979905  0.29695401  1
  In  In44  1  -0.00188229  0.15840216  0.83806839  1
  In  In45  1  -0.00732870  -0.00801257  0.67588970  1
  In  In46  1  0.64963850  0.82555814  0.14401940  1
  In  In47  1  0.34569397  0.17305159  0.16980951  1
  In  In48  1  0.14822920  0.34009669  0.18075707  1
  In  In49  1  0.32320393  0.70053866  -0.02644287  1
  In  In50  1  -0.00036050  0.83895576  0.49921402  1
  In  In51  1  0.16461153  0.51044149  0.68767434  1
  In  In52  1  0.65941202  0.50295401  0.15665715  1
  In  In53  1  0.67971639  0.16932283  0.51743979  1
  In  In54  1  0.00698360  0.51264497  0.15961603  1
  In  In55  1  0.12738868  0.67985221  0.07108887  1
  In  In56  1  -0.00517996  0.34219934  -0.00570154  1
  In  In57  1  0.87639840  0.70511747  0.13048295  1
  In  In58  1  0.53992655  0.16171520  0.72689169  1
  In  In59  1  0.19416326  0.13137892  0.35993844  1
  In  In60  1  0.33880018  -0.01789171  -0.03655145  1
  In  In61  1  0.15204250  0.14315196  0.01271762  1
  In  In62  1  -0.00641459  0.82845732  0.81423319  1
  In  In63  1  0.33502422  0.16213474  0.83445890  1
  In  In64  1  0.34832180  0.33687005  -0.00057462  1
  In  In65  1  0.30180546  0.81030818  0.15477112  1
  In  In66  1  0.52059548  0.83376788  0.31439246  1
  In  In67  1  0.68140721  -0.00746531  0.66637757  1
  In  In68  1  0.36224782  0.32683372  0.69665023  1
  In  In69  1  0.83814248  0.65881668  0.49532343  1
  In  In70  1  0.35742952  0.49515629  0.83006086  1
  In  In71  1  0.15935821  0.37114673  0.51661548  1
  Te  Te72  1  0.03409623  0.05581630  0.05286111  1
  Te  Te73  1  0.06161385  0.08746858  0.42711420  1
  Te  Te74  1  0.09170210  0.08033340  0.74923119  1
  Te  Te75  1  0.09615939  0.42656929  0.06955865  1
  Te  Te76  1  0.09250262  0.42832833  0.39313364  1
  Te  Te77  1  0.09134081  0.41460169  0.77641337  1
  Te  Te78  1  0.04441832  0.80191975  0.03855490  1
  Te  Te79  1  0.08120340  0.74383828  0.42481985  1
  Te  Te80  1  0.07889681  0.72509947  0.75321793  1
  Te  Te81  1  0.40473879  0.09237283  0.05353862  1
  Te  Te82  1  0.43927104  0.08356668  0.40998019  1
  Te  Te83  1  0.42701478  0.07090399  0.75990026  1
  Te  Te84  1  0.42361620  0.41755622  0.09288263  1
  Te  Te85  1  0.42317227  0.39388185  0.43207834  1
  Te  Te86  1  0.44985092  0.43599202  0.73215435  1
  Te  Te87  1  0.42005427  0.75666876  0.08165277  1
  Te  Te88  1  0.44180409  0.75519592  0.41966676  1
  Te  Te89  1  0.38878085  0.76985677  0.74560788  1
  Te  Te90  1  0.77943993  0.07055910  0.07415565  1
  Te  Te91  1  0.74518000  0.07634372  0.41760258  1
  Te  Te92  1  0.71160175  0.08493804  0.78230171  1
  Te  Te93  1  0.76378920  0.43188126  0.07000761  1
  Te  Te94  1  0.76832166  0.41710359  0.44049270  1
  Te  Te95  1  0.72749350  0.42930228  0.72895651  1
  Te  Te96  1  0.73910405  0.73578111  0.06330172  1
  Te  Te97  1  0.73667272  0.72818384  0.40538455  1
  Te  Te98  1  0.75847602  0.76409168  0.74491702  1
  Te  Te99  1  0.09463832  0.23220071  0.27390819  1
  Te  Te100  1  0.06632068  0.26580447  0.57042515  1
  Te  Te101  1  0.08763519  0.24760554  0.92131450  1
  Te  Te102  1  0.10351400  0.61208940  0.21649093  1
  Te  Te103  1  0.08997249  0.58123024  0.57778303  1
  Te  Te104  1  0.07707032  0.59370120  0.95456708  1
  Te  Te105  1  0.09082278  0.90393791  0.24255436  1
  Te  Te106  1  0.08876945  0.89522236  0.60907635  1
  Te  Te107  1  0.08349051  0.88881112  0.91990339  1
  Te  Te108  1  0.43007123  0.24292958  0.26447474  1
  Te  Te109  1  0.43378734  0.24331178  0.59323927  1
  Te  Te110  1  0.43054805  0.25312757  0.90581322  1
  Te  Te111  1  0.44309978  0.55053852  0.27184002  1
  Te  Te112  1  0.44751586  0.60412249  0.56861258  1
  Te  Te113  1  0.42532058  0.60417699  0.91049875  1
  Te  Te114  1  0.42960614  0.91567234  0.22261406  1
  Te  Te115  1  0.40621297  0.92627998  0.59316292  1
  Te  Te116  1  0.43331000  0.89220323  0.89207129  1
  Te  Te117  1  0.72326212  0.26036174  0.26452823  1
  Te  Te118  1  0.73842032  0.25298445  0.62135190  1
  Te  Te119  1  0.74184740  0.25245089  0.91755320  1
  Te  Te120  1  0.75906841  0.58150495  0.24134928  1
  Te  Te121  1  0.75283949  0.58009088  0.58604116  1
  Te  Te122  1  0.73421396  0.58148910  0.91412326  1
  Te  Te123  1  0.73588979  0.91454868  0.22066334  1
  Te  Te124  1  0.73354150  0.89869716  0.56566465  1
  Te  Te125  1  0.72651023  0.92838152  0.91538874  1
  Te  Te126  1  0.23282461  0.24376737  0.09353685  1
  Te  Te127  1  0.24276672  0.25200799  0.44971779  1
  Te  Te128  1  0.24445958  0.26316018  0.76561221  1
  Te  Te129  1  0.26164969  0.61908447  0.07927767  1
  Te  Te130  1  0.25680002  0.58463851  0.42379710  1
  Te  Te131  1  0.25290279  0.59368912  0.77272982  1
  Te  Te132  1  0.24749098  0.92100414  0.07060337  1
  Te  Te133  1  0.25517155  0.94149626  0.44206697  1
  Te  Te134  1  0.22020012  0.89420957  0.79579577  1
  Te  Te135  1  0.57293791  0.24451240  0.07872371  1
  Te  Te136  1  0.59498746  0.26429728  0.43343256  1
  Te  Te137  1  0.59571991  0.26341400  0.81144730  1
  Te  Te138  1  0.58392805  0.59275352  0.06170886  1
  Te  Te139  1  0.57536321  0.56595902  0.46609823  1
  Te  Te140  1  0.56923789  0.63485721  0.76124259  1
  Te  Te141  1  0.57287851  0.91590382  0.05075131  1
  Te  Te142  1  0.59954660  0.92903253  0.39114994  1
  Te  Te143  1  0.57775178  0.90965554  0.73679203  1
  Te  Te144  1  0.92235373  0.25132607  0.09422981  1
  Te  Te145  1  0.88654470  0.25269101  0.43439256  1
  Te  Te146  1  0.91628970  0.25947469  0.75956050  1
  Te  Te147  1  0.92755162  0.58567996  0.06085157  1
  Te  Te148  1  0.93807784  0.58931309  0.40196275  1
  Te  Te149  1  0.91188611  0.56493121  0.73091808  1
  Te  Te150  1  0.90982877  0.85392581  0.10229072  1
  Te  Te151  1  0.89995821  0.90909759  0.40685519  1
  Te  Te152  1  0.89493151  0.92931117  0.76389860  1
  Te  Te153  1  0.25767179  0.06303658  0.23951467  1
  Te  Te154  1  0.24610511  0.08771380  0.60257656  1
  Te  Te155  1  0.23329943  0.07486618  0.90379328  1
  Te  Te156  1  0.26500803  0.41523002  0.23993890  1
  Te  Te157  1  0.26804152  0.42315524  0.60781570  1
  Te  Te158  1  0.26546182  0.42649062  0.92112342  1
  Te  Te159  1  0.26457082  0.75963923  0.28809219  1
  Te  Te160  1  0.24590015  0.74136081  0.58792402  1
  Te  Te161  1  0.22253966  0.79812228  0.91082674  1
  Te  Te162  1  0.59538375  0.08733141  0.23973231  1
  Te  Te163  1  0.57537092  0.08523773  0.59247372  1
  Te  Te164  1  0.62033506  0.05291670  0.90554135  1
  Te  Te165  1  0.56958996  0.42607565  0.24376124  1
  Te  Te166  1  0.61666701  0.46969517  0.57254788  1
  Te  Te167  1  0.57237539  0.40425005  0.89642227  1
  Te  Te168  1  0.58540582  0.71479187  0.24698068  1
  Te  Te169  1  0.60971721  0.77541986  0.56293263  1
  Te  Te170  1  0.55597217  0.79787964  0.94376949  1
  Te  Te171  1  0.90985496  0.07421690  0.24280581  1
  Te  Te172  1  0.91391034  0.09361923  0.59544766  1
  Te  Te173  1  0.90115430  0.05680111  0.88226987  1
  Te  Te174  1  0.92225469  0.40589434  0.24337106  1
  Te  Te175  1  0.89678773  0.40754171  0.57734868  1
  Te  Te176  1  0.91086528  0.43176863  0.90789514  1
  Te  Te177  1  0.93237486  0.75901792  0.25623350  1
  Te  Te178  1  0.89711865  0.76725499  0.58357459  1
  Te  Te179  1  0.91052010  0.73622862  0.90283224  1
