# generated using pymatgen
data_In2Te3
_symmetry_space_group_name_H-M   'P 1'
_cell_length_a   18.97369243
_cell_length_b   18.98186530
_cell_length_c   18.96597647
_cell_angle_alpha   89.85101652
_cell_angle_beta   90.23062299
_cell_angle_gamma   90.07397327
_symmetry_Int_Tables_number   1
_chemical_formula_structural   In2Te3
_chemical_formula_sum   'In72 Te108'
_cell_volume   6830.62759555
_cell_formula_units_Z   36
loop_
 _symmetry_equiv_pos_site_id
 _symmetry_equiv_pos_as_xyz
  1  'x, y, z'
loop_
 _atom_site_type_symbol
 _atom_site_label
 _atom_site_symmetry_multiplicity
 _atom_site_fract_x
 _atom_site_fract_y
 _atom_site_fract_z
 _atom_site_occupancy
  In  In0  1  0.48480556  0.48410246  0.71017765  1
  In  In1  1  0.86504654  0.66328274  0.85489177  1
  In  In2  1  0.31982520  0.32439560  0.32308095  1
  In  In3  1  0.33311468  0.34728301  0.68982274  1
  In  In4  1  0.67537131  0.83516771  0.14317690  1
  In  In5  1  0.18712539  0.33342060  0.87131547  1
  In  In6  1  0.15109520  0.51342244  0.68716645  1
  In  In7  1  0.30666795  -0.01864745  -0.00710868  1
  In  In8  1  0.32749663  0.83318362  0.50956828  1
  In  In9  1  0.86533629  0.67771334  0.16914946  1
  In  In10  1  0.83530355  0.00976649  0.82601334  1
  In  In11  1  0.50812794  0.84155880  0.64917720  1
  In  In12  1  0.65543986  0.65252685  0.34520778  1
  In  In13  1  0.67734352  0.82178244  0.51167489  1
  In  In14  1  0.85524277  0.31368123  0.51096124  1
  In  In15  1  0.68826959  0.83451783  0.82012173  1
  In  In16  1  0.34209548  0.16525964  0.83063861  1
  In  In17  1  0.50269927  0.33948246  0.16562222  1
  In  In18  1  0.51715061  0.65734112  0.81888974  1
  In  In19  1  0.66262250  0.01651784  0.67109153  1
  In  In20  1  0.67734722  0.16595436  0.19959233  1
  In  In21  1  0.16137619  0.01113172  0.55177394  1
  In  In22  1  0.82770176  0.65335492  0.48286049  1
  In  In23  1  0.33226497  0.00011832  0.34543222  1
  In  In24  1  0.31201279  0.86279693  0.81916299  1
  In  In25  1  0.33206815  0.15911309  0.48629170  1
  In  In26  1  0.50864493  0.46314722  -0.03960279  1
  In  In27  1  0.86924921  0.82962388  0.69474779  1
  In  In28  1  0.32179588  0.67464854  0.30856395  1
  In  In29  1  0.66519784  0.01905027  -0.02491901  1
  In  In30  1  -0.00140992  0.17080412  0.15086778  1
  In  In31  1  0.86362916  0.00243153  0.15924956  1
  In  In32  1  0.01169710  0.67602630  0.68042352  1
  In  In33  1  0.01816798  0.51804896  0.14772214  1
  In  In34  1  0.05271800  0.00223107  -0.03051165  1
  In  In35  1  0.82350103  0.48215568  0.65254599  1
  In  In36  1  0.13249007  0.28479320  0.55134542  1
  In  In37  1  0.50038161  0.17609473  0.67933090  1
  In  In38  1  0.18622547  -0.00949821  0.16659851  1
  In  In39  1  -0.01391313  0.01352521  0.34998358  1
  In  In40  1  0.18220884  0.66709524  0.84603384  1
  In  In41  1  0.70021012  0.65894110  0.00461820  1
  In  In42  1  0.16732778  0.49459013  0.30868045  1
  In  In43  1  0.32393695  0.66822511  0.67336688  1
  In  In44  1  0.66664778  0.33760390  0.32846002  1
  In  In45  1  -0.02029374  0.49933361  0.49297568  1
  In  In46  1  0.49107496  0.85173228  0.34474982  1
  In  In47  1  0.01042001  0.18059873  0.83070283  1
  In  In48  1  0.64327642  0.50079398  0.49233322  1
  In  In49  1  0.32893608  0.64779431  0.02086809  1
  In  In50  1  0.48037286  0.81843059  -0.01469329  1
  In  In51  1  0.83482787  0.16861821  0.67855675  1
  In  In52  1  -0.00783573  0.33578630  0.31930474  1
  In  In53  1  0.13856868  0.17049694  0.32020223  1
  In  In54  1  0.19083664  0.68492649  0.49639048  1
  In  In55  1  0.67342004  0.33000333  0.68547035  1
  In  In56  1  0.81112254  0.02049264  0.51185968  1
  In  In57  1  0.82620619  0.46543023  -0.01518172  1
  In  In58  1  0.31847922  0.21988825  0.12433437  1
  In  In59  1  0.50100393  0.65456322  0.19028038  1
  In  In60  1  0.00501794  0.48118693  0.85373835  1
  In  In61  1  0.82533727  0.18717912  -0.01158545  1
  In  In62  1  0.65905845  0.48247425  0.14917021  1
  In  In63  1  0.67630660  -0.01414350  0.33937184  1
  In  In64  1  0.49465253  0.17293328  -0.00886738  1
  In  In65  1  0.81636501  0.49361051  0.31536461  1
  In  In66  1  0.34234980  0.48383696  0.51613440  1
  In  In67  1  0.00680645  0.85308638  0.49036670  1
  In  In68  1  0.02488851  0.81283049  0.13418019  1
  In  In69  1  0.51101392  0.31954866  0.48485676  1
  In  In70  1  0.47104028  -0.01074509  0.16145601  1
  In  In71  1  0.17384926  0.82738414  0.31653562  1
  Te  Te72  1  0.10676968  0.08929849  0.08299541  1
  Te  Te73  1  0.08951146  0.08389419  0.43459008  1
  Te  Te74  1  0.09174181  0.09645214  0.74111912  1
  Te  Te75  1  0.10979998  0.44381785  0.05664300  1
  Te  Te76  1  0.07916775  0.41930902  0.41225433  1
  Te  Te77  1  0.08972639  0.39901361  0.76122140  1
  Te  Te78  1  0.05098619  0.71698874  0.02545649  1
  Te  Te79  1  0.08311457  0.74867429  0.41142002  1
  Te  Te80  1  0.09168507  0.76119177  0.77037045  1
  Te  Te81  1  0.38860900  0.08869180  0.08030700  1
  Te  Te82  1  0.43149037  0.08115359  0.41453106  1
  Te  Te83  1  0.40089822  0.07745240  0.72658889  1
  Te  Te84  1  0.42423816  0.41842682  0.07004537  1
  Te  Te85  1  0.41535447  0.40935129  0.40721595  1
  Te  Te86  1  0.40263467  0.40707667  0.80676652  1
  Te  Te87  1  0.41554560  0.74766663  0.09963133  1
  Te  Te88  1  0.40810687  0.74698057  0.41651980  1
  Te  Te89  1  0.41459206  0.75599211  0.75881179  1
  Te  Te90  1  0.75145040  0.08076063  0.08641591  1
  Te  Te91  1  0.74548290  0.09657453  0.40607123  1
  Te  Te92  1  0.73219627  0.10596575  0.77239439  1
  Te  Te93  1  0.73068147  0.38476025  0.06653173  1
  Te  Te94  1  0.76259268  0.42042114  0.43727942  1
  Te  Te95  1  0.78569633  0.38999736  0.76231360  1
  Te  Te96  1  0.78631749  0.76511611  0.06768538  1
  Te  Te97  1  0.75318251  0.75473005  0.39784147  1
  Te  Te98  1  0.77056835  0.72933373  0.75145250  1
  Te  Te99  1  0.09068721  0.27258541  0.22001722  1
  Te  Te100  1  0.04729892  0.18577238  0.62887646  1
  Te  Te101  1  0.09377613  0.23841337  0.94045242  1
  Te  Te102  1  0.09208144  0.60447693  0.24399677  1
  Te  Te103  1  0.08489649  0.59176320  0.56765953  1
  Te  Te104  1  0.06793842  0.59968197  0.91948864  1
  Te  Te105  1  0.07768201  0.93404113  0.25929719  1
  Te  Te106  1  0.07239641  0.90973212  0.60735192  1
  Te  Te107  1  0.10995584  0.89476393  0.88508880  1
  Te  Te108  1  0.41450774  0.23892227  0.24146648  1
  Te  Te109  1  0.40286029  0.26616482  0.58139295  1
  Te  Te110  1  0.40431127  0.26697264  0.92083997  1
  Te  Te111  1  0.39280650  0.56934518  0.23664889  1
  Te  Te112  1  0.42149323  0.57962579  0.60160737  1
  Te  Te113  1  0.42999000  0.58863256  0.92115207  1
  Te  Te114  1  0.38436410  0.89810253  0.24555517  1
  Te  Te115  1  0.40711054  0.92659513  0.58829252  1
  Te  Te116  1  0.41957623  0.93094659  0.90420605  1
  Te  Te117  1  0.76585712  0.27270889  0.24438958  1
  Te  Te118  1  0.74144475  0.24344977  0.58149749  1
  Te  Te119  1  0.72228809  0.27702928  0.93454410  1
  Te  Te120  1  0.73907440  0.59664471  0.23101855  1
  Te  Te121  1  0.73629496  0.58432038  0.58091357  1
  Te  Te122  1  0.75066249  0.56620788  0.89923599  1
  Te  Te123  1  0.76474297  0.91591457  0.23571465  1
  Te  Te124  1  0.76004917  0.90903803  0.61204443  1
  Te  Te125  1  0.76409566  0.91559842  0.92296896  1
  Te  Te126  1  0.23950580  0.27724488  0.01198895  1
  Te  Te127  1  0.22472926  0.25536939  0.42147625  1
  Te  Te128  1  0.23963331  0.24862757  0.75226938  1
  Te  Te129  1  0.21942247  0.55910478  0.06785971  1
  Te  Te130  1  0.25903862  0.57359056  0.42004706  1
  Te  Te131  1  0.26647024  0.56597873  0.76863516  1
  Te  Te132  1  0.22501438  0.88765951  0.07068940  1
  Te  Te133  1  0.23161972  0.92101058  0.42772778  1
  Te  Te134  1  0.20632483  0.96874245  0.79436373  1
  Te  Te135  1  0.58508871  0.23364792  0.09652703  1
  Te  Te136  1  0.58710462  0.23467873  0.39487899  1
  Te  Te137  1  0.56499659  0.27444823  0.77175412  1
  Te  Te138  1  0.58413366  0.59201152  0.07541766  1
  Te  Te139  1  0.55026109  0.58961194  0.42219665  1
  Te  Te140  1  0.60255730  0.55518990  0.76031186  1
  Te  Te141  1  0.57310479  0.92165097  0.06712587  1
  Te  Te142  1  0.58441131  0.92085050  0.44239640  1
  Te  Te143  1  0.58177139  0.92006387  0.75758234  1
  Te  Te144  1  0.91967728  0.26759417  0.07051784  1
  Te  Te145  1  0.94085188  0.24071190  0.41866261  1
  Te  Te146  1  0.89898752  0.26233829  0.77414482  1
  Te  Te147  1  0.90056099  0.57344896  0.06794868  1
  Te  Te148  1  0.91856099  0.58540117  0.38349921  1
  Te  Te149  1  0.92466793  0.56803437  0.74148673  1
  Te  Te150  1  0.95676364  0.92864741  0.06589719  1
  Te  Te151  1  0.89075538  0.92179606  0.42269078  1
  Te  Te152  1  0.94396449  0.93186477  0.76653457  1
  Te  Te153  1  0.25233406  0.09584283  0.25526894  1
  Te  Te154  1  0.27233693  0.09168877  0.60432519  1
  Te  Te155  1  0.23980724  0.08267906  0.90610940  1
  Te  Te156  1  0.24566564  0.40469290  0.22469890  1
  Te  Te157  1  0.22847591  0.41776358  0.59147841  1
  Te  Te158  1  0.22093125  0.45901153  0.94786180  1
  Te  Te159  1  0.21374066  0.72404282  0.21893544  1
  Te  Te160  1  0.23274539  0.77228264  0.61353317  1
  Te  Te161  1  0.27546125  0.75641983  0.92384302  1
  Te  Te162  1  0.57604449  0.05731101  0.24402695  1
  Te  Te163  1  0.58174487  0.10085587  0.58417912  1
  Te  Te164  1  0.56852201  0.09164022  0.89412963  1
  Te  Te165  1  0.57303778  0.43633088  0.26359926  1
  Te  Te166  1  0.57097014  0.41118517  0.59289499  1
  Te  Te167  1  0.60293382  0.37007433  0.89771743  1
  Te  Te168  1  0.58446964  0.77363958  0.25148812  1
  Te  Te169  1  0.58829716  0.73660521  0.59004709  1
  Te  Te170  1  0.60101916  0.75130084  0.92013854  1
  Te  Te171  1  0.90980434  0.10784047  0.25792183  1
  Te  Te172  1  0.91968934  0.08149427  0.59339046  1
  Te  Te173  1  0.92331141  0.08491832  0.93025999  1
  Te  Te174  1  0.91690536  0.42770813  0.22557416  1
  Te  Te175  1  0.94196712  0.40002101  0.60044205  1
  Te  Te176  1  0.94312437  0.38297959  0.94627663  1
  Te  Te177  1  0.94180652  0.77380063  0.24741620  1
  Te  Te178  1  0.91590159  0.73989047  0.57187208  1
  Te  Te179  1  0.95983162  0.75961548  0.90894887  1
